MODEL        1
REMARK 921   NORMALIZED FREE ENERGY PREDICTED BY IDOCK:   -7.31 KCAL/MOL
REMARK 922        TOTAL FREE ENERGY PREDICTED BY IDOCK:  -12.95 KCAL/MOL
REMARK 923 INTER-LIGAND FREE ENERGY PREDICTED BY IDOCK:   -9.88 KCAL/MOL
REMARK 924 INTRA-LIGAND FREE ENERGY PREDICTED BY IDOCK:   -3.08 KCAL/MOL
REMARK 927      BINDING AFFINITY PREDICTED BY RF-SCORE:    0.00 PKD
ROOT
HETATM    1  C   UNL     1     -12.770  14.315  65.815  1.00  0.00    -0.365 C  
HETATM    2  C   UNL     1     -11.834  13.965  66.969  1.00  0.00    -0.447 C  
HETATM    3  C   UNL     2     -12.366  11.620  63.669  1.00  0.00    -0.230 C  
HETATM    4  O   UNL     2     -11.883  11.506  64.998  1.00  0.00    -0.029 OA 
ENDROOT
BRANCH   2   5
HETATM    5  C   UNL     1     -10.428  14.656  66.980  1.00  0.00    -0.269 C  
HETATM    6  O   UNL     1     -10.590  15.741  69.189  1.00  0.00    -0.214 OA 
HETATM    7  C   UNL     1     -10.276  15.178  65.541  1.00  0.00    -0.376 C  
HETATM    8  C   UNL     1     -10.461  15.850  67.966  1.00  0.00    -0.274 C  
HETATM    9  H   UNL     1      -9.966  17.839  68.051  1.00  0.00     0.000 HD 
HETATM   10  N   UNL     1     -10.820  16.408  65.298  1.00  0.00    -0.325 N  
HETATM   11  O   UNL     1      -9.789  14.537  64.617  1.00  0.00    -0.102 OA 
HETATM   12  O   UNL     1     -10.393  18.578  65.715  1.00  0.00    -0.590 OA 
HETATM   13  N   UNL     1     -10.286  17.099  67.427  1.00  0.00    -0.326 N  
HETATM   14  C   UNL     1     -10.506  17.427  66.130  1.00  0.00    -0.284 C  
HETATM   15  H   UNL     1     -11.449  16.554  64.508  1.00  0.00     0.000 HD 
BRANCH   5  16
HETATM   16  C   UNL     1      -9.314  13.656  67.356  1.00  0.00    -0.227 A  
HETATM   17  C   UNL     1      -6.948  13.151  67.667  1.00  0.00    -0.156 A  
HETATM   18  C   UNL     1      -7.959  13.917  67.080  1.00  0.00    -0.072 A  
HETATM   19  C   UNL     1      -9.613  12.498  68.095  1.00  0.00    -0.215 A  
HETATM   20  C   UNL     1      -7.272  12.093  68.509  1.00  0.00    -0.102 A  
HETATM   21  C   UNL     1      -8.604  11.746  68.696  1.00  0.00    -0.062 A  
ENDBRANCH   5  16
ENDBRANCH   2   5
BRANCH   4  22
HETATM   22  C   UNL     2     -10.663  10.927  65.156  1.00  0.00    -0.139 A  
HETATM   23  C   UNL     2      -9.487  11.298  64.536  1.00  0.00    -0.211 A  
HETATM   24  C   UNL     2      -9.488   9.139  66.382  1.00  0.00    -0.288 A  
HETATM   25  C   UNL     2      -8.187   7.415  67.472  1.00  0.00    -0.113 A  
HETATM   26  C   UNL     2      -8.317  10.593  64.831  1.00  0.00    -0.085 A  
HETATM   27  C   UNL     2      -7.090   7.867  66.758  1.00  0.00    -0.077 A  
HETATM   28  C   UNL     2     -10.636   9.917  66.112  1.00  0.00    -0.050 A  
HETATM   29  C   UNL     2      -9.435   8.032  67.291  1.00  0.00    -0.196 A  
HETATM   30  C   UNL     2      -8.300   9.509  65.703  1.00  0.00    -0.126 A  
HETATM   31  N   UNL     2      -7.132   8.884  65.880  1.00  0.00    -0.083 NA 
BRANCH  29  32
HETATM   32  C   UNL     2     -10.639   7.573  68.138  1.00  0.00    -0.145 C  
HETATM   33  H   UNL     2     -11.788   5.965  68.310  1.00  0.00     0.000 HD 
HETATM   34  O   UNL     2     -11.046   6.248  67.789  1.00  0.00    -0.334 OA 
BRANCH  32  35
HETATM   35  C   UNL     2     -10.464   7.596  69.701  1.00  0.00    -0.235 C  
HETATM   36  C   UNL     2     -12.094   7.921  71.605  1.00  0.00    -0.333 C  
HETATM   37  C   UNL     2     -10.847   8.093  72.490  1.00  0.00    -0.431 C  
HETATM   38  C   UNL     2      -9.729   8.772  71.683  1.00  0.00    -0.296 C  
HETATM   39  C   UNL     2     -11.690   6.999  70.440  1.00  0.00    -0.326 C  
HETATM   40  N   UNL     2     -10.117   8.947  70.263  1.00  0.00    -0.181 NA 
HETATM   41  C   UNL     2     -11.280   9.875  70.250  1.00  0.00    -0.301 C  
HETATM   42  C   UNL     2     -12.509   9.281  70.988  1.00  0.00    -0.276 C  
BRANCH  42  43
HETATM   43  C   UNL     2     -13.050  10.240  72.023  1.00  0.00    -0.529 C  
HETATM   44  C   UNL     2     -13.223  11.554  71.825  1.00  0.00    -0.456 C  
ENDBRANCH  42  43
ENDBRANCH  32  35
ENDBRANCH  29  32
ENDBRANCH   4  22
TORSDOF 6
ENDMDL
MODEL        2
REMARK 921   NORMALIZED FREE ENERGY PREDICTED BY IDOCK:   -7.24 KCAL/MOL
REMARK 922        TOTAL FREE ENERGY PREDICTED BY IDOCK:  -12.86 KCAL/MOL
REMARK 923 INTER-LIGAND FREE ENERGY PREDICTED BY IDOCK:  -11.07 KCAL/MOL
REMARK 924 INTRA-LIGAND FREE ENERGY PREDICTED BY IDOCK:   -1.79 KCAL/MOL
REMARK 927      BINDING AFFINITY PREDICTED BY RF-SCORE:    0.00 PKD
ROOT
HETATM    1  C   UNL     1      -7.636  10.049  69.979  1.00  0.00    -0.182 C  
HETATM    2  C   UNL     1      -9.052  10.591  69.798  1.00  0.00     0.124 C  
HETATM    3  C   UNL     2      -6.235  10.536  66.843  1.00  0.00    -0.066 C  
HETATM    4  O   UNL     2      -7.452  11.196  67.151  1.00  0.00    -0.108 OA 
ENDROOT
BRANCH   2   5
HETATM    5  C   UNL     1     -10.190   9.543  69.548  1.00  0.00    -0.225 C  
HETATM    6  O   UNL     1     -11.698  10.973  68.221  1.00  0.00    -0.461 OA 
HETATM    7  C   UNL     1     -10.315   8.824  70.902  1.00  0.00    -0.223 C  
HETATM    8  C   UNL     1     -11.508  10.294  69.233  1.00  0.00    -0.160 C  
HETATM    9  H   UNL     1     -13.479  10.323  69.798  1.00  0.00     0.000 HD 
HETATM   10  N   UNL     1     -11.138   9.422  71.815  1.00  0.00    -0.342 N  
HETATM   11  O   UNL     1      -9.673   7.831  71.224  1.00  0.00    -0.157 OA 
HETATM   12  O   UNL     1     -13.337   9.706  72.203  1.00  0.00    -0.427 OA 
HETATM   13  N   UNL     1     -12.533  10.141  70.131  1.00  0.00    -0.111 N  
HETATM   14  C   UNL     1     -12.387   9.767  71.426  1.00  0.00    -0.388 C  
HETATM   15  H   UNL     1     -10.819   9.604  72.766  1.00  0.00     0.000 HD 
BRANCH   5  16
HETATM   16  C   UNL     1      -9.818   8.572  68.407  1.00  0.00    -0.189 A  
HETATM   17  C   UNL     1      -8.227   7.039  67.375  1.00  0.00    -0.119 A  
HETATM   18  C   UNL     1      -8.499   8.119  68.219  1.00  0.00    -0.130 A  
HETATM   19  C   UNL     1     -10.816   8.020  67.586  1.00  0.00    -0.108 A  
HETATM   20  C   UNL     1      -9.258   6.418  66.679  1.00  0.00    -0.167 A  
HETATM   21  C   UNL     1     -10.548   6.930  66.759  1.00  0.00    -0.304 A  
ENDBRANCH   5  16
ENDBRANCH   2   5
BRANCH   4  22
HETATM   22  C   UNL     2      -8.405  11.204  66.180  1.00  0.00    -0.144 A  
HETATM   23  C   UNL     2      -8.582  10.259  65.190  1.00  0.00    -0.181 A  
HETATM   24  C   UNL     2     -10.341  12.484  65.347  1.00  0.00    -0.305 A  
HETATM   25  C   UNL     2     -12.238  13.630  64.376  1.00  0.00    -0.436 A  
HETATM   26  C   UNL     2      -9.628  10.424  64.280  1.00  0.00    -0.377 A  
HETATM   27  C   UNL     2     -12.282  12.630  63.419  1.00  0.00    -0.517 A  
HETATM   28  C   UNL     2      -9.316  12.249  66.291  1.00  0.00    -0.206 A  
HETATM   29  C   UNL     2     -11.246  13.596  65.369  1.00  0.00    -0.306 A  
HETATM   30  C   UNL     2     -10.480  11.524  64.313  1.00  0.00    -0.338 A  
HETATM   31  N   UNL     2     -11.421  11.599  63.368  1.00  0.00    -0.345 NA 
BRANCH  29  32
HETATM   32  C   UNL     2     -11.240  14.671  66.474  1.00  0.00    -0.346 C  
HETATM   33  H   UNL     2     -11.714  14.806  68.396  1.00  0.00     0.000 HD 
HETATM   34  O   UNL     2     -11.717  14.144  67.715  1.00  0.00    -0.332 OA 
BRANCH  32  35
HETATM   35  C   UNL     2      -9.867  15.375  66.779  1.00  0.00    -0.245 C  
HETATM   36  C   UNL     2      -9.196  17.203  68.390  1.00  0.00    -0.266 C  
HETATM   37  C   UNL     2      -7.882  17.265  67.593  1.00  0.00    -0.192 C  
HETATM   38  C   UNL     2      -8.159  16.953  66.114  1.00  0.00    -0.260 C  
HETATM   39  C   UNL     2      -9.721  15.760  68.274  1.00  0.00    -0.201 C  
HETATM   40  N   UNL     2      -9.571  16.559  65.899  1.00  0.00    -0.483 NA 
HETATM   41  C   UNL     2     -10.403  17.740  66.253  1.00  0.00    -0.358 C  
HETATM   42  C   UNL     2     -10.261  18.128  67.748  1.00  0.00    -0.395 C  
BRANCH  42  43
HETATM   43  C   UNL     2      -9.922  19.592  67.911  1.00  0.00    -0.527 C  
HETATM   44  C   UNL     2      -9.707  20.440  66.895  1.00  0.00    -0.567 C  
ENDBRANCH  42  43
ENDBRANCH  32  35
ENDBRANCH  29  32
ENDBRANCH   4  22
TORSDOF 6
ENDMDL
MODEL        3
REMARK 921   NORMALIZED FREE ENERGY PREDICTED BY IDOCK:   -7.03 KCAL/MOL
REMARK 922        TOTAL FREE ENERGY PREDICTED BY IDOCK:  -12.57 KCAL/MOL
REMARK 923 INTER-LIGAND FREE ENERGY PREDICTED BY IDOCK:   -9.14 KCAL/MOL
REMARK 924 INTRA-LIGAND FREE ENERGY PREDICTED BY IDOCK:   -3.43 KCAL/MOL
REMARK 927      BINDING AFFINITY PREDICTED BY RF-SCORE:    0.00 PKD
ROOT
HETATM    1  C   UNL     1      -5.598   8.197  67.315  1.00  0.00    -0.038 C  
HETATM    2  C   UNL     1      -6.504   7.056  67.773  1.00  0.00    -0.051 C  
HETATM    3  C   UNL     2      -5.989  10.534  69.849  1.00  0.00    -0.066 C  
HETATM    4  O   UNL     2      -6.443   9.209  70.073  1.00  0.00    -0.040 OA 
ENDROOT
BRANCH   2   5
HETATM    5  C   UNL     1      -7.924   6.967  67.115  1.00  0.00    -0.113 C  
HETATM    6  O   UNL     1      -7.789   4.641  66.308  1.00  0.00    -0.097 OA 
HETATM    7  C   UNL     1      -8.082   8.332  66.423  1.00  0.00    -0.105 C  
HETATM    8  C   UNL     1      -7.917   5.841  66.051  1.00  0.00    -0.103 C  
HETATM    9  H   UNL     1      -8.451   5.515  64.098  1.00  0.00     0.000 HD 
HETATM   10  N   UNL     1      -7.561   8.418  65.162  1.00  0.00    -0.084 N  
HETATM   11  O   UNL     1      -8.553   9.330  66.954  1.00  0.00    -0.125 OA 
HETATM   12  O   UNL     1      -8.032   7.740  63.069  1.00  0.00    -0.140 OA 
HETATM   13  N   UNL     1      -8.115   6.223  64.749  1.00  0.00    -0.134 N  
HETATM   14  C   UNL     1      -7.898   7.469  64.259  1.00  0.00    -0.133 C  
HETATM   15  H   UNL     1      -6.933   9.181  64.907  1.00  0.00     0.000 HD 
BRANCH   5  16
HETATM   16  C   UNL     1      -9.019   6.723  68.175  1.00  0.00    -0.118 A  
HETATM   17  C   UNL     1     -11.377   6.611  68.785  1.00  0.00    -0.181 A  
HETATM   18  C   UNL     1     -10.361   7.084  67.952  1.00  0.00    -0.247 A  
HETATM   19  C   UNL     1      -8.725   6.023  69.358  1.00  0.00    -0.121 A  
HETATM   20  C   UNL     1     -11.070   5.801  69.873  1.00  0.00    -0.327 A  
HETATM   21  C   UNL     1      -9.741   5.535  70.178  1.00  0.00    -0.242 A  
ENDBRANCH   5  16
ENDBRANCH   2   5
BRANCH   4  22
HETATM   22  C   UNL     2      -7.648   9.073  70.689  1.00  0.00    -0.119 A  
HETATM   23  C   UNL     2      -7.900   8.402  71.869  1.00  0.00    -0.165 A  
HETATM   24  C   UNL     2     -10.025   9.702  70.504  1.00  0.00    -0.318 A  
HETATM   25  C   UNL     2     -12.393  10.197  70.462  1.00  0.00    -0.330 A  
HETATM   26  C   UNL     2      -9.206   8.376  72.365  1.00  0.00    -0.345 A  
HETATM   27  C   UNL     2     -12.511   9.466  71.631  1.00  0.00    -0.378 A  
HETATM   28  C   UNL     2      -8.682   9.766  70.069  1.00  0.00    -0.237 A  
HETATM   29  C   UNL     2     -11.137  10.324  69.847  1.00  0.00    -0.362 A  
HETATM   30  C   UNL     2     -10.270   8.973  71.695  1.00  0.00    -0.348 A  
HETATM   31  N   UNL     2     -11.483   8.851  72.241  1.00  0.00    -0.311 NA 
BRANCH  29  32
HETATM   32  C   UNL     2     -10.994  11.196  68.584  1.00  0.00    -0.220 C  
HETATM   33  H   UNL     2     -12.067  11.644  66.977  1.00  0.00     0.000 HD 
HETATM   34  O   UNL     2     -12.155  11.107  67.755  1.00  0.00    -0.606 OA 
BRANCH  32  35
HETATM   35  C   UNL     2     -10.709  12.728  68.801  1.00  0.00    -0.214 C  
HETATM   36  C   UNL     2     -11.466  14.805  67.576  1.00  0.00    -0.369 C  
HETATM   37  C   UNL     2     -10.378  15.537  68.382  1.00  0.00    -0.230 C  
HETATM   38  C   UNL     2      -9.185  14.597  68.612  1.00  0.00    -0.194 C  
HETATM   39  C   UNL     2     -11.929  13.612  68.432  1.00  0.00    -0.391 C  
HETATM   40  N   UNL     2      -9.469  13.230  68.114  1.00  0.00    -0.218 NA 
HETATM   41  C   UNL     2      -9.650  13.341  66.642  1.00  0.00    -0.262 C  
HETATM   42  C   UNL     2     -10.870  14.224  66.269  1.00  0.00    -0.310 C  
BRANCH  42  43
HETATM   43  C   UNL     2     -10.491  15.303  65.281  1.00  0.00    -0.436 C  
HETATM   44  C   UNL     2     -11.362  15.962  64.505  1.00  0.00    -0.316 C  
ENDBRANCH  42  43
ENDBRANCH  32  35
ENDBRANCH  29  32
ENDBRANCH   4  22
TORSDOF 6
ENDMDL
MODEL        4
REMARK 921   NORMALIZED FREE ENERGY PREDICTED BY IDOCK:   -6.68 KCAL/MOL
REMARK 922        TOTAL FREE ENERGY PREDICTED BY IDOCK:  -12.11 KCAL/MOL
REMARK 923 INTER-LIGAND FREE ENERGY PREDICTED BY IDOCK:   -9.55 KCAL/MOL
REMARK 924 INTRA-LIGAND FREE ENERGY PREDICTED BY IDOCK:   -2.55 KCAL/MOL
REMARK 927      BINDING AFFINITY PREDICTED BY RF-SCORE:    0.00 PKD
ROOT
HETATM    1  C   UNL     1      -8.664   7.452  72.580  1.00  0.00    -0.151 C  
HETATM    2  C   UNL     1      -9.488   8.479  71.806  1.00  0.00    -0.328 C  
HETATM    3  C   UNL     2      -6.063   6.765  70.389  1.00  0.00    -0.024 C  
HETATM    4  O   UNL     2      -6.873   7.904  70.144  1.00  0.00    -0.044 OA 
ENDROOT
BRANCH   2   5
HETATM    5  C   UNL     1     -10.762   7.954  71.061  1.00  0.00    -0.239 C  
HETATM    6  O   UNL     1     -11.177   9.928  69.644  1.00  0.00    -0.240 OA 
HETATM    7  C   UNL     1     -11.558   7.249  72.172  1.00  0.00    -0.286 C  
HETATM    8  C   UNL     1     -11.570   9.163  70.529  1.00  0.00    -0.197 C  
HETATM    9  H   UNL     1     -13.486   9.895  70.511  1.00  0.00     0.000 HD 
HETATM   10  N   UNL     1     -12.384   8.052  72.908  1.00  0.00    -0.586 N  
HETATM   11  O   UNL     1     -11.431   6.069  72.477  1.00  0.00    -0.288 OA 
HETATM   12  O   UNL     1     -14.357   9.116  72.706  1.00  0.00    -0.563 OA 
HETATM   13  N   UNL     1     -12.821   9.349  71.058  1.00  0.00    -0.235 N  
HETATM   14  C   UNL     1     -13.243   8.865  72.252  1.00  0.00    -0.447 C  
HETATM   15  H   UNL     1     -12.354   8.039  73.928  1.00  0.00     0.000 HD 
BRANCH   5  16
HETATM   16  C   UNL     1     -10.385   6.990  69.916  1.00  0.00    -0.225 A  
HETATM   17  C   UNL     1      -9.575   4.815  69.168  1.00  0.00    -0.237 A  
HETATM   18  C   UNL     1      -9.665   5.804  70.150  1.00  0.00    -0.219 A  
HETATM   19  C   UNL     1     -10.855   7.215  68.610  1.00  0.00    -0.149 A  
HETATM   20  C   UNL     1     -10.172   5.006  67.926  1.00  0.00    -0.147 A  
HETATM   21  C   UNL     1     -10.783   6.220  67.636  1.00  0.00    -0.391 A  
ENDBRANCH   5  16
ENDBRANCH   2   5
BRANCH   4  22
HETATM   22  C   UNL     2      -7.243   8.124  68.854  1.00  0.00    -0.078 A  
HETATM   23  C   UNL     2      -7.179   7.221  67.812  1.00  0.00    -0.091 A  
HETATM   24  C   UNL     2      -8.198   9.832  67.354  1.00  0.00    -0.114 A  
HETATM   25  C   UNL     2      -9.092  11.396  65.738  1.00  0.00    -0.195 A  
HETATM   26  C   UNL     2      -7.618   7.618  66.547  1.00  0.00    -0.096 A  
HETATM   27  C   UNL     2      -8.943  10.407  64.781  1.00  0.00    -0.202 A  
HETATM   28  C   UNL     2      -7.811   9.374  68.633  1.00  0.00    -0.088 A  
HETATM   29  C   UNL     2      -8.705  11.142  67.064  1.00  0.00    -0.148 A  
HETATM   30  C   UNL     2      -8.086   8.903  66.290  1.00  0.00    -0.110 A  
HETATM   31  N   UNL     2      -8.442   9.185  65.033  1.00  0.00    -0.161 NA 
BRANCH  29  32
HETATM   32  C   UNL     2      -8.935  12.219  68.143  1.00  0.00    -0.192 C  
HETATM   33  H   UNL     2      -7.840  13.397  69.303  1.00  0.00     0.000 HD 
HETATM   34  O   UNL     2      -7.697  12.733  68.638  1.00  0.00    -0.124 OA 
BRANCH  32  35
HETATM   35  C   UNL     2      -9.812  13.461  67.736  1.00  0.00    -0.234 C  
HETATM   36  C   UNL     2     -10.549  15.526  68.993  1.00  0.00    -0.246 C  
HETATM   37  C   UNL     2     -11.525  15.748  67.824  1.00  0.00    -0.175 C  
HETATM   38  C   UNL     2     -11.997  14.391  67.280  1.00  0.00    -0.377 C  
HETATM   39  C   UNL     2      -9.336  14.768  68.424  1.00  0.00    -0.197 C  
HETATM   40  N   UNL     2     -11.289  13.267  67.938  1.00  0.00    -0.268 NA 
HETATM   41  C   UNL     2     -11.668  13.309  69.376  1.00  0.00    -0.325 C  
HETATM   42  C   UNL     2     -11.193  14.613  70.068  1.00  0.00    -0.252 C  
BRANCH  42  43
HETATM   43  C   UNL     2     -12.327  15.298  70.797  1.00  0.00    -0.433 C  
HETATM   44  C   UNL     2     -13.433  14.680  71.232  1.00  0.00    -0.451 C  
ENDBRANCH  42  43
ENDBRANCH  32  35
ENDBRANCH  29  32
ENDBRANCH   4  22
TORSDOF 6
ENDMDL
MODEL        5
REMARK 921   NORMALIZED FREE ENERGY PREDICTED BY IDOCK:   -6.57 KCAL/MOL
REMARK 922        TOTAL FREE ENERGY PREDICTED BY IDOCK:  -11.96 KCAL/MOL
REMARK 923 INTER-LIGAND FREE ENERGY PREDICTED BY IDOCK:  -11.00 KCAL/MOL
REMARK 924 INTRA-LIGAND FREE ENERGY PREDICTED BY IDOCK:   -0.95 KCAL/MOL
REMARK 927      BINDING AFFINITY PREDICTED BY RF-SCORE:    0.00 PKD
ROOT
HETATM    1  C   UNL     1      -7.820  14.383  68.286  1.00  0.00    -0.138 C  
HETATM    2  C   UNL     1      -8.593  14.085  67.004  1.00  0.00    -0.193 C  
HETATM    3  C   UNL     2      -6.927  11.217  69.385  1.00  0.00    -0.124 C  
HETATM    4  O   UNL     2      -7.399  11.364  68.055  1.00  0.00    -0.083 OA 
ENDROOT
BRANCH   2   5
HETATM    5  C   UNL     1     -10.156  14.093  67.096  1.00  0.00    -0.258 C  
HETATM    6  O   UNL     1     -10.551  16.334  66.145  1.00  0.00    -0.312 OA 
HETATM    7  C   UNL     1     -10.435  13.449  68.465  1.00  0.00    -0.252 C  
HETATM    8  C   UNL     1     -10.654  15.560  67.101  1.00  0.00    -0.300 C  
HETATM    9  H   UNL     1     -11.909  16.796  68.152  1.00  0.00     0.000 HD 
HETATM   10  N   UNL     1     -10.420  14.301  69.534  1.00  0.00    -0.440 N  
HETATM   11  O   UNL     1     -10.578  12.246  68.650  1.00  0.00    -0.228 OA 
HETATM   12  O   UNL     1     -11.702  15.900  70.463  1.00  0.00    -0.341 OA 
HETATM   13  N   UNL     1     -11.289  15.992  68.238  1.00  0.00    -0.350 N  
HETATM   14  C   UNL     1     -11.157  15.433  69.466  1.00  0.00    -0.284 C  
HETATM   15  H   UNL     1      -9.866  14.088  70.364  1.00  0.00     0.000 HD 
BRANCH   5  16
HETATM   16  C   UNL     1     -10.792  13.295  65.938  1.00  0.00    -0.289 A  
HETATM   17  C   UNL     1     -12.775  12.472  64.781  1.00  0.00    -0.415 A  
HETATM   18  C   UNL     1     -12.153  12.939  65.942  1.00  0.00    -0.503 A  
HETATM   19  C   UNL     1     -10.048  12.999  64.783  1.00  0.00    -0.239 A  
HETATM   20  C   UNL     1     -12.042  12.320  63.609  1.00  0.00    -0.648 A  
HETATM   21  C   UNL     1     -10.672  12.551  63.619  1.00  0.00    -0.469 A  
ENDBRANCH   5  16
ENDBRANCH   2   5
BRANCH   4  22
HETATM   22  C   UNL     2      -8.273  10.422  67.609  1.00  0.00    -0.110 A  
HETATM   23  C   UNL     2      -9.102  10.521  66.510  1.00  0.00    -0.175 A  
HETATM   24  C   UNL     2      -9.102   8.146  68.068  1.00  0.00    -0.134 A  
HETATM   25  C   UNL     2     -10.051   5.944  68.391  1.00  0.00    -0.206 A  
HETATM   26  C   UNL     2      -9.930   9.442  66.190  1.00  0.00    -0.351 A  
HETATM   27  C   UNL     2     -10.852   6.187  67.287  1.00  0.00    -0.352 A  
HETATM   28  C   UNL     2      -8.230   9.228  68.320  1.00  0.00    -0.115 A  
HETATM   29  C   UNL     2      -9.156   6.932  68.829  1.00  0.00    -0.133 A  
HETATM   30  C   UNL     2      -9.975   8.283  66.959  1.00  0.00    -0.255 A  
HETATM   31  N   UNL     2     -10.834   7.332  66.583  1.00  0.00    -0.076 NA 
BRANCH  29  32
HETATM   32  C   UNL     2      -8.216   6.634  70.015  1.00  0.00    -0.130 C  
HETATM   33  H   UNL     2      -6.492   7.305  70.729  1.00  0.00     0.000 HD 
HETATM   34  O   UNL     2      -7.070   7.489  69.999  1.00  0.00    -0.058 OA 
BRANCH  32  35
HETATM   35  C   UNL     2      -8.834   6.732  71.458  1.00  0.00    -0.137 C  
HETATM   36  C   UNL     2     -11.201   7.029  72.295  1.00  0.00    -0.299 C  
HETATM   37  C   UNL     2     -10.558   7.315  73.663  1.00  0.00    -0.353 C  
HETATM   38  C   UNL     2      -9.212   8.030  73.464  1.00  0.00    -0.243 C  
HETATM   39  C   UNL     2     -10.244   6.089  71.540  1.00  0.00    -0.249 C  
HETATM   40  N   UNL     2      -8.857   8.123  72.028  1.00  0.00    -0.155 NA 
HETATM   41  C   UNL     2      -9.895   8.974  71.386  1.00  0.00    -0.311 C  
HETATM   42  C   UNL     2     -11.305   8.334  71.465  1.00  0.00    -0.320 C  
BRANCH  42  43
HETATM   43  C   UNL     2     -12.320   9.298  72.037  1.00  0.00    -0.433 C  
HETATM   44  C   UNL     2     -13.618   9.017  72.215  1.00  0.00    -0.540 C  
ENDBRANCH  42  43
ENDBRANCH  32  35
ENDBRANCH  29  32
ENDBRANCH   4  22
TORSDOF 6
ENDMDL
MODEL        6
REMARK 921   NORMALIZED FREE ENERGY PREDICTED BY IDOCK:   -6.52 KCAL/MOL
REMARK 922        TOTAL FREE ENERGY PREDICTED BY IDOCK:  -11.88 KCAL/MOL
REMARK 923 INTER-LIGAND FREE ENERGY PREDICTED BY IDOCK:   -9.19 KCAL/MOL
REMARK 924 INTRA-LIGAND FREE ENERGY PREDICTED BY IDOCK:   -2.69 KCAL/MOL
REMARK 927      BINDING AFFINITY PREDICTED BY RF-SCORE:    0.00 PKD
ROOT
HETATM    1  C   UNL     1     -12.777  13.959  66.196  1.00  0.00    -0.336 C  
HETATM    2  C   UNL     1     -11.768  13.266  67.109  1.00  0.00    -0.425 C  
HETATM    3  C   UNL     2     -12.446  12.197  63.227  1.00  0.00    -0.411 C  
HETATM    4  O   UNL     2     -11.883  11.648  64.407  1.00  0.00    -0.224 OA 
ENDROOT
BRANCH   2   5
HETATM    5  C   UNL     1     -10.378  13.965  67.294  1.00  0.00    -0.257 C  
HETATM    6  O   UNL     1     -10.623  14.609  69.661  1.00  0.00    -0.202 OA 
HETATM    7  C   UNL     1     -10.199  14.753  65.985  1.00  0.00    -0.304 C  
HETATM    8  C   UNL     1     -10.463  14.950  68.486  1.00  0.00    -0.242 C  
HETATM    9  H   UNL     1     -10.014  16.894  68.961  1.00  0.00     0.000 HD 
HETATM   10  N   UNL     1     -10.763  15.998  65.962  1.00  0.00    -0.301 N  
HETATM   11  O   UNL     1      -9.673  14.306  64.971  1.00  0.00    -0.139 OA 
HETATM   12  O   UNL     1     -10.394  18.056  66.794  1.00  0.00    -0.350 OA 
HETATM   13  N   UNL     1     -10.301  16.281  68.198  1.00  0.00    -0.267 N  
HETATM   14  C   UNL     1     -10.493  16.845  66.981  1.00  0.00    -0.281 C  
HETATM   15  H   UNL     1     -11.373  16.281  65.195  1.00  0.00     0.000 HD 
BRANCH   5  16
HETATM   16  C   UNL     1      -9.253  12.930  67.508  1.00  0.00    -0.192 A  
HETATM   17  C   UNL     1      -6.879  12.375  67.565  1.00  0.00    -0.143 A  
HETATM   18  C   UNL     1      -7.925  13.187  67.119  1.00  0.00    -0.083 A  
HETATM   19  C   UNL     1      -9.504  11.737  68.208  1.00  0.00    -0.193 A  
HETATM   20  C   UNL     1      -7.143  11.276  68.375  1.00  0.00    -0.081 A  
HETATM   21  C   UNL     1      -8.458  10.938  68.669  1.00  0.00    -0.152 A  
ENDBRANCH   5  16
ENDBRANCH   2   5
BRANCH   4  22
HETATM   22  C   UNL     2     -10.644  11.098  64.295  1.00  0.00    -0.357 A  
HETATM   23  C   UNL     2      -9.657  11.466  63.403  1.00  0.00    -0.344 A  
HETATM   24  C   UNL     2      -9.166   9.382  65.270  1.00  0.00    -0.299 A  
HETATM   25  C   UNL     2      -7.600   7.726  66.082  1.00  0.00    -0.087 A  
HETATM   26  C   UNL     2      -8.431  10.796  63.439  1.00  0.00    -0.042 A  
HETATM   27  C   UNL     2      -6.713   8.171  65.116  1.00  0.00    -0.052 A  
HETATM   28  C   UNL     2     -10.367  10.127  65.251  1.00  0.00    -0.154 A  
HETATM   29  C   UNL     2      -8.872   8.312  66.178  1.00  0.00    -0.200 A  
HETATM   30  C   UNL     2      -8.181   9.747  64.319  1.00  0.00    -0.160 A  
HETATM   31  N   UNL     2      -6.987   9.152  64.238  1.00  0.00    -0.090 NA 
BRANCH  29  32
HETATM   32  C   UNL     2      -9.832   7.864  67.298  1.00  0.00    -0.195 C  
HETATM   33  H   UNL     2     -11.621   7.021  67.452  1.00  0.00     0.000 HD 
HETATM   34  O   UNL     2     -11.030   7.297  66.762  1.00  0.00    -0.284 OA 
BRANCH  32  35
HETATM   35  C   UNL     2      -9.274   6.834  68.348  1.00  0.00    -0.123 C  
HETATM   36  C   UNL     2     -10.398   5.292  70.005  1.00  0.00    -0.365 C  
HETATM   37  C   UNL     2      -8.997   5.116  70.617  1.00  0.00    -0.162 C  
HETATM   38  C   UNL     2      -8.205   6.426  70.480  1.00  0.00    -0.118 C  
HETATM   39  C   UNL     2     -10.197   5.598  68.510  1.00  0.00    -0.253 C  
HETATM   40  N   UNL     2      -8.955   7.432  69.691  1.00  0.00    -0.141 NA 
HETATM   41  C   UNL     2     -10.184   7.752  70.467  1.00  0.00    -0.201 C  
HETATM   42  C   UNL     2     -11.110   6.519  70.629  1.00  0.00    -0.364 C  
BRANCH  42  43
HETATM   43  C   UNL     2     -11.481   6.291  72.077  1.00  0.00    -0.359 C  
HETATM   44  C   UNL     2     -11.091   7.073  73.093  1.00  0.00    -0.260 C  
ENDBRANCH  42  43
ENDBRANCH  32  35
ENDBRANCH  29  32
ENDBRANCH   4  22
TORSDOF 6
ENDMDL
MODEL        7
REMARK 921   NORMALIZED FREE ENERGY PREDICTED BY IDOCK:   -6.39 KCAL/MOL
REMARK 922        TOTAL FREE ENERGY PREDICTED BY IDOCK:  -11.70 KCAL/MOL
REMARK 923 INTER-LIGAND FREE ENERGY PREDICTED BY IDOCK:  -10.12 KCAL/MOL
REMARK 924 INTRA-LIGAND FREE ENERGY PREDICTED BY IDOCK:   -1.59 KCAL/MOL
REMARK 927      BINDING AFFINITY PREDICTED BY RF-SCORE:    0.00 PKD
ROOT
HETATM    1  C   UNL     1      -6.728   8.705  68.337  1.00  0.00    -0.064 C  
HETATM    2  C   UNL     1      -7.839   9.551  68.954  1.00  0.00    -0.080 C  
HETATM    3  C   UNL     2      -6.733   9.748  65.029  1.00  0.00    -0.107 C  
HETATM    4  O   UNL     2      -7.430  10.529  65.986  1.00  0.00    -0.128 OA 
ENDROOT
BRANCH   2   5
HETATM    5  C   UNL     1      -9.236   8.866  69.139  1.00  0.00    -0.144 C  
HETATM    6  O   UNL     1      -9.626   8.223  66.791  1.00  0.00    -0.187 OA 
HETATM    7  C   UNL     1      -9.960   9.796  70.127  1.00  0.00    -0.263 C  
HETATM    8  C   UNL     1      -9.983   8.866  67.782  1.00  0.00    -0.192 C  
HETATM    9  H   UNL     1     -11.810   9.353  66.987  1.00  0.00     0.000 HD 
HETATM   10  N   UNL     1     -10.614  10.858  69.568  1.00  0.00    -0.375 N  
HETATM   11  O   UNL     1      -9.911   9.688  71.347  1.00  0.00    -0.122 OA 
HETATM   12  O   UNL     1     -12.488  11.287  68.397  1.00  0.00    -0.403 OA 
HETATM   13  N   UNL     1     -11.140   9.598  67.716  1.00  0.00    -0.140 N  
HETATM   14  C   UNL     1     -11.463  10.624  68.542  1.00  0.00    -0.265 C  
HETATM   15  H   UNL     1     -10.466  11.805  69.916  1.00  0.00     0.000 HD 
BRANCH   5  16
HETATM   16  C   UNL     1      -9.090   7.432  69.692  1.00  0.00    -0.140 A  
HETATM   17  C   UNL     1      -8.134   5.884  71.316  1.00  0.00    -0.118 A  
HETATM   18  C   UNL     1      -8.086   7.093  70.618  1.00  0.00    -0.113 A  
HETATM   19  C   UNL     1     -10.035   6.443  69.371  1.00  0.00    -0.184 A  
HETATM   20  C   UNL     1      -9.164   4.980  71.078  1.00  0.00    -0.191 A  
HETATM   21  C   UNL     1     -10.095   5.245  70.081  1.00  0.00    -0.333 A  
ENDBRANCH   5  16
ENDBRANCH   2   5
BRANCH   4  22
HETATM   22  C   UNL     2      -8.652  10.999  65.619  1.00  0.00    -0.130 A  
HETATM   23  C   UNL     2      -9.478  10.475  64.645  1.00  0.00    -0.316 A  
HETATM   24  C   UNL     2     -10.313  12.748  66.129  1.00  0.00    -0.283 A  
HETATM   25  C   UNL     2     -12.035  14.413  66.474  1.00  0.00    -0.406 A  
HETATM   26  C   UNL     2     -10.714  11.083  64.409  1.00  0.00    -0.340 A  
HETATM   27  C   UNL     2     -12.747  13.809  65.452  1.00  0.00    -0.472 A  
HETATM   28  C   UNL     2      -9.103  12.066  66.388  1.00  0.00    -0.193 A  
HETATM   29  C   UNL     2     -10.776  13.906  66.836  1.00  0.00    -0.284 A  
HETATM   30  C   UNL     2     -11.128  12.220  65.097  1.00  0.00    -0.317 A  
HETATM   31  N   UNL     2     -12.312  12.741  64.761  1.00  0.00    -0.459 NA 
BRANCH  29  32
HETATM   32  C   UNL     2     -10.015  14.537  68.019  1.00  0.00    -0.222 C  
HETATM   33  H   UNL     2      -9.002  13.924  69.611  1.00  0.00     0.000 HD 
HETATM   34  O   UNL     2      -9.471  13.535  68.882  1.00  0.00    -0.018 OA 
BRANCH  32  35
HETATM   35  C   UNL     2      -8.839  15.521  67.669  1.00  0.00    -0.179 C  
HETATM   36  C   UNL     2      -8.160  17.778  68.583  1.00  0.00    -0.277 C  
HETATM   37  C   UNL     2      -7.234  17.867  67.357  1.00  0.00    -0.198 C  
HETATM   38  C   UNL     2      -7.889  17.157  66.162  1.00  0.00    -0.268 C  
HETATM   39  C   UNL     2      -8.317  16.283  68.916  1.00  0.00    -0.231 C  
HETATM   40  N   UNL     2      -9.149  16.484  66.556  1.00  0.00    -0.254 NA 
HETATM   41  C   UNL     2     -10.088  17.554  66.987  1.00  0.00    -0.323 C  
HETATM   42  C   UNL     2      -9.570  18.318  68.234  1.00  0.00    -0.332 C  
BRANCH  42  43
HETATM   43  C   UNL     2      -9.573  19.812  68.009  1.00  0.00    -0.489 C  
HETATM   44  C   UNL     2      -9.909  20.406  66.856  1.00  0.00    -0.572 C  
ENDBRANCH  42  43
ENDBRANCH  32  35
ENDBRANCH  29  32
ENDBRANCH   4  22
TORSDOF 6
ENDMDL
MODEL        8
REMARK 921   NORMALIZED FREE ENERGY PREDICTED BY IDOCK:   -6.37 KCAL/MOL
REMARK 922        TOTAL FREE ENERGY PREDICTED BY IDOCK:  -11.68 KCAL/MOL
REMARK 923 INTER-LIGAND FREE ENERGY PREDICTED BY IDOCK:   -9.45 KCAL/MOL
REMARK 924 INTRA-LIGAND FREE ENERGY PREDICTED BY IDOCK:   -2.23 KCAL/MOL
REMARK 927      BINDING AFFINITY PREDICTED BY RF-SCORE:    0.00 PKD
ROOT
HETATM    1  C   UNL     1      -9.609  10.235  63.788  1.00  0.00    -0.344 C  
HETATM    2  C   UNL     1      -8.605  10.873  64.746  1.00  0.00    -0.006 C  
HETATM    3  C   UNL     2     -12.498  12.054  64.400  1.00  0.00    -0.231 C  
HETATM    4  O   UNL     2     -11.265  12.558  64.887  1.00  0.00    -0.290 OA 
ENDROOT
BRANCH   2   5
HETATM    5  C   UNL     1      -8.333  10.125  66.095  1.00  0.00    -0.131 C  
HETATM    6  O   UNL     1      -5.987   9.492  65.678  1.00  0.00    -0.057 OA 
HETATM    7  C   UNL     1      -9.630   9.331  66.329  1.00  0.00    -0.248 C  
HETATM    8  C   UNL     1      -7.150   9.145  65.899  1.00  0.00    -0.089 C  
HETATM    9  H   UNL     1      -6.652   7.186  66.248  1.00  0.00     0.000 HD 
HETATM   10  N   UNL     1      -9.691   8.107  65.724  1.00  0.00    -0.401 N  
HETATM   11  O   UNL     1     -10.607   9.758  66.934  1.00  0.00    -0.227 OA 
HETATM   12  O   UNL     1      -8.840   6.038  65.966  1.00  0.00    -0.148 OA 
HETATM   13  N   UNL     1      -7.430   7.809  66.032  1.00  0.00    -0.077 N  
HETATM   14  C   UNL     1      -8.658   7.251  65.898  1.00  0.00    -0.149 C  
HETATM   15  H   UNL     1     -10.495   7.845  65.154  1.00  0.00     0.000 HD 
BRANCH   5  16
HETATM   16  C   UNL     1      -8.046  11.120  67.240  1.00  0.00    -0.137 A  
HETATM   17  C   UNL     1      -7.273  11.556  69.512  1.00  0.00     0.066 A  
HETATM   18  C   UNL     1      -7.802  10.685  68.556  1.00  0.00    -0.115 A  
HETATM   19  C   UNL     1      -7.906  12.493  66.975  1.00  0.00    -0.065 A  
HETATM   20  C   UNL     1      -7.012  12.881  69.181  1.00  0.00    -0.015 A  
HETATM   21  C   UNL     1      -7.359  13.358  67.923  1.00  0.00    -0.140 A  
ENDBRANCH   5  16
ENDBRANCH   2   5
BRANCH   4  22
HETATM   22  C   UNL     2     -11.269  13.069  66.148  1.00  0.00    -0.291 A  
HETATM   23  C   UNL     2     -11.557  12.388  67.313  1.00  0.00    -0.435 A  
HETATM   24  C   UNL     2     -10.854  15.137  67.424  1.00  0.00    -0.302 A  
HETATM   25  C   UNL     2     -10.521  17.081  68.826  1.00  0.00    -0.347 A  
HETATM   26  C   UNL     2     -11.499  13.075  68.528  1.00  0.00    -0.340 A  
HETATM   27  C   UNL     2     -10.863  16.290  69.910  1.00  0.00    -0.352 A  
HETATM   28  C   UNL     2     -10.855  14.395  66.222  1.00  0.00    -0.313 A  
HETATM   29  C   UNL     2     -10.522  16.528  67.536  1.00  0.00    -0.310 A  
HETATM   30  C   UNL     2     -11.193  14.430  68.604  1.00  0.00    -0.259 A  
HETATM   31  N   UNL     2     -11.206  14.994  69.816  1.00  0.00    -0.264 NA 
BRANCH  29  32
HETATM   32  C   UNL     2     -10.073  17.390  66.339  1.00  0.00    -0.327 C  
HETATM   33  H   UNL     2     -10.352  19.237  65.671  1.00  0.00     0.000 HD 
HETATM   34  O   UNL     2     -10.628  18.706  66.408  1.00  0.00    -0.405 OA 
BRANCH  32  35
HETATM   35  C   UNL     2      -8.525  17.562  66.122  1.00  0.00    -0.142 C  
HETATM   36  C   UNL     2      -6.558  17.552  67.710  1.00  0.00    -0.171 C  
HETATM   37  C   UNL     2      -5.749  18.115  66.529  1.00  0.00    -0.188 C  
HETATM   38  C   UNL     2      -6.648  19.019  65.670  1.00  0.00    -0.269 C  
HETATM   39  C   UNL     2      -7.693  16.702  67.110  1.00  0.00    -0.213 C  
HETATM   40  N   UNL     2      -8.053  18.990  66.141  1.00  0.00    -0.407 NA 
HETATM   41  C   UNL     2      -8.054  19.562  67.515  1.00  0.00    -0.290 C  
HETATM   42  C   UNL     2      -7.224  18.704  68.505  1.00  0.00    -0.314 C  
BRANCH  42  43
HETATM   43  C   UNL     2      -6.214  19.543  69.253  1.00  0.00    -0.328 C  
HETATM   44  C   UNL     2      -5.851  20.785  68.904  1.00  0.00    -0.379 C  
ENDBRANCH  42  43
ENDBRANCH  32  35
ENDBRANCH  29  32
ENDBRANCH   4  22
TORSDOF 6
ENDMDL
MODEL        9
REMARK 921   NORMALIZED FREE ENERGY PREDICTED BY IDOCK:   -6.34 KCAL/MOL
REMARK 922        TOTAL FREE ENERGY PREDICTED BY IDOCK:  -11.65 KCAL/MOL
REMARK 923 INTER-LIGAND FREE ENERGY PREDICTED BY IDOCK:   -9.57 KCAL/MOL
REMARK 924 INTRA-LIGAND FREE ENERGY PREDICTED BY IDOCK:   -2.08 KCAL/MOL
REMARK 927      BINDING AFFINITY PREDICTED BY RF-SCORE:    0.00 PKD
ROOT
HETATM    1  C   UNL     1     -10.264  11.993  63.746  1.00  0.00    -0.447 C  
HETATM    2  C   UNL     1     -11.195  11.778  64.937  1.00  0.00    -0.328 C  
HETATM    3  C   UNL     2      -7.356  10.401  64.766  1.00  0.00    -0.038 C  
HETATM    4  O   UNL     2      -8.552  10.153  65.486  1.00  0.00    -0.139 OA 
ENDROOT
BRANCH   2   5
HETATM    5  C   UNL     1     -11.350  12.969  65.944  1.00  0.00    -0.344 C  
HETATM    6  O   UNL     1     -13.768  13.360  65.654  1.00  0.00    -0.020 OA 
HETATM    7  C   UNL     1     -10.092  13.816  65.689  1.00  0.00    -0.298 C  
HETATM    8  C   UNL     1     -12.613  13.785  65.570  1.00  0.00    -0.512 C  
HETATM    9  H   UNL     1     -13.197  15.724  65.244  1.00  0.00     0.000 HD 
HETATM   10  N   UNL     1     -10.190  14.729  64.676  1.00  0.00    -0.465 N  
HETATM   11  O   UNL     1      -9.022  13.662  66.265  1.00  0.00    -0.056 OA 
HETATM   12  O   UNL     1     -11.143  16.725  64.261  1.00  0.00    -1.106 OA 
HETATM   13  N   UNL     1     -12.411  15.080  65.165  1.00  0.00    -0.045 N  
HETATM   14  C   UNL     1     -11.249  15.570  64.667  1.00  0.00    -0.371 C  
HETATM   15  H   UNL     1      -9.481  14.776  63.944  1.00  0.00     0.000 HD 
BRANCH   5  16
HETATM   16  C   UNL     1     -11.426  12.466  67.401  1.00  0.00    -0.418 A  
HETATM   17  C   UNL     1     -11.806  12.908  69.769  1.00  0.00    -0.380 A  
HETATM   18  C   UNL     1     -11.458  13.354  68.492  1.00  0.00    -0.345 A  
HETATM   19  C   UNL     1     -11.583  11.096  67.676  1.00  0.00    -0.266 A  
HETATM   20  C   UNL     1     -12.094  11.565  69.986  1.00  0.00    -0.408 A  
HETATM   21  C   UNL     1     -11.950  10.654  68.947  1.00  0.00    -0.128 A  
ENDBRANCH   5  16
ENDBRANCH   2   5
BRANCH   4  22
HETATM   22  C   UNL     2      -8.453  10.126  66.843  1.00  0.00    -0.126 A  
HETATM   23  C   UNL     2      -7.992  11.140  67.657  1.00  0.00    -0.116 A  
HETATM   24  C   UNL     2      -8.888   8.704  68.810  1.00  0.00    -0.139 A  
HETATM   25  C   UNL     2      -9.217   7.434  70.843  1.00  0.00    -0.154 A  
HETATM   26  C   UNL     2      -7.973  10.941  69.039  1.00  0.00    -0.131 A  
HETATM   27  C   UNL     2      -8.703   8.516  71.537  1.00  0.00    -0.189 A  
HETATM   28  C   UNL     2      -8.957   8.967  67.424  1.00  0.00    -0.143 A  
HETATM   29  C   UNL     2      -9.311   7.489  69.443  1.00  0.00    -0.152 A  
HETATM   30  C   UNL     2      -8.372   9.743  69.625  1.00  0.00    -0.173 A  
HETATM   31  N   UNL     2      -8.273   9.649  70.955  1.00  0.00    -0.245 NA 
BRANCH  29  32
HETATM   32  C   UNL     2      -9.948   6.313  68.677  1.00  0.00    -0.145 C  
HETATM   33  H   UNL     2     -11.760   5.732  68.116  1.00  0.00     0.000 HD 
HETATM   34  O   UNL     2     -11.368   6.457  68.588  1.00  0.00    -0.313 OA 
BRANCH  32  35
HETATM   35  C   UNL     2      -9.427   6.044  67.217  1.00  0.00    -0.114 C  
HETATM   36  C   UNL     2      -9.792   4.148  65.586  1.00  0.00    -0.207 C  
HETATM   37  C   UNL     2      -8.630   4.765  64.788  1.00  0.00    -0.146 C  
HETATM   38  C   UNL     2      -7.614   5.393  65.755  1.00  0.00    -0.083 C  
HETATM   39  C   UNL     2     -10.473   5.302  66.345  1.00  0.00    -0.347 C  
HETATM   40  N   UNL     2      -8.097   5.344  67.155  1.00  0.00    -0.101 NA 
HETATM   41  C   UNL     2      -8.205   3.906  67.519  1.00  0.00    -0.094 C  
HETATM   42  C   UNL     2      -9.251   3.160  66.650  1.00  0.00    -0.165 C  
BRANCH  42  43
HETATM   43  C   UNL     2      -8.667   1.912  66.029  1.00  0.00    -0.116 C  
HETATM   44  C   UNL     2      -7.391   1.525  66.159  1.00  0.00    -0.056 C  
ENDBRANCH  42  43
ENDBRANCH  32  35
ENDBRANCH  29  32
ENDBRANCH   4  22
TORSDOF 6
ENDMDL
MODEL       10
REMARK 921   NORMALIZED FREE ENERGY PREDICTED BY IDOCK:   -6.27 KCAL/MOL
REMARK 922        TOTAL FREE ENERGY PREDICTED BY IDOCK:  -11.54 KCAL/MOL
REMARK 923 INTER-LIGAND FREE ENERGY PREDICTED BY IDOCK:  -10.47 KCAL/MOL
REMARK 924 INTRA-LIGAND FREE ENERGY PREDICTED BY IDOCK:   -1.07 KCAL/MOL
REMARK 927      BINDING AFFINITY PREDICTED BY RF-SCORE:    0.00 PKD
ROOT
HETATM    1  C   UNL     1      -7.460   8.915  69.903  1.00  0.00    -0.058 C  
HETATM    2  C   UNL     1      -8.765   9.704  69.984  1.00  0.00    -0.256 C  
HETATM    3  C   UNL     2      -6.283   9.723  66.742  1.00  0.00    -0.064 C  
HETATM    4  O   UNL     2      -7.327  10.506  67.296  1.00  0.00    -0.088 OA 
ENDROOT
BRANCH   2   5
HETATM    5  C   UNL     1     -10.091   8.918  69.706  1.00  0.00    -0.205 C  
HETATM    6  O   UNL     1     -11.261  10.654  68.404  1.00  0.00    -0.254 OA 
HETATM    7  C   UNL     1     -10.373   8.213  71.044  1.00  0.00    -0.195 C  
HETATM    8  C   UNL     1     -11.224   9.930  69.402  1.00  0.00    -0.153 C  
HETATM    9  H   UNL     1     -13.152  10.353  69.959  1.00  0.00     0.000 HD 
HETATM   10  N   UNL     1     -11.064   8.949  71.966  1.00  0.00    -0.371 N  
HETATM   11  O   UNL     1      -9.952   7.103  71.347  1.00  0.00    -0.187 OA 
HETATM   12  O   UNL     1     -13.160   9.672  72.352  1.00  0.00    -0.403 OA 
HETATM   13  N   UNL     1     -12.266   9.973  70.292  1.00  0.00    -0.169 N  
HETATM   14  C   UNL     1     -12.212   9.552  71.580  1.00  0.00    -0.386 C  
HETATM   15  H   UNL     1     -10.722   9.042  72.923  1.00  0.00     0.000 HD 
BRANCH   5  16
HETATM   16  C   UNL     1      -9.917   7.914  68.547  1.00  0.00    -0.200 A  
HETATM   17  C   UNL     1      -8.603   6.195  67.423  1.00  0.00    -0.106 A  
HETATM   18  C   UNL     1      -8.682   7.295  68.280  1.00  0.00    -0.125 A  
HETATM   19  C   UNL     1     -11.026   7.501  67.789  1.00  0.00    -0.057 A  
HETATM   20  C   UNL     1      -9.746   5.717  66.791  1.00  0.00    -0.169 A  
HETATM   21  C   UNL     1     -10.951   6.391  66.948  1.00  0.00    -0.413 A  
ENDBRANCH   5  16
ENDBRANCH   2   5
BRANCH   4  22
HETATM   22  C   UNL     2      -8.347  10.845  66.462  1.00  0.00    -0.155 A  
HETATM   23  C   UNL     2      -9.002  10.010  65.579  1.00  0.00    -0.206 A  
HETATM   24  C   UNL     2      -9.788  12.730  65.794  1.00  0.00    -0.222 A  
HETATM   25  C   UNL     2     -11.264  14.474  64.997  1.00  0.00    -0.384 A  
HETATM   26  C   UNL     2     -10.042  10.529  64.804  1.00  0.00    -0.406 A  
HETATM   27  C   UNL     2     -11.811  13.541  64.133  1.00  0.00    -0.437 A  
HETATM   28  C   UNL     2      -8.789  12.155  66.610  1.00  0.00    -0.182 A  
HETATM   29  C   UNL     2     -10.214  14.099  65.850  1.00  0.00    -0.332 A  
HETATM   30  C   UNL     2     -10.420  11.867  64.865  1.00  0.00    -0.287 A  
HETATM   31  N   UNL     2     -11.401  12.263  64.048  1.00  0.00    -0.365 NA 
BRANCH  29  32
HETATM   32  C   UNL     2      -9.653  15.120  66.860  1.00  0.00    -0.239 C  
HETATM   33  H   UNL     2      -7.912  15.539  67.713  1.00  0.00     0.000 HD 
HETATM   34  O   UNL     2      -8.258  14.910  67.091  1.00  0.00    -0.195 OA 
BRANCH  32  35
HETATM   35  C   UNL     2      -9.830  16.643  66.509  1.00  0.00    -0.281 C  
HETATM   36  C   UNL     2      -8.278  18.632  66.661  1.00  0.00    -0.289 C  
HETATM   37  C   UNL     2      -9.537  19.486  66.431  1.00  0.00    -0.469 C  
HETATM   38  C   UNL     2     -10.750  18.805  67.084  1.00  0.00    -0.403 C  
HETATM   39  C   UNL     2      -8.524  17.279  65.967  1.00  0.00    -0.136 C  
HETATM   40  N   UNL     2     -10.395  17.473  67.629  1.00  0.00    -0.346 NA 
HETATM   41  C   UNL     2      -9.400  17.706  68.709  1.00  0.00    -0.228 C  
HETATM   42  C   UNL     2      -8.091  18.341  68.172  1.00  0.00    -0.297 C  
BRANCH  42  43
HETATM   43  C   UNL     2      -7.715  19.580  68.952  1.00  0.00    -0.369 C  
HETATM   44  C   UNL     2      -6.470  19.880  69.347  1.00  0.00    -0.382 C  
ENDBRANCH  42  43
ENDBRANCH  32  35
ENDBRANCH  29  32
ENDBRANCH   4  22
TORSDOF 6
ENDMDL
MODEL       11
REMARK 921   NORMALIZED FREE ENERGY PREDICTED BY IDOCK:   -6.19 KCAL/MOL
REMARK 922        TOTAL FREE ENERGY PREDICTED BY IDOCK:  -11.44 KCAL/MOL
REMARK 923 INTER-LIGAND FREE ENERGY PREDICTED BY IDOCK:  -11.05 KCAL/MOL
REMARK 924 INTRA-LIGAND FREE ENERGY PREDICTED BY IDOCK:   -0.38 KCAL/MOL
REMARK 927      BINDING AFFINITY PREDICTED BY RF-SCORE:    0.00 PKD
ROOT
HETATM    1  C   UNL     1      -7.915   9.278  68.659  1.00  0.00    -0.100 C  
HETATM    2  C   UNL     1      -8.821  10.445  69.044  1.00  0.00    -0.176 C  
HETATM    3  C   UNL     2      -7.589   9.675  65.229  1.00  0.00    -0.113 C  
HETATM    4  O   UNL     2      -8.116  10.751  65.988  1.00  0.00    -0.156 OA 
ENDROOT
BRANCH   2   5
HETATM    5  C   UNL     1     -10.342  10.129  69.248  1.00  0.00    -0.242 C  
HETATM    6  O   UNL     1     -10.240   9.427  71.609  1.00  0.00    -0.283 OA 
HETATM    7  C   UNL     1     -10.737   9.425  67.939  1.00  0.00    -0.210 C  
HETATM    8  C   UNL     1     -10.499   9.147  70.436  1.00  0.00    -0.223 C  
HETATM    9  H   UNL     1     -11.431   7.383  70.910  1.00  0.00     0.000 HD 
HETATM   10  N   UNL     1     -10.516   8.076  67.904  1.00  0.00    -0.326 N  
HETATM   11  O   UNL     1     -11.143   9.999  66.936  1.00  0.00    -0.094 OA 
HETATM   12  O   UNL     1     -11.395   6.178  68.734  1.00  0.00    -0.344 OA 
HETATM   13  N   UNL     1     -11.005   7.906  70.146  1.00  0.00    -0.251 N  
HETATM   14  C   UNL     1     -10.983   7.320  68.923  1.00  0.00    -0.018 C  
HETATM   15  H   UNL     1     -10.011   7.650  67.127  1.00  0.00     0.000 HD 
BRANCH   5  16
HETATM   16  C   UNL     1     -11.157  11.419  69.483  1.00  0.00    -0.274 A  
HETATM   17  C   UNL     1     -12.597  12.776  70.909  1.00  0.00    -0.342 A  
HETATM   18  C   UNL     1     -12.080  11.531  70.539  1.00  0.00    -0.472 A  
HETATM   19  C   UNL     1     -10.914  12.568  68.710  1.00  0.00    -0.294 A  
HETATM   20  C   UNL     1     -12.228  13.921  70.212  1.00  0.00    -0.428 A  
HETATM   21  C   UNL     1     -11.414  13.812  69.092  1.00  0.00    -0.346 A  
ENDBRANCH   5  16
ENDBRANCH   2   5
BRANCH   4  22
HETATM   22  C   UNL     2      -9.188  11.402  65.462  1.00  0.00    -0.177 A  
HETATM   23  C   UNL     2     -10.181  10.855  64.676  1.00  0.00    -0.411 A  
HETATM   24  C   UNL     2     -10.286  13.608  65.367  1.00  0.00    -0.330 A  
HETATM   25  C   UNL     2     -11.475  15.703  65.138  1.00  0.00    -0.099 A  
HETATM   26  C   UNL     2     -11.220  11.676  64.232  1.00  0.00    -0.392 A  
HETATM   27  C   UNL     2     -12.384  15.036  64.334  1.00  0.00    -0.266 A  
HETATM   28  C   UNL     2      -9.289  12.733  65.854  1.00  0.00     0.005 A  
HETATM   29  C   UNL     2     -10.378  15.006  65.670  1.00  0.00    -0.374 A  
HETATM   30  C   UNL     2     -11.273  13.036  64.527  1.00  0.00    -0.339 A  
HETATM   31  N   UNL     2     -12.292  13.733  64.015  1.00  0.00    -0.679 NA 
BRANCH  29  32
HETATM   32  C   UNL     2      -9.406  15.732  66.622  1.00  0.00    -0.258 C  
HETATM   33  H   UNL     2      -7.478  16.195  66.682  1.00  0.00     0.000 HD 
HETATM   34  O   UNL     2      -8.077  15.748  66.096  1.00  0.00    -0.099 OA 
BRANCH  32  35
HETATM   35  C   UNL     2      -9.759  17.216  67.007  1.00  0.00    -0.265 C  
HETATM   36  C   UNL     2      -8.422  19.361  66.976  1.00  0.00    -0.313 C  
HETATM   37  C   UNL     2      -9.571  19.954  67.811  1.00  0.00    -0.496 C  
HETATM   38  C   UNL     2     -10.156  18.869  68.729  1.00  0.00    -0.355 C  
HETATM   39  C   UNL     2      -9.032  18.248  66.105  1.00  0.00    -0.115 C  
HETATM   40  N   UNL     2      -9.546  17.545  68.459  1.00  0.00    -0.294 NA 
HETATM   41  C   UNL     2      -8.103  17.663  68.800  1.00  0.00    -0.233 C  
HETATM   42  C   UNL     2      -7.372  18.693  67.900  1.00  0.00    -0.251 C  
BRANCH  42  43
HETATM   43  C   UNL     2      -6.606  19.704  68.722  1.00  0.00    -0.337 C  
HETATM   44  C   UNL     2      -6.425  19.624  70.047  1.00  0.00    -0.288 C  
ENDBRANCH  42  43
ENDBRANCH  32  35
ENDBRANCH  29  32
ENDBRANCH   4  22
TORSDOF 6
ENDMDL
MODEL       12
REMARK 921   NORMALIZED FREE ENERGY PREDICTED BY IDOCK:   -6.16 KCAL/MOL
REMARK 922        TOTAL FREE ENERGY PREDICTED BY IDOCK:  -11.39 KCAL/MOL
REMARK 923 INTER-LIGAND FREE ENERGY PREDICTED BY IDOCK:   -9.49 KCAL/MOL
REMARK 924 INTRA-LIGAND FREE ENERGY PREDICTED BY IDOCK:   -1.90 KCAL/MOL
REMARK 927      BINDING AFFINITY PREDICTED BY RF-SCORE:    0.00 PKD
ROOT
HETATM    1  C   UNL     1     -10.812  14.239  65.408  1.00  0.00    -0.348 C  
HETATM    2  C   UNL     1     -11.467  14.618  66.734  1.00  0.00    -0.371 C  
HETATM    3  C   UNL     2     -10.614  10.783  65.624  1.00  0.00    -0.129 C  
HETATM    4  O   UNL     2     -11.444  11.472  66.544  1.00  0.00    -0.404 OA 
ENDROOT
BRANCH   2   5
HETATM    5  C   UNL     1     -10.522  15.126  67.876  1.00  0.00    -0.245 C  
HETATM    6  O   UNL     1     -10.862  17.547  67.560  1.00  0.00    -0.321 OA 
HETATM    7  C   UNL     1      -9.303  14.194  67.769  1.00  0.00    -0.200 C  
HETATM    8  C   UNL     1     -10.094  16.582  67.566  1.00  0.00    -0.267 C  
HETATM    9  H   UNL     1      -8.405  17.741  67.467  1.00  0.00     0.000 HD 
HETATM   10  N   UNL     1      -8.342  14.578  66.875  1.00  0.00    -0.381 N  
HETATM   11  O   UNL     1      -9.192  13.124  68.355  1.00  0.00    -0.198 OA 
HETATM   12  O   UNL     1      -6.702  16.107  66.682  1.00  0.00    -0.249 OA 
HETATM   13  N   UNL     1      -8.759  16.795  67.333  1.00  0.00    -0.190 N  
HETATM   14  C   UNL     1      -7.875  15.846  66.937  1.00  0.00    -0.247 C  
HETATM   15  H   UNL     1      -7.986  13.925  66.177  1.00  0.00     0.000 HD 
BRANCH   5  16
HETATM   16  C   UNL     1     -11.207  15.030  69.256  1.00  0.00    -0.297 A  
HETATM   17  C   UNL     1     -11.266  15.599  71.627  1.00  0.00    -0.345 A  
HETATM   18  C   UNL     1     -10.553  15.425  70.437  1.00  0.00    -0.274 A  
HETATM   19  C   UNL     1     -12.556  14.649  69.359  1.00  0.00     0.022 A  
HETATM   20  C   UNL     1     -12.633  15.348  71.666  1.00  0.00    -0.458 A  
HETATM   21  C   UNL     1     -13.271  14.841  70.540  1.00  0.00    -0.204 A  
ENDBRANCH   5  16
ENDBRANCH   2   5
BRANCH   4  22
HETATM   22  C   UNL     2     -11.394  11.061  67.840  1.00  0.00    -0.311 A  
HETATM   23  C   UNL     2     -12.195  11.498  68.876  1.00  0.00    -0.128 A  
HETATM   24  C   UNL     2     -10.221   9.513  69.359  1.00  0.00    -0.215 A  
HETATM   25  C   UNL     2      -9.155   8.082  70.994  1.00  0.00    -0.166 A  
HETATM   26  C   UNL     2     -12.010  10.951  70.148  1.00  0.00    -0.435 A  
HETATM   27  C   UNL     2     -10.000   8.631  71.944  1.00  0.00    -0.322 A  
HETATM   28  C   UNL     2     -10.482  10.037  68.074  1.00  0.00    -0.260 A  
HETATM   29  C   UNL     2      -9.230   8.523  69.663  1.00  0.00    -0.157 A  
HETATM   30  C   UNL     2     -11.026  10.005  70.417  1.00  0.00    -0.320 A  
HETATM   31  N   UNL     2     -10.913   9.581  71.680  1.00  0.00    -0.318 NA 
BRANCH  29  32
HETATM   32  C   UNL     2      -8.337   7.862  68.592  1.00  0.00    -0.128 C  
HETATM   33  H   UNL     2      -6.422   7.851  68.077  1.00  0.00     0.000 HD 
HETATM   34  O   UNL     2      -6.972   8.258  68.736  1.00  0.00    -0.064 OA 
BRANCH  32  35
HETATM   35  C   UNL     2      -8.349   6.291  68.524  1.00  0.00    -0.115 C  
HETATM   36  C   UNL     2      -8.375   4.657  66.595  1.00  0.00    -0.106 C  
HETATM   37  C   UNL     2      -8.713   3.592  67.653  1.00  0.00    -0.128 C  
HETATM   38  C   UNL     2      -9.573   4.218  68.761  1.00  0.00    -0.149 C  
HETATM   39  C   UNL     2      -7.554   5.748  67.307  1.00  0.00    -0.096 C  
HETATM   40  N   UNL     2      -9.723   5.680  68.569  1.00  0.00    -0.129 NA 
HETATM   41  C   UNL     2     -10.462   5.870  67.293  1.00  0.00    -0.262 C  
HETATM   42  C   UNL     2      -9.670   5.329  66.073  1.00  0.00    -0.159 C  
BRANCH  42  43
HETATM   43  C   UNL     2     -10.509   4.388  65.240  1.00  0.00    -0.204 C  
HETATM   44  C   UNL     2     -10.106   3.824  64.094  1.00  0.00    -0.215 C  
ENDBRANCH  42  43
ENDBRANCH  32  35
ENDBRANCH  29  32
ENDBRANCH   4  22
TORSDOF 6
ENDMDL
MODEL       13
REMARK 921   NORMALIZED FREE ENERGY PREDICTED BY IDOCK:   -6.15 KCAL/MOL
REMARK 922        TOTAL FREE ENERGY PREDICTED BY IDOCK:  -11.38 KCAL/MOL
REMARK 923 INTER-LIGAND FREE ENERGY PREDICTED BY IDOCK:   -9.74 KCAL/MOL
REMARK 924 INTRA-LIGAND FREE ENERGY PREDICTED BY IDOCK:   -1.64 KCAL/MOL
REMARK 927      BINDING AFFINITY PREDICTED BY RF-SCORE:    0.00 PKD
ROOT
HETATM    1  C   UNL     1      -8.004  14.302  68.288  1.00  0.00    -0.140 C  
HETATM    2  C   UNL     1      -8.726  13.885  67.009  1.00  0.00    -0.215 C  
HETATM    3  C   UNL     2      -6.944  11.263  69.581  1.00  0.00    -0.056 C  
HETATM    4  O   UNL     2      -7.392  11.307  68.237  1.00  0.00    -0.085 OA 
ENDROOT
BRANCH   2   5
HETATM    5  C   UNL     1     -10.290  13.800  67.070  1.00  0.00    -0.260 C  
HETATM    6  O   UNL     1     -10.798  16.028  66.144  1.00  0.00    -0.281 OA 
HETATM    7  C   UNL     1     -10.557  13.118  68.422  1.00  0.00    -0.251 C  
HETATM    8  C   UNL     1     -10.873  15.235  67.086  1.00  0.00    -0.322 C  
HETATM    9  H   UNL     1     -12.220  16.377  68.128  1.00  0.00     0.000 HD 
HETATM   10  N   UNL     1     -10.613  13.952  69.504  1.00  0.00    -0.441 N  
HETATM   11  O   UNL     1     -10.632  11.906  68.587  1.00  0.00    -0.223 OA 
HETATM   12  O   UNL     1     -12.007  15.458  70.429  1.00  0.00    -0.300 OA 
HETATM   13  N   UNL     1     -11.555  15.609  68.215  1.00  0.00    -0.353 N  
HETATM   14  C   UNL     1     -11.415  15.040  69.437  1.00  0.00    -0.300 C  
HETATM   15  H   UNL     1     -10.064  13.760  70.342  1.00  0.00     0.000 HD 
BRANCH   5  16
HETATM   16  C   UNL     1     -10.854  12.984  65.887  1.00  0.00    -0.291 A  
HETATM   17  C   UNL     1     -12.720  12.384  64.437  1.00  0.00    -0.434 A  
HETATM   18  C   UNL     1     -12.237  12.880  65.650  1.00  0.00    -0.519 A  
HETATM   19  C   UNL     1      -9.989  12.412  64.938  1.00  0.00    -0.207 A  
HETATM   20  C   UNL     1     -11.835  11.953  63.455  1.00  0.00    -0.512 A  
HETATM   21  C   UNL     1     -10.471  11.935  63.719  1.00  0.00    -0.468 A  
ENDBRANCH   5  16
ENDBRANCH   2   5
BRANCH   4  22
HETATM   22  C   UNL     2      -8.195  10.289  67.827  1.00  0.00    -0.110 A  
HETATM   23  C   UNL     2      -8.471   9.930  66.523  1.00  0.00    -0.127 A  
HETATM   24  C   UNL     2      -9.609   8.451  68.664  1.00  0.00    -0.153 A  
HETATM   25  C   UNL     2     -11.060   6.625  69.309  1.00  0.00    -0.345 A  
HETATM   26  C   UNL     2      -9.313   8.841  66.287  1.00  0.00    -0.283 A  
HETATM   27  C   UNL     2     -11.278   6.394  67.962  1.00  0.00    -0.155 A  
HETATM   28  C   UNL     2      -8.699   9.513  68.865  1.00  0.00    -0.133 A  
HETATM   29  C   UNL     2     -10.224   7.681  69.706  1.00  0.00    -0.210 A  
HETATM   30  C   UNL     2      -9.912   8.124  67.319  1.00  0.00    -0.218 A  
HETATM   31  N   UNL     2     -10.733   7.126  66.975  1.00  0.00    -0.354 NA 
BRANCH  29  32
HETATM   32  C   UNL     2      -9.927   7.894  71.204  1.00  0.00    -0.173 C  
HETATM   33  H   UNL     2     -10.940   7.972  72.907  1.00  0.00     0.000 HD 
HETATM   34  O   UNL     2     -11.123   7.841  71.984  1.00  0.00    -0.245 OA 
BRANCH  32  35
HETATM   35  C   UNL     2      -8.902   6.908  71.876  1.00  0.00    -0.126 C  
HETATM   36  C   UNL     2      -8.155   4.561  71.309  1.00  0.00    -0.087 C  
HETATM   37  C   UNL     2      -7.518   4.549  72.710  1.00  0.00    -0.085 C  
HETATM   38  C   UNL     2      -8.378   5.379  73.676  1.00  0.00    -0.112 C  
HETATM   39  C   UNL     2      -8.164   6.026  70.836  1.00  0.00    -0.125 C  
HETATM   40  N   UNL     2      -9.490   6.055  72.967  1.00  0.00    -0.143 NA 
HETATM   41  C   UNL     2     -10.366   4.981  72.426  1.00  0.00    -0.206 C  
HETATM   42  C   UNL     2      -9.632   4.097  71.384  1.00  0.00    -0.238 C  
BRANCH  42  43
HETATM   43  C   UNL     2      -9.756   2.628  71.718  1.00  0.00    -0.224 C  
HETATM   44  C   UNL     2     -10.401   2.144  72.788  1.00  0.00    -0.233 C  
ENDBRANCH  42  43
ENDBRANCH  32  35
ENDBRANCH  29  32
ENDBRANCH   4  22
TORSDOF 6
ENDMDL
MODEL       14
REMARK 921   NORMALIZED FREE ENERGY PREDICTED BY IDOCK:   -6.13 KCAL/MOL
REMARK 922        TOTAL FREE ENERGY PREDICTED BY IDOCK:  -11.36 KCAL/MOL
REMARK 923 INTER-LIGAND FREE ENERGY PREDICTED BY IDOCK:  -10.33 KCAL/MOL
REMARK 924 INTRA-LIGAND FREE ENERGY PREDICTED BY IDOCK:   -1.03 KCAL/MOL
REMARK 927      BINDING AFFINITY PREDICTED BY RF-SCORE:    0.00 PKD
ROOT
HETATM    1  C   UNL     1      -8.551  13.958  67.947  1.00  0.00    -0.180 C  
HETATM    2  C   UNL     1      -9.119  13.323  66.680  1.00  0.00    -0.181 C  
HETATM    3  C   UNL     2      -7.089  11.256  69.557  1.00  0.00    -0.058 C  
HETATM    4  O   UNL     2      -7.458  11.114  68.195  1.00  0.00    -0.086 OA 
ENDROOT
BRANCH   2   5
HETATM    5  C   UNL     1     -10.648  12.983  66.677  1.00  0.00    -0.275 C  
HETATM    6  O   UNL     1     -10.496  10.692  65.777  1.00  0.00    -0.232 OA 
HETATM    7  C   UNL     1     -11.301  14.285  66.183  1.00  0.00    -0.342 C  
HETATM    8  C   UNL     1     -10.911  11.847  65.657  1.00  0.00    -0.304 C  
HETATM    9  H   UNL     1     -12.161  11.389  64.096  1.00  0.00     0.000 HD 
HETATM   10  N   UNL     1     -11.384  14.425  64.825  1.00  0.00    -0.381 N  
HETATM   11  O   UNL     1     -11.658  15.204  66.910  1.00  0.00    -0.285 OA 
HETATM   12  O   UNL     1     -12.580  13.626  63.095  1.00  0.00    -0.792 OA 
HETATM   13  N   UNL     1     -11.699  12.159  64.579  1.00  0.00    -0.348 N  
HETATM   14  C   UNL     1     -11.913  13.411  64.104  1.00  0.00    -0.450 C  
HETATM   15  H   UNL     1     -11.055  15.275  64.367  1.00  0.00     0.000 HD 
BRANCH   5  16
HETATM   16  C   UNL     1     -11.138  12.586  68.086  1.00  0.00    -0.282 A  
HETATM   17  C   UNL     1     -11.954  13.225  70.294  1.00  0.00    -0.372 A  
HETATM   18  C   UNL     1     -11.254  13.530  69.124  1.00  0.00    -0.310 A  
HETATM   19  C   UNL     1     -11.594  11.282  68.343  1.00  0.00    -0.378 A  
HETATM   20  C   UNL     1     -12.518  11.965  70.463  1.00  0.00    -0.301 A  
HETATM   21  C   UNL     1     -12.309  10.983  69.502  1.00  0.00    -0.266 A  
ENDBRANCH   5  16
ENDBRANCH   2   5
BRANCH   4  22
HETATM   22  C   UNL     2      -8.059   9.946  67.843  1.00  0.00    -0.109 A  
HETATM   23  C   UNL     2      -7.891   9.255  66.660  1.00  0.00    -0.104 A  
HETATM   24  C   UNL     2      -9.619   8.221  68.663  1.00  0.00    -0.152 A  
HETATM   25  C   UNL     2     -11.151   6.457  69.293  1.00  0.00    -0.437 A  
HETATM   26  C   UNL     2      -8.583   8.056  66.474  1.00  0.00    -0.148 A  
HETATM   27  C   UNL     2     -10.917   5.886  68.054  1.00  0.00    -0.155 A  
HETATM   28  C   UNL     2      -8.850   9.392  68.844  1.00  0.00    -0.136 A  
HETATM   29  C   UNL     2     -10.516   7.663  69.633  1.00  0.00    -0.235 A  
HETATM   30  C   UNL     2      -9.463   7.548  67.425  1.00  0.00    -0.142 A  
HETATM   31  N   UNL     2     -10.103   6.414  67.124  1.00  0.00    -0.151 NA 
BRANCH  29  32
HETATM   32  C   UNL     2     -10.723   8.262  71.038  1.00  0.00    -0.218 C  
HETATM   33  H   UNL     2     -12.232   8.635  72.270  1.00  0.00     0.000 HD 
HETATM   34  O   UNL     2     -12.105   8.266  71.404  1.00  0.00    -0.291 OA 
BRANCH  32  35
HETATM   35  C   UNL     2      -9.942   7.586  72.225  1.00  0.00    -0.181 C  
HETATM   36  C   UNL     2      -8.876   5.311  72.503  1.00  0.00    -0.127 C  
HETATM   37  C   UNL     2      -8.787   5.663  73.998  1.00  0.00    -0.119 C  
HETATM   38  C   UNL     2      -9.994   6.527  74.399  1.00  0.00    -0.351 C  
HETATM   39  C   UNL     2      -8.818   6.640  71.727  1.00  0.00    -0.130 C  
HETATM   40  N   UNL     2     -10.821   6.881  73.221  1.00  0.00    -0.300 NA 
HETATM   41  C   UNL     2     -11.365   5.605  72.683  1.00  0.00    -0.305 C  
HETATM   42  C   UNL     2     -10.245   4.657  72.184  1.00  0.00    -0.259 C  
BRANCH  42  43
HETATM   43  C   UNL     2     -10.376   3.277  72.788  1.00  0.00    -0.237 C  
HETATM   44  C   UNL     2      -9.942   2.150  72.208  1.00  0.00    -0.225 C  
ENDBRANCH  42  43
ENDBRANCH  32  35
ENDBRANCH  29  32
ENDBRANCH   4  22
TORSDOF 6
ENDMDL
MODEL       15
REMARK 921   NORMALIZED FREE ENERGY PREDICTED BY IDOCK:   -6.12 KCAL/MOL
REMARK 922        TOTAL FREE ENERGY PREDICTED BY IDOCK:  -11.35 KCAL/MOL
REMARK 923 INTER-LIGAND FREE ENERGY PREDICTED BY IDOCK:   -9.04 KCAL/MOL
REMARK 924 INTRA-LIGAND FREE ENERGY PREDICTED BY IDOCK:   -2.31 KCAL/MOL
REMARK 927      BINDING AFFINITY PREDICTED BY RF-SCORE:    0.00 PKD
ROOT
HETATM    1  C   UNL     1     -12.759  14.197  65.912  1.00  0.00    -0.387 C  
HETATM    2  C   UNL     1     -11.881  13.679  67.049  1.00  0.00    -0.448 C  
HETATM    3  C   UNL     2     -12.117  11.926  63.369  1.00  0.00    -0.432 C  
HETATM    4  O   UNL     2     -11.712  11.598  64.688  1.00  0.00    -0.213 OA 
ENDROOT
BRANCH   2   5
HETATM    5  C   UNL     1     -10.507  14.398  67.273  1.00  0.00    -0.269 C  
HETATM    6  O   UNL     1     -10.818  15.018  69.639  1.00  0.00    -0.255 OA 
HETATM    7  C   UNL     1     -10.310  15.200  65.975  1.00  0.00    -0.311 C  
HETATM    8  C   UNL     1     -10.636  15.371  68.471  1.00  0.00    -0.240 C  
HETATM    9  H   UNL     1     -10.229  17.319  68.971  1.00  0.00     0.000 HD 
HETATM   10  N   UNL     1     -10.893  16.436  65.949  1.00  0.00    -0.182 N  
HETATM   11  O   UNL     1      -9.754  14.770  64.971  1.00  0.00    -0.158 OA 
HETATM   12  O   UNL     1     -10.577  18.492  66.806  1.00  0.00    -0.391 OA 
HETATM   13  N   UNL     1     -10.489  16.707  68.198  1.00  0.00    -0.305 N  
HETATM   14  C   UNL     1     -10.661  17.279  66.981  1.00  0.00    -0.231 C  
HETATM   15  H   UNL     1     -11.490  16.716  65.170  1.00  0.00     0.000 HD 
BRANCH   5  16
HETATM   16  C   UNL     1      -9.371  13.379  67.505  1.00  0.00    -0.218 A  
HETATM   17  C   UNL     1      -6.993  12.840  67.531  1.00  0.00    -0.149 A  
HETATM   18  C   UNL     1      -8.054  13.626  67.076  1.00  0.00    -0.004 A  
HETATM   19  C   UNL     1      -9.599  12.216  68.260  1.00  0.00    -0.210 A  
HETATM   20  C   UNL     1      -7.232  11.775  68.393  1.00  0.00    -0.089 A  
HETATM   21  C   UNL     1      -8.538  11.443  68.730  1.00  0.00    -0.085 A  
ENDBRANCH   5  16
ENDBRANCH   2   5
BRANCH   4  22
HETATM   22  C   UNL     2     -10.481  11.036  64.827  1.00  0.00    -0.316 A  
HETATM   23  C   UNL     2      -9.340  11.366  64.125  1.00  0.00    -0.073 A  
HETATM   24  C   UNL     2      -9.235   9.344  66.117  1.00  0.00    -0.241 A  
HETATM   25  C   UNL     2      -7.870   7.705  67.260  1.00  0.00    -0.117 A  
HETATM   26  C   UNL     2      -8.152  10.688  64.410  1.00  0.00     0.044 A  
HETATM   27  C   UNL     2      -6.813   8.110  66.463  1.00  0.00    -0.067 A  
HETATM   28  C   UNL     2     -10.400  10.096  65.850  1.00  0.00    -0.221 A  
HETATM   29  C   UNL     2      -9.130   8.304  67.098  1.00  0.00    -0.162 A  
HETATM   30  C   UNL     2      -8.085   9.668  65.355  1.00  0.00    -0.127 A  
HETATM   31  N   UNL     2      -6.905   9.061  65.518  1.00  0.00    -0.072 NA 
BRANCH  29  32
HETATM   32  C   UNL     2     -10.288   7.902  68.034  1.00  0.00    -0.209 C  
HETATM   33  H   UNL     2     -11.165   6.235  68.655  1.00  0.00     0.000 HD 
HETATM   34  O   UNL     2     -10.452   6.482  68.079  1.00  0.00    -0.171 OA 
BRANCH  32  35
HETATM   35  C   UNL     2     -10.207   8.397  69.525  1.00  0.00    -0.207 C  
HETATM   36  C   UNL     2      -9.666   7.222  71.696  1.00  0.00    -0.166 C  
HETATM   37  C   UNL     2     -10.210   8.488  72.382  1.00  0.00    -0.369 C  
HETATM   38  C   UNL     2     -11.351   9.081  71.543  1.00  0.00    -0.346 C  
HETATM   39  C   UNL     2      -9.105   7.660  70.331  1.00  0.00    -0.152 C  
HETATM   40  N   UNL     2     -11.517   8.354  70.262  1.00  0.00    -0.138 NA 
HETATM   41  C   UNL     2     -11.918   6.964  70.610  1.00  0.00    -0.348 C  
HETATM   42  C   UNL     2     -10.818   6.223  71.416  1.00  0.00    -0.312 C  
BRANCH  42  43
HETATM   43  C   UNL     2     -11.374   5.618  72.684  1.00  0.00    -0.356 C  
HETATM   44  C   UNL     2     -11.026   4.418  73.169  1.00  0.00    -0.332 C  
ENDBRANCH  42  43
ENDBRANCH  32  35
ENDBRANCH  29  32
ENDBRANCH   4  22
TORSDOF 6
ENDMDL
MODEL       16
REMARK 921   NORMALIZED FREE ENERGY PREDICTED BY IDOCK:   -6.12 KCAL/MOL
REMARK 922        TOTAL FREE ENERGY PREDICTED BY IDOCK:  -11.34 KCAL/MOL
REMARK 923 INTER-LIGAND FREE ENERGY PREDICTED BY IDOCK:   -9.66 KCAL/MOL
REMARK 924 INTRA-LIGAND FREE ENERGY PREDICTED BY IDOCK:   -1.68 KCAL/MOL
REMARK 927      BINDING AFFINITY PREDICTED BY RF-SCORE:    0.00 PKD
ROOT
HETATM    1  C   UNL     1     -11.165  14.698  65.409  1.00  0.00    -0.347 C  
HETATM    2  C   UNL     1     -11.706  14.888  66.824  1.00  0.00    -0.243 C  
HETATM    3  C   UNL     2     -10.767  11.259  65.207  1.00  0.00    -0.237 C  
HETATM    4  O   UNL     2     -11.538  11.790  66.272  1.00  0.00    -0.441 OA 
ENDROOT
BRANCH   2   5
HETATM    5  C   UNL     1     -10.681  15.326  67.925  1.00  0.00    -0.275 C  
HETATM    6  O   UNL     1     -11.129  17.750  67.876  1.00  0.00    -0.206 OA 
HETATM    7  C   UNL     1      -9.445  14.460  67.625  1.00  0.00    -0.214 C  
HETATM    8  C   UNL     1     -10.331  16.821  67.723  1.00  0.00    -0.318 C  
HETATM    9  H   UNL     1      -8.697  18.055  67.593  1.00  0.00     0.000 HD 
HETATM   10  N   UNL     1      -8.581  14.967  66.694  1.00  0.00    -0.411 N  
HETATM   11  O   UNL     1      -9.247  13.345  68.093  1.00  0.00    -0.205 OA 
HETATM   12  O   UNL     1      -7.017  16.574  66.512  1.00  0.00    -0.202 OA 
HETATM   13  N   UNL     1      -9.031  17.111  67.399  1.00  0.00    -0.218 N  
HETATM   14  C   UNL     1      -8.153  16.242  66.839  1.00  0.00    -0.235 C  
HETATM   15  H   UNL     1      -8.266  14.397  65.909  1.00  0.00     0.000 HD 
BRANCH   5  16
HETATM   16  C   UNL     1     -11.237  15.072  69.342  1.00  0.00    -0.299 A  
HETATM   17  C   UNL     1     -11.178  15.506  71.741  1.00  0.00    -0.376 A  
HETATM   18  C   UNL     1     -10.546  15.487  70.496  1.00  0.00    -0.243 A  
HETATM   19  C   UNL     1     -12.517  14.517  69.518  1.00  0.00    -0.162 A  
HETATM   20  C   UNL     1     -12.496  15.080  71.863  1.00  0.00    -0.409 A  
HETATM   21  C   UNL     1     -13.154  14.554  70.758  1.00  0.00    -0.363 A  
ENDBRANCH   5  16
ENDBRANCH   2   5
BRANCH   4  22
HETATM   22  C   UNL     2     -11.340  11.243  67.501  1.00  0.00    -0.288 A  
HETATM   23  C   UNL     2     -12.044  11.528  68.654  1.00  0.00    -0.197 A  
HETATM   24  C   UNL     2      -9.964   9.594  68.713  1.00  0.00    -0.184 A  
HETATM   25  C   UNL     2      -8.686   8.044  70.062  1.00  0.00    -0.135 A  
HETATM   26  C   UNL     2     -11.710  10.855  69.832  1.00  0.00    -0.418 A  
HETATM   27  C   UNL     2      -9.446   8.447  71.147  1.00  0.00    -0.179 A  
HETATM   28  C   UNL     2     -10.374  10.242  67.527  1.00  0.00    -0.276 A  
HETATM   29  C   UNL     2      -8.913   8.623  68.803  1.00  0.00    -0.138 A  
HETATM   30  C   UNL     2     -10.671   9.931  69.894  1.00  0.00    -0.280 A  
HETATM   31  N   UNL     2     -10.413   9.378  71.084  1.00  0.00    -0.320 NA 
BRANCH  29  32
HETATM   32  C   UNL     2      -8.114   8.123  67.582  1.00  0.00    -0.127 C  
HETATM   33  H   UNL     2      -6.266   7.527  67.177  1.00  0.00     0.000 HD 
HETATM   34  O   UNL     2      -6.758   7.835  67.930  1.00  0.00    -0.063 OA 
BRANCH  32  35
HETATM   35  C   UNL     2      -8.670   6.856  66.835  1.00  0.00    -0.118 C  
HETATM   36  C   UNL     2     -10.284   5.033  67.514  1.00  0.00    -0.184 C  
HETATM   37  C   UNL     2      -9.790   4.288  66.262  1.00  0.00    -0.234 C  
HETATM   38  C   UNL     2      -8.306   4.607  66.022  1.00  0.00    -0.114 C  
HETATM   39  C   UNL     2     -10.138   6.538  67.225  1.00  0.00    -0.212 C  
HETATM   40  N   UNL     2      -7.811   5.629  66.974  1.00  0.00    -0.101 NA 
HETATM   41  C   UNL     2      -7.908   5.030  68.332  1.00  0.00    -0.082 C  
HETATM   42  C   UNL     2      -9.374   4.712  68.727  1.00  0.00    -0.197 C  
BRANCH  42  43
HETATM   43  C   UNL     2      -9.524   3.282  69.194  1.00  0.00    -0.189 C  
HETATM   44  C   UNL     2      -9.398   2.882  70.467  1.00  0.00    -0.220 C  
ENDBRANCH  42  43
ENDBRANCH  32  35
ENDBRANCH  29  32
ENDBRANCH   4  22
TORSDOF 6
ENDMDL
MODEL       17
REMARK 921   NORMALIZED FREE ENERGY PREDICTED BY IDOCK:   -6.09 KCAL/MOL
REMARK 922        TOTAL FREE ENERGY PREDICTED BY IDOCK:  -11.31 KCAL/MOL
REMARK 923 INTER-LIGAND FREE ENERGY PREDICTED BY IDOCK:   -9.47 KCAL/MOL
REMARK 924 INTRA-LIGAND FREE ENERGY PREDICTED BY IDOCK:   -1.84 KCAL/MOL
REMARK 927      BINDING AFFINITY PREDICTED BY RF-SCORE:    0.00 PKD
ROOT
HETATM    1  C   UNL     1      -6.593   5.661  66.753  1.00  0.00    -0.056 C  
HETATM    2  C   UNL     1      -7.476   5.192  67.906  1.00  0.00    -0.076 C  
HETATM    3  C   UNL     2      -6.347   9.073  67.331  1.00  0.00    -0.060 C  
HETATM    4  O   UNL     2      -6.844   8.244  68.369  1.00  0.00    -0.062 OA 
ENDROOT
BRANCH   2   5
HETATM    5  C   UNL     1      -8.995   4.967  67.594  1.00  0.00    -0.116 C  
HETATM    6  O   UNL     1      -9.029   2.508  67.777  1.00  0.00    -0.121 OA 
HETATM    7  C   UNL     1      -9.274   5.958  66.451  1.00  0.00    -0.150 C  
HETATM    8  C   UNL     1      -9.197   3.517  67.087  1.00  0.00    -0.192 C  
HETATM    9  H   UNL     1     -10.093   2.494  65.552  1.00  0.00     0.000 HD 
HETATM   10  N   UNL     1      -9.001   5.500  65.192  1.00  0.00    -0.324 N  
HETATM   11  O   UNL     1      -9.630   7.119  66.610  1.00  0.00    -0.170 OA 
HETATM   12  O   UNL     1      -9.865   4.094  63.661  1.00  0.00    -0.153 OA 
HETATM   13  N   UNL     1      -9.635   3.372  65.796  1.00  0.00    -0.117 N  
HETATM   14  C   UNL     1      -9.508   4.303  64.819  1.00  0.00    -0.167 C  
HETATM   15  H   UNL     1      -8.429   6.047  64.549  1.00  0.00     0.000 HD 
BRANCH   5  16
HETATM   16  C   UNL     1      -9.871   5.248  68.834  1.00  0.00    -0.230 A  
HETATM   17  C   UNL     1     -10.139   5.316  71.256  1.00  0.00    -0.278 A  
HETATM   18  C   UNL     1      -9.494   4.821  70.120  1.00  0.00    -0.246 A  
HETATM   19  C   UNL     1     -11.023   6.045  68.727  1.00  0.00    -0.384 A  
HETATM   20  C   UNL     1     -11.191   6.217  71.127  1.00  0.00    -0.355 A  
HETATM   21  C   UNL     1     -11.655   6.555  69.861  1.00  0.00    -0.433 A  
ENDBRANCH   5  16
ENDBRANCH   2   5
BRANCH   4  22
HETATM   22  C   UNL     2      -7.921   8.707  69.058  1.00  0.00    -0.115 A  
HETATM   23  C   UNL     2      -8.196   8.501  70.395  1.00  0.00    -0.114 A  
HETATM   24  C   UNL     2      -9.967  10.061  68.815  1.00  0.00    -0.181 A  
HETATM   25  C   UNL     2     -12.026  11.330  68.747  1.00  0.00    -0.350 A  
HETATM   26  C   UNL     2      -9.351   9.067  70.942  1.00  0.00    -0.326 A  
HETATM   27  C   UNL     2     -12.198  11.020  70.085  1.00  0.00    -0.344 A  
HETATM   28  C   UNL     2      -8.757   9.532  68.314  1.00  0.00    -0.120 A  
HETATM   29  C   UNL     2     -10.904  10.841  68.060  1.00  0.00    -0.302 A  
HETATM   30  C   UNL     2     -10.252   9.804  70.179  1.00  0.00    -0.275 A  
HETATM   31  N   UNL     2     -11.344  10.264  70.798  1.00  0.00    -0.345 NA 
BRANCH  29  32
HETATM   32  C   UNL     2     -10.678  11.245  66.589  1.00  0.00    -0.272 C  
HETATM   33  H   UNL     2     -11.763  11.476  64.945  1.00  0.00     0.000 HD 
HETATM   34  O   UNL     2     -11.902  11.228  65.851  1.00  0.00    -0.008 OA 
BRANCH  32  35
HETATM   35  C   UNL     2     -10.010  12.645  66.327  1.00  0.00    -0.258 C  
HETATM   36  C   UNL     2      -9.521  14.621  67.824  1.00  0.00    -0.205 C  
HETATM   37  C   UNL     2      -9.248  15.394  66.522  1.00  0.00    -0.323 C  
HETATM   38  C   UNL     2     -10.175  14.877  65.410  1.00  0.00    -0.379 C  
HETATM   39  C   UNL     2      -9.190  13.144  67.545  1.00  0.00    -0.206 C  
HETATM   40  N   UNL     2     -10.966  13.709  65.864  1.00  0.00    -0.281 NA 
HETATM   41  C   UNL     2     -11.843  14.190  66.966  1.00  0.00    -0.429 C  
HETATM   42  C   UNL     2     -11.027  14.689  68.186  1.00  0.00    -0.269 C  
BRANCH  42  43
HETATM   43  C   UNL     2     -11.453  16.077  68.608  1.00  0.00    -0.377 C  
HETATM   44  C   UNL     2     -10.649  16.971  69.200  1.00  0.00    -0.303 C  
ENDBRANCH  42  43
ENDBRANCH  32  35
ENDBRANCH  29  32
ENDBRANCH   4  22
TORSDOF 6
ENDMDL
MODEL       18
REMARK 921   NORMALIZED FREE ENERGY PREDICTED BY IDOCK:   -6.09 KCAL/MOL
REMARK 922        TOTAL FREE ENERGY PREDICTED BY IDOCK:  -11.30 KCAL/MOL
REMARK 923 INTER-LIGAND FREE ENERGY PREDICTED BY IDOCK:   -9.66 KCAL/MOL
REMARK 924 INTRA-LIGAND FREE ENERGY PREDICTED BY IDOCK:   -1.64 KCAL/MOL
REMARK 927      BINDING AFFINITY PREDICTED BY RF-SCORE:    0.00 PKD
ROOT
HETATM    1  C   UNL     1      -7.173   9.583  69.647  1.00  0.00    -0.076 C  
HETATM    2  C   UNL     1      -8.594  10.135  69.741  1.00  0.00    -0.148 C  
HETATM    3  C   UNL     2      -6.287  10.331  66.378  1.00  0.00    -0.085 C  
HETATM    4  O   UNL     2      -7.432  10.961  66.930  1.00  0.00    -0.114 OA 
ENDROOT
BRANCH   2   5
HETATM    5  C   UNL     1      -9.768   9.109  69.592  1.00  0.00    -0.183 C  
HETATM    6  O   UNL     1     -11.360  10.568  68.402  1.00  0.00    -0.282 OA 
HETATM    7  C   UNL     1      -9.787   8.390  70.952  1.00  0.00    -0.184 C  
HETATM    8  C   UNL     1     -11.094   9.884  69.394  1.00  0.00    -0.199 C  
HETATM    9  H   UNL     1     -13.008   9.948  70.129  1.00  0.00     0.000 HD 
HETATM   10  N   UNL     1     -10.516   9.002  71.933  1.00  0.00    -0.345 N  
HETATM   11  O   UNL     1      -9.138   7.385  71.216  1.00  0.00    -0.142 OA 
HETATM   12  O   UNL     1     -12.667   9.326  72.513  1.00  0.00    -0.341 OA 
HETATM   13  N   UNL     1     -12.039   9.748  70.378  1.00  0.00    -0.167 N  
HETATM   14  C   UNL     1     -11.788   9.370  71.655  1.00  0.00    -0.394 C  
HETATM   15  H   UNL     1     -10.112   9.177  72.853  1.00  0.00     0.000 HD 
BRANCH   5  16
HETATM   16  C   UNL     1      -9.515   8.133  68.423  1.00  0.00    -0.146 A  
HETATM   17  C   UNL     1      -8.024   6.628  67.214  1.00  0.00    -0.117 A  
HETATM   18  C   UNL     1      -8.219   7.712  68.075  1.00  0.00    -0.124 A  
HETATM   19  C   UNL     1     -10.593   7.543  67.740  1.00  0.00    -0.274 A  
HETATM   20  C   UNL     1      -9.117   5.971  66.660  1.00  0.00    -0.142 A  
HETATM   21  C   UNL     1     -10.400   6.449  66.896  1.00  0.00    -0.306 A  
ENDBRANCH   5  16
ENDBRANCH   2   5
BRANCH   4  22
HETATM   22  C   UNL     2      -8.528  11.047  66.129  1.00  0.00    -0.168 A  
HETATM   23  C   UNL     2      -9.221   9.996  65.563  1.00  0.00    -0.247 A  
HETATM   24  C   UNL     2     -10.088  12.662  65.112  1.00  0.00    -0.257 A  
HETATM   25  C   UNL     2     -11.688  14.106  64.011  1.00  0.00    -0.234 A  
HETATM   26  C   UNL     2     -10.339  10.272  64.773  1.00  0.00    -0.101 A  
HETATM   27  C   UNL     2     -12.269  12.966  63.481  1.00  0.00    -0.512 A  
HETATM   28  C   UNL     2      -9.005  12.342  65.961  1.00  0.00     0.106 A  
HETATM   29  C   UNL     2     -10.559  13.989  64.837  1.00  0.00    -0.442 A  
HETATM   30  C   UNL     2     -10.761  11.572  64.507  1.00  0.00    -0.329 A  
HETATM   31  N   UNL     2     -11.820  11.719  63.705  1.00  0.00    -0.444 NA 
BRANCH  29  32
HETATM   32  C   UNL     2      -9.956  15.252  65.483  1.00  0.00    -0.348 C  
HETATM   33  H   UNL     2     -10.058  17.218  65.243  1.00  0.00     0.000 HD 
HETATM   34  O   UNL     2     -10.430  16.440  64.845  1.00  0.00    -0.643 OA 
BRANCH  32  35
HETATM   35  C   UNL     2     -10.186  15.444  67.028  1.00  0.00    -0.262 C  
HETATM   36  C   UNL     2     -10.225  17.487  68.516  1.00  0.00    -0.378 C  
HETATM   37  C   UNL     2     -10.167  16.492  69.688  1.00  0.00    -0.156 C  
HETATM   38  C   UNL     2      -9.334  15.265  69.284  1.00  0.00    -0.239 C  
HETATM   39  C   UNL     2     -10.930  16.766  67.353  1.00  0.00    -0.092 C  
HETATM   40  N   UNL     2      -8.937  15.326  67.858  1.00  0.00    -0.169 NA 
HETATM   41  C   UNL     2      -8.053  16.513  67.711  1.00  0.00    -0.161 C  
HETATM   42  C   UNL     2      -8.794  17.837  68.034  1.00  0.00    -0.259 C  
BRANCH  42  43
HETATM   43  C   UNL     2      -8.035  18.664  69.046  1.00  0.00    -0.167 C  
HETATM   44  C   UNL     2      -7.112  19.585  68.735  1.00  0.00    -0.383 C  
ENDBRANCH  42  43
ENDBRANCH  32  35
ENDBRANCH  29  32
ENDBRANCH   4  22
TORSDOF 6
ENDMDL
MODEL       19
REMARK 921   NORMALIZED FREE ENERGY PREDICTED BY IDOCK:   -5.94 KCAL/MOL
REMARK 922        TOTAL FREE ENERGY PREDICTED BY IDOCK:  -11.10 KCAL/MOL
REMARK 923 INTER-LIGAND FREE ENERGY PREDICTED BY IDOCK:   -9.61 KCAL/MOL
REMARK 924 INTRA-LIGAND FREE ENERGY PREDICTED BY IDOCK:   -1.49 KCAL/MOL
REMARK 927      BINDING AFFINITY PREDICTED BY RF-SCORE:    0.00 PKD
ROOT
HETATM    1  C   UNL     1      -8.435   8.449  71.873  1.00  0.00    -0.237 C  
HETATM    2  C   UNL     1      -9.584   9.249  71.264  1.00  0.00    -0.272 C  
HETATM    3  C   UNL     2      -6.121   8.364  69.291  1.00  0.00    -0.038 C  
HETATM    4  O   UNL     2      -7.199   9.282  69.204  1.00  0.00    -0.064 OA 
ENDROOT
BRANCH   2   5
HETATM    5  C   UNL     1     -10.803   8.436  70.709  1.00  0.00    -0.255 C  
HETATM    6  O   UNL     1     -11.770  10.190  69.271  1.00  0.00    -0.134 OA 
HETATM    7  C   UNL     1     -11.307   7.665  71.942  1.00  0.00    -0.266 C  
HETATM    8  C   UNL     1     -11.895   9.425  70.231  1.00  0.00    -0.018 C  
HETATM    9  H   UNL     1     -13.909   9.764  70.425  1.00  0.00     0.000 HD 
HETATM   10  N   UNL     1     -12.188   8.340  72.741  1.00  0.00    -0.580 N  
HETATM   11  O   UNL     1     -10.909   6.556  72.279  1.00  0.00    -0.217 OA 
HETATM   12  O   UNL     1     -14.345   8.981  72.744  1.00  0.00    -0.596 OA 
HETATM   13  N   UNL     1     -13.088   9.398  70.907  1.00  0.00    -0.132 N  
HETATM   14  C   UNL     1     -13.264   8.923  72.164  1.00  0.00    -0.429 C  
HETATM   15  H   UNL     1     -12.038   8.402  73.748  1.00  0.00     0.000 HD 
BRANCH   5  16
HETATM   16  C   UNL     1     -10.374   7.489  69.568  1.00  0.00    -0.216 A  
HETATM   17  C   UNL     1      -9.127   5.539  68.800  1.00  0.00    -0.131 A  
HETATM   18  C   UNL     1      -9.320   6.570  69.724  1.00  0.00    -0.149 A  
HETATM   19  C   UNL     1     -11.106   7.439  68.369  1.00  0.00     0.129 A  
HETATM   20  C   UNL     1      -9.958   5.430  67.690  1.00  0.00    -0.195 A  
HETATM   21  C   UNL     1     -10.925   6.399  67.457  1.00  0.00    -0.454 A  
ENDBRANCH   5  16
ENDBRANCH   2   5
BRANCH   4  22
HETATM   22  C   UNL     2      -7.807   9.398  67.993  1.00  0.00    -0.091 A  
HETATM   23  C   UNL     2      -7.810   8.462  66.979  1.00  0.00    -0.096 A  
HETATM   24  C   UNL     2      -9.205  10.912  66.640  1.00  0.00    -0.184 A  
HETATM   25  C   UNL     2     -10.545  12.285  65.165  1.00  0.00    -0.320 A  
HETATM   26  C   UNL     2      -8.502   8.747  65.799  1.00  0.00    -0.161 A  
HETATM   27  C   UNL     2     -10.440  11.277  64.221  1.00  0.00    -0.357 A  
HETATM   28  C   UNL     2      -8.554  10.561  67.843  1.00  0.00    -0.123 A  
HETATM   29  C   UNL     2      -9.911  12.139  66.409  1.00  0.00    -0.242 A  
HETATM   30  C   UNL     2      -9.161   9.955  65.595  1.00  0.00    -0.194 A  
HETATM   31  N   UNL     2      -9.757  10.136  64.412  1.00  0.00    -0.310 NA 
BRANCH  29  32
HETATM   32  C   UNL     2     -10.086  13.230  67.484  1.00  0.00    -0.223 C  
HETATM   33  H   UNL     2     -10.135  13.350  69.463  1.00  0.00     0.000 HD 
HETATM   34  O   UNL     2     -10.026  12.677  68.801  1.00  0.00    -0.144 OA 
BRANCH  32  35
HETATM   35  C   UNL     2      -9.075  14.435  67.451  1.00  0.00    -0.198 C  
HETATM   36  C   UNL     2      -9.081  16.711  68.551  1.00  0.00    -0.234 C  
HETATM   37  C   UNL     2      -7.930  17.050  67.588  1.00  0.00    -0.187 C  
HETATM   38  C   UNL     2      -8.136  16.315  66.255  1.00  0.00    -0.232 C  
HETATM   39  C   UNL     2      -9.018  15.193  68.803  1.00  0.00    -0.197 C  
HETATM   40  N   UNL     2      -9.298  15.397  66.317  1.00  0.00    -0.293 NA 
HETATM   41  C   UNL     2     -10.501  16.245  66.530  1.00  0.00    -0.290 C  
HETATM   42  C   UNL     2     -10.448  17.005  67.881  1.00  0.00    -0.354 C  
BRANCH  42  43
HETATM   43  C   UNL     2     -10.688  18.485  67.695  1.00  0.00    -0.405 C  
HETATM   44  C   UNL     2     -10.547  19.137  66.533  1.00  0.00    -0.523 C  
ENDBRANCH  42  43
ENDBRANCH  32  35
ENDBRANCH  29  32
ENDBRANCH   4  22
TORSDOF 6
ENDMDL
MODEL       20
REMARK 921   NORMALIZED FREE ENERGY PREDICTED BY IDOCK:   -5.93 KCAL/MOL
REMARK 922        TOTAL FREE ENERGY PREDICTED BY IDOCK:  -11.09 KCAL/MOL
REMARK 923 INTER-LIGAND FREE ENERGY PREDICTED BY IDOCK:   -9.65 KCAL/MOL
REMARK 924 INTRA-LIGAND FREE ENERGY PREDICTED BY IDOCK:   -1.44 KCAL/MOL
REMARK 927      BINDING AFFINITY PREDICTED BY RF-SCORE:    0.00 PKD
ROOT
HETATM    1  C   UNL     1      -7.063   6.340  66.829  1.00  0.00    -0.073 C  
HETATM    2  C   UNL     1      -7.815   5.604  67.936  1.00  0.00    -0.097 C  
HETATM    3  C   UNL     2      -7.110   9.626  67.938  1.00  0.00    -0.080 C  
HETATM    4  O   UNL     2      -7.450   8.597  68.853  1.00  0.00    -0.086 OA 
ENDROOT
BRANCH   2   5
HETATM    5  C   UNL     1      -9.323   5.270  67.672  1.00  0.00    -0.128 C  
HETATM    6  O   UNL     1     -10.036   7.487  66.861  1.00  0.00    -0.224 OA 
HETATM    7  C   UNL     1      -9.710   4.397  68.879  1.00  0.00    -0.141 C  
HETATM    8  C   UNL     1     -10.143   6.584  67.696  1.00  0.00    -0.147 C  
HETATM    9  H   UNL     1     -11.838   7.369  68.542  1.00  0.00     0.000 HD 
HETATM   10  N   UNL     1     -10.110   5.077  69.995  1.00  0.00    -0.256 N  
HETATM   11  O   UNL     1      -9.599   3.178  68.918  1.00  0.00    -0.157 OA 
HETATM   12  O   UNL     1     -11.893   6.225  70.749  1.00  0.00    -0.307 OA 
HETATM   13  N   UNL     1     -11.076   6.709  68.693  1.00  0.00    -0.243 N  
HETATM   14  C   UNL     1     -11.064   6.026  69.864  1.00  0.00    -0.399 C  
HETATM   15  H   UNL     1      -9.699   4.873  70.906  1.00  0.00     0.000 HD 
BRANCH   5  16
HETATM   16  C   UNL     1      -9.507   4.525  66.333  1.00  0.00    -0.177 A  
HETATM   17  C   UNL     1     -10.731   4.203  64.248  1.00  0.00    -0.135 A  
HETATM   18  C   UNL     1     -10.684   4.647  65.572  1.00  0.00    -0.176 A  
HETATM   19  C   UNL     1      -8.449   3.786  65.776  1.00  0.00    -0.110 A  
HETATM   20  C   UNL     1      -9.617   3.598  63.674  1.00  0.00    -0.147 A  
HETATM   21  C   UNL     1      -8.488   3.360  64.449  1.00  0.00    -0.093 A  
ENDBRANCH   5  16
ENDBRANCH   2   5
BRANCH   4  22
HETATM   22  C   UNL     2      -8.517   8.829  69.665  1.00  0.00    -0.129 A  
HETATM   23  C   UNL     2      -8.788   8.211  70.869  1.00  0.00    -0.156 A  
HETATM   24  C   UNL     2     -10.544  10.215  69.886  1.00  0.00    -0.331 A  
HETATM   25  C   UNL     2     -12.585  11.465  70.247  1.00  0.00    -0.225 A  
HETATM   26  C   UNL     2      -9.931   8.587  71.579  1.00  0.00    -0.314 A  
HETATM   27  C   UNL     2     -12.754  10.746  71.418  1.00  0.00    -0.439 A  
HETATM   28  C   UNL     2      -9.345   9.859  69.230  1.00  0.00    -0.215 A  
HETATM   29  C   UNL     2     -11.473  11.207  69.429  1.00  0.00    -0.368 A  
HETATM   30  C   UNL     2     -10.826   9.540  71.100  1.00  0.00    -0.355 A  
HETATM   31  N   UNL     2     -11.907   9.792  71.844  1.00  0.00    -0.258 NA 
BRANCH  29  32
HETATM   32  C   UNL     2     -11.250  12.056  68.161  1.00  0.00    -0.260 C  
HETATM   33  H   UNL     2     -11.997  12.187  66.329  1.00  0.00     0.000 HD 
HETATM   34  O   UNL     2     -12.135  11.664  67.109  1.00  0.00    -0.575 OA 
BRANCH  32  35
HETATM   35  C   UNL     2     -11.388  13.616  68.313  1.00  0.00    -0.289 C  
HETATM   36  C   UNL     2     -10.840  15.545  66.774  1.00  0.00    -0.291 C  
HETATM   37  C   UNL     2     -11.032  16.437  68.013  1.00  0.00    -0.327 C  
HETATM   38  C   UNL     2     -10.572  15.682  69.270  1.00  0.00    -0.238 C  
HETATM   39  C   UNL     2     -11.738  14.309  66.970  1.00  0.00    -0.427 C  
HETATM   40  N   UNL     2     -10.202  14.282  68.956  1.00  0.00    -0.194 NA 
HETATM   41  C   UNL     2      -9.031  14.345  68.041  1.00  0.00    -0.183 C  
HETATM   42  C   UNL     2      -9.377  15.037  66.696  1.00  0.00    -0.290 C  
BRANCH  42  43
HETATM   43  C   UNL     2      -8.401  16.146  66.377  1.00  0.00    -0.357 C  
HETATM   44  C   UNL     2      -7.195  16.282  66.943  1.00  0.00    -0.257 C  
ENDBRANCH  42  43
ENDBRANCH  32  35
ENDBRANCH  29  32
ENDBRANCH   4  22
TORSDOF 6
ENDMDL
MODEL       21
REMARK 921   NORMALIZED FREE ENERGY PREDICTED BY IDOCK:   -5.93 KCAL/MOL
REMARK 922        TOTAL FREE ENERGY PREDICTED BY IDOCK:  -11.09 KCAL/MOL
REMARK 923 INTER-LIGAND FREE ENERGY PREDICTED BY IDOCK:   -9.66 KCAL/MOL
REMARK 924 INTRA-LIGAND FREE ENERGY PREDICTED BY IDOCK:   -1.43 KCAL/MOL
REMARK 927      BINDING AFFINITY PREDICTED BY RF-SCORE:    0.00 PKD
ROOT
HETATM    1  C   UNL     1      -8.823   8.168  72.806  1.00  0.00    -0.297 C  
HETATM    2  C   UNL     1      -9.929   8.116  71.755  1.00  0.00    -0.264 C  
HETATM    3  C   UNL     2      -6.262   9.798  71.128  1.00  0.00    -0.017 C  
HETATM    4  O   UNL     2      -7.567   9.834  70.572  1.00  0.00    -0.194 OA 
ENDROOT
BRANCH   2   5
HETATM    5  C   UNL     1     -10.103   6.772  70.970  1.00  0.00    -0.206 C  
HETATM    6  O   UNL     1      -7.747   6.433  70.328  1.00  0.00    -0.094 OA 
HETATM    7  C   UNL     1     -11.406   6.987  70.181  1.00  0.00    -0.277 C  
HETATM    8  C   UNL     1      -8.919   6.605  69.985  1.00  0.00    -0.144 C  
HETATM    9  H   UNL     1      -8.558   6.169  68.013  1.00  0.00     0.000 HD 
HETATM   10  N   UNL     1     -11.269   7.613  68.973  1.00  0.00    -0.390 N  
HETATM   11  O   UNL     1     -12.525   6.716  70.600  1.00  0.00    -0.289 OA 
HETATM   12  O   UNL     1     -10.540   7.168  66.891  1.00  0.00    -0.305 OA 
HETATM   13  N   UNL     1      -9.226   6.606  68.648  1.00  0.00    -0.129 N  
HETATM   14  C   UNL     1     -10.346   7.141  68.104  1.00  0.00    -0.196 C  
HETATM   15  H   UNL     1     -11.849   8.417  68.733  1.00  0.00     0.000 HD 
BRANCH   5  16
HETATM   16  C   UNL     1     -10.199   5.568  71.932  1.00  0.00    -0.251 A  
HETATM   17  C   UNL     1     -11.130   4.537  73.935  1.00  0.00    -0.267 A  
HETATM   18  C   UNL     1     -10.800   5.677  73.199  1.00  0.00    -0.321 A  
HETATM   19  C   UNL     1      -9.786   4.290  71.518  1.00  0.00    -0.244 A  
HETATM   20  C   UNL     1     -10.835   3.273  73.437  1.00  0.00    -0.307 A  
HETATM   21  C   UNL     1     -10.132   3.151  72.244  1.00  0.00    -0.216 A  
ENDBRANCH   5  16
ENDBRANCH   2   5
BRANCH   4  22
HETATM   22  C   UNL     2      -7.663   9.652  69.227  1.00  0.00    -0.095 A  
HETATM   23  C   UNL     2      -6.826   8.891  68.436  1.00  0.00    -0.065 A  
HETATM   24  C   UNL     2      -9.034  10.239  67.264  1.00  0.00    -0.140 A  
HETATM   25  C   UNL     2     -10.244  10.743  65.230  1.00  0.00    -0.351 A  
HETATM   26  C   UNL     2      -7.085   8.806  67.066  1.00  0.00    -0.078 A  
HETATM   27  C   UNL     2      -9.311   9.977  64.551  1.00  0.00    -0.286 A  
HETATM   28  C   UNL     2      -8.781  10.247  68.654  1.00  0.00    -0.133 A  
HETATM   29  C   UNL     2     -10.123  10.913  66.618  1.00  0.00    -0.264 A  
HETATM   30  C   UNL     2      -8.139   9.487  66.463  1.00  0.00    -0.112 A  
HETATM   31  N   UNL     2      -8.268   9.365  65.139  1.00  0.00    -0.128 NA 
BRANCH  29  32
HETATM   32  C   UNL     2     -11.200  11.708  67.383  1.00  0.00    -0.298 C  
HETATM   33  H   UNL     2     -12.590  11.358  68.754  1.00  0.00     0.000 HD 
HETATM   34  O   UNL     2     -11.926  10.868  68.283  1.00  0.00    -0.561 OA 
BRANCH  32  35
HETATM   35  C   UNL     2     -10.714  12.951  68.215  1.00  0.00    -0.244 C  
HETATM   36  C   UNL     2     -11.140  15.433  68.000  1.00  0.00    -0.312 C  
HETATM   37  C   UNL     2      -9.987  15.601  69.005  1.00  0.00    -0.233 C  
HETATM   38  C   UNL     2      -8.942  14.497  68.783  1.00  0.00    -0.157 C  
HETATM   39  C   UNL     2     -11.789  14.067  68.289  1.00  0.00    -0.406 C  
HETATM   40  N   UNL     2      -9.396  13.519  67.766  1.00  0.00    -0.204 NA 
HETATM   41  C   UNL     2      -9.515  14.262  66.483  1.00  0.00    -0.287 C  
HETATM   42  C   UNL     2     -10.589  15.378  66.552  1.00  0.00    -0.306 C  
BRANCH  42  43
HETATM   43  C   UNL     2     -10.036  16.709  66.098  1.00  0.00    -0.356 C  
HETATM   44  C   UNL     2     -10.593  17.897  66.371  1.00  0.00    -0.238 C  
ENDBRANCH  42  43
ENDBRANCH  32  35
ENDBRANCH  29  32
ENDBRANCH   4  22
TORSDOF 6
ENDMDL
MODEL       22
REMARK 921   NORMALIZED FREE ENERGY PREDICTED BY IDOCK:   -5.89 KCAL/MOL
REMARK 922        TOTAL FREE ENERGY PREDICTED BY IDOCK:  -11.03 KCAL/MOL
REMARK 923 INTER-LIGAND FREE ENERGY PREDICTED BY IDOCK:   -9.60 KCAL/MOL
REMARK 924 INTRA-LIGAND FREE ENERGY PREDICTED BY IDOCK:   -1.43 KCAL/MOL
REMARK 927      BINDING AFFINITY PREDICTED BY RF-SCORE:    0.00 PKD
ROOT
HETATM    1  C   UNL     1     -11.073   6.097  69.057  1.00  0.00    -0.437 C  
HETATM    2  C   UNL     1     -10.182   5.996  70.292  1.00  0.00    -0.266 C  
HETATM    3  C   UNL     2      -9.330   8.324  67.048  1.00  0.00    -0.160 C  
HETATM    4  O   UNL     2      -8.662   7.747  68.158  1.00  0.00    -0.126 OA 
ENDROOT
BRANCH   2   5
HETATM    5  C   UNL     1     -10.593   6.850  71.540  1.00  0.00    -0.239 C  
HETATM    6  O   UNL     1     -11.828   5.105  72.768  1.00  0.00    -0.219 OA 
HETATM    7  C   UNL     1     -10.984   8.207  70.928  1.00  0.00    -0.242 C  
HETATM    8  C   UNL     1     -11.833   6.204  72.208  1.00  0.00    -0.275 C  
HETATM    9  H   UNL     1     -13.693   6.714  72.906  1.00  0.00     0.000 HD 
HETATM   10  N   UNL     1     -12.277   8.310  70.497  1.00  0.00    -0.469 N  
HETATM   11  O   UNL     1     -10.204   9.133  70.736  1.00  0.00    -0.218 OA 
HETATM   12  O   UNL     1     -14.348   8.537  71.346  1.00  0.00    -0.405 OA 
HETATM   13  N   UNL     1     -12.988   6.942  72.205  1.00  0.00    -0.110 N  
HETATM   14  C   UNL     1     -13.269   7.951  71.343  1.00  0.00    -0.245 C  
HETATM   15  H   UNL     1     -12.489   8.651  69.559  1.00  0.00     0.000 HD 
BRANCH   5  16
HETATM   16  C   UNL     1      -9.426   6.979  72.542  1.00  0.00    -0.161 A  
HETATM   17  C   UNL     1      -7.145   6.430  73.207  1.00  0.00    -0.082 A  
HETATM   18  C   UNL     1      -8.305   6.130  72.488  1.00  0.00    -0.115 A  
HETATM   19  C   UNL     1      -9.398   8.032  73.473  1.00  0.00    -0.285 A  
HETATM   20  C   UNL     1      -7.096   7.560  74.016  1.00  0.00    -0.112 A  
HETATM   21  C   UNL     1      -8.234   8.342  74.175  1.00  0.00    -0.264 A  
ENDBRANCH   5  16
ENDBRANCH   2   5
BRANCH   4  22
HETATM   22  C   UNL     2      -7.883   8.578  68.902  1.00  0.00    -0.109 A  
HETATM   23  C   UNL     2      -7.090   8.224  69.975  1.00  0.00    -0.043 A  
HETATM   24  C   UNL     2      -7.168  10.928  69.109  1.00  0.00    -0.118 A  
HETATM   25  C   UNL     2      -6.390  13.190  69.479  1.00  0.00    -0.103 A  
HETATM   26  C   UNL     2      -6.343   9.215  70.617  1.00  0.00    -0.058 A  
HETATM   27  C   UNL     2      -5.667  12.706  70.556  1.00  0.00    -0.169 A  
HETATM   28  C   UNL     2      -7.856   9.890  68.443  1.00  0.00    -0.085 A  
HETATM   29  C   UNL     2      -7.184  12.310  68.726  1.00  0.00    -0.098 A  
HETATM   30  C   UNL     2      -6.393  10.552  70.234  1.00  0.00    -0.137 A  
HETATM   31  N   UNL     2      -5.667  11.420  70.946  1.00  0.00    -0.332 NA 
BRANCH  29  32
HETATM   32  C   UNL     2      -7.934  12.836  67.485  1.00  0.00    -0.177 C  
HETATM   33  H   UNL     2      -8.519  12.148  65.719  1.00  0.00     0.000 HD 
HETATM   34  O   UNL     2      -8.057  11.824  66.483  1.00  0.00    -0.135 OA 
BRANCH  32  35
HETATM   35  C   UNL     2      -9.376  13.421  67.717  1.00  0.00    -0.211 C  
HETATM   36  C   UNL     2     -11.680  12.626  67.047  1.00  0.00    -0.438 C  
HETATM   37  C   UNL     2     -12.157  14.031  67.456  1.00  0.00    -0.361 C  
HETATM   38  C   UNL     2     -11.060  15.061  67.145  1.00  0.00    -0.332 C  
HETATM   39  C   UNL     2     -10.441  12.309  67.905  1.00  0.00    -0.227 C  
HETATM   40  N   UNL     2      -9.820  14.404  66.668  1.00  0.00    -0.269 NA 
HETATM   41  C   UNL     2     -10.158  13.735  65.383  1.00  0.00    -0.286 C  
HETATM   42  C   UNL     2     -11.222  12.622  65.566  1.00  0.00    -0.337 C  
BRANCH  42  43
HETATM   43  C   UNL     2     -12.378  12.796  64.608  1.00  0.00    -0.524 C  
HETATM   44  C   UNL     2     -12.489  12.169  63.430  1.00  0.00    -0.625 C  
ENDBRANCH  42  43
ENDBRANCH  32  35
ENDBRANCH  29  32
ENDBRANCH   4  22
TORSDOF 6
ENDMDL
MODEL       23
REMARK 921   NORMALIZED FREE ENERGY PREDICTED BY IDOCK:   -5.85 KCAL/MOL
REMARK 922        TOTAL FREE ENERGY PREDICTED BY IDOCK:  -10.97 KCAL/MOL
REMARK 923 INTER-LIGAND FREE ENERGY PREDICTED BY IDOCK:   -9.25 KCAL/MOL
REMARK 924 INTRA-LIGAND FREE ENERGY PREDICTED BY IDOCK:   -1.72 KCAL/MOL
REMARK 927      BINDING AFFINITY PREDICTED BY RF-SCORE:    0.00 PKD
ROOT
HETATM    1  C   UNL     1      -6.955   6.215  66.292  1.00  0.00    -0.066 C  
HETATM    2  C   UNL     1      -7.362   5.727  67.681  1.00  0.00    -0.077 C  
HETATM    3  C   UNL     2      -7.527   9.630  66.497  1.00  0.00    -0.094 C  
HETATM    4  O   UNL     2      -7.503   8.875  67.697  1.00  0.00    -0.090 OA 
ENDROOT
BRANCH   2   5
HETATM    5  C   UNL     1      -8.787   5.093  67.823  1.00  0.00    -0.106 C  
HETATM    6  O   UNL     1      -8.122   2.719  67.767  1.00  0.00    -0.069 OA 
HETATM    7  C   UNL     1      -9.663   5.980  66.921  1.00  0.00    -0.148 C  
HETATM    8  C   UNL     1      -8.757   3.649  67.262  1.00  0.00    -0.115 C  
HETATM    9  H   UNL     1      -9.798   2.434  65.979  1.00  0.00     0.000 HD 
HETATM   10  N   UNL     1      -9.697   5.628  65.601  1.00  0.00    -0.368 N  
HETATM   11  O   UNL     1     -10.239   6.995  67.294  1.00  0.00    -0.185 OA 
HETATM   12  O   UNL     1     -10.607   4.055  64.274  1.00  0.00    -0.242 OA 
HETATM   13  N   UNL     1      -9.530   3.402  66.157  1.00  0.00    -0.150 N  
HETATM   14  C   UNL     1      -9.967   4.342  65.283  1.00  0.00    -0.219 C  
HETATM   15  H   UNL     1      -9.522   6.320  64.871  1.00  0.00     0.000 HD 
BRANCH   5  16
HETATM   16  C   UNL     1      -9.264   5.107  69.291  1.00  0.00    -0.151 A  
HETATM   17  C   UNL     1      -8.757   5.227  71.674  1.00  0.00    -0.140 A  
HETATM   18  C   UNL     1      -8.369   4.935  70.364  1.00  0.00    -0.093 A  
HETATM   19  C   UNL     1     -10.600   5.410  69.605  1.00  0.00    -0.328 A  
HETATM   20  C   UNL     1     -10.051   5.661  71.940  1.00  0.00    -0.235 A  
HETATM   21  C   UNL     1     -10.982   5.720  70.910  1.00  0.00    -0.305 A  
ENDBRANCH   5  16
ENDBRANCH   2   5
BRANCH   4  22
HETATM   22  C   UNL     2      -8.462   9.161  68.618  1.00  0.00    -0.127 A  
HETATM   23  C   UNL     2      -8.633   8.554  69.846  1.00  0.00    -0.131 A  
HETATM   24  C   UNL     2     -10.376  10.652  69.055  1.00  0.00    -0.237 A  
HETATM   25  C   UNL     2     -12.296  12.007  69.631  1.00  0.00    -0.083 A  
HETATM   26  C   UNL     2      -9.671   8.988  70.674  1.00  0.00    -0.287 A  
HETATM   27  C   UNL     2     -12.375  11.294  70.815  1.00  0.00    -0.398 A  
HETATM   28  C   UNL     2      -9.275  10.235  68.274  1.00  0.00    -0.139 A  
HETATM   29  C   UNL     2     -11.295  11.694  68.698  1.00  0.00    -0.326 A  
HETATM   30  C   UNL     2     -10.560   9.988  70.293  1.00  0.00    -0.295 A  
HETATM   31  N   UNL     2     -11.540  10.295  71.149  1.00  0.00    -0.343 NA 
BRANCH  29  32
HETATM   32  C   UNL     2     -11.165  12.534  67.411  1.00  0.00    -0.293 C  
HETATM   33  H   UNL     2     -12.069  12.679  65.652  1.00  0.00     0.000 HD 
HETATM   34  O   UNL     2     -12.150  12.161  66.445  1.00  0.00    -0.630 OA 
BRANCH  32  35
HETATM   35  C   UNL     2     -11.251  14.097  67.567  1.00  0.00    -0.306 C  
HETATM   36  C   UNL     2      -9.980  16.001  66.496  1.00  0.00    -0.293 C  
HETATM   37  C   UNL     2     -10.617  16.885  67.583  1.00  0.00    -0.325 C  
HETATM   38  C   UNL     2     -10.781  16.074  68.878  1.00  0.00    -0.275 C  
HETATM   39  C   UNL     2     -10.956  14.839  66.237  1.00  0.00    -0.330 C  
HETATM   40  N   UNL     2     -10.406  14.654  68.680  1.00  0.00    -0.239 NA 
HETATM   41  C   UNL     2      -8.957  14.639  68.344  1.00  0.00    -0.180 C  
HETATM   42  C   UNL     2      -8.658  15.379  67.014  1.00  0.00    -0.262 C  
BRANCH  42  43
HETATM   43  C   UNL     2      -7.568  16.411  67.187  1.00  0.00    -0.224 C  
HETATM   44  C   UNL     2      -7.267  17.356  66.287  1.00  0.00    -0.346 C  
ENDBRANCH  42  43
ENDBRANCH  32  35
ENDBRANCH  29  32
ENDBRANCH   4  22
TORSDOF 6
ENDMDL
MODEL       24
REMARK 921   NORMALIZED FREE ENERGY PREDICTED BY IDOCK:   -5.85 KCAL/MOL
REMARK 922        TOTAL FREE ENERGY PREDICTED BY IDOCK:  -10.97 KCAL/MOL
REMARK 923 INTER-LIGAND FREE ENERGY PREDICTED BY IDOCK:   -9.36 KCAL/MOL
REMARK 924 INTRA-LIGAND FREE ENERGY PREDICTED BY IDOCK:   -1.62 KCAL/MOL
REMARK 927      BINDING AFFINITY PREDICTED BY RF-SCORE:    0.00 PKD
ROOT
HETATM    1  C   UNL     1      -9.940   8.890  71.668  1.00  0.00    -0.397 C  
HETATM    2  C   UNL     1      -9.484   7.843  70.653  1.00  0.00    -0.162 C  
HETATM    3  C   UNL     2     -11.658  11.162  69.689  1.00  0.00    -0.326 C  
HETATM    4  O   UNL     2     -11.346   9.890  69.144  1.00  0.00    -0.158 OA 
ENDROOT
BRANCH   2   5
HETATM    5  C   UNL     1      -8.005   7.940  70.147  1.00  0.00    -0.107 C  
HETATM    6  O   UNL     1      -8.126   6.220  68.384  1.00  0.00    -0.110 OA 
HETATM    7  C   UNL     1      -7.193   8.085  71.445  1.00  0.00    -0.068 C  
HETATM    8  C   UNL     1      -7.626   6.614  69.441  1.00  0.00    -0.096 C  
HETATM    9  H   UNL     1      -6.137   5.203  69.431  1.00  0.00     0.000 HD 
HETATM   10  N   UNL     1      -6.850   6.914  72.062  1.00  0.00    -0.058 N  
HETATM   11  O   UNL     1      -6.924   9.154  71.981  1.00  0.00    -0.308 OA 
HETATM   12  O   UNL     1      -5.403   5.209  71.807  1.00  0.00    -0.005 OA 
HETATM   13  N   UNL     1      -6.633   5.869  70.023  1.00  0.00    -0.045 N  
HETATM   14  C   UNL     1      -6.258   5.947  71.324  1.00  0.00    -0.039 C  
HETATM   15  H   UNL     1      -7.036   6.772  73.055  1.00  0.00     0.000 HD 
BRANCH   5  16
HETATM   16  C   UNL     1      -7.812   9.146  69.203  1.00  0.00    -0.092 A  
HETATM   17  C   UNL     1      -7.695  11.557  68.857  1.00  0.00    -0.088 A  
HETATM   18  C   UNL     1      -8.130  10.457  69.601  1.00  0.00    -0.116 A  
HETATM   19  C   UNL     1      -7.199   8.980  67.949  1.00  0.00    -0.080 A  
HETATM   20  C   UNL     1      -6.967  11.366  67.688  1.00  0.00    -0.081 A  
HETATM   21  C   UNL     1      -6.748  10.078  67.216  1.00  0.00    -0.074 A  
ENDBRANCH   5  16
ENDBRANCH   2   5
BRANCH   4  22
HETATM   22  C   UNL     2     -10.893   9.869  67.862  1.00  0.00    -0.258 A  
HETATM   23  C   UNL     2     -10.439   8.768  67.165  1.00  0.00    -0.354 A  
HETATM   24  C   UNL     2     -10.517  11.307  65.894  1.00  0.00    -0.314 A  
HETATM   25  C   UNL     2     -10.055  12.573  63.885  1.00  0.00    -0.308 A  
HETATM   26  C   UNL     2     -10.022   8.931  65.842  1.00  0.00    -0.099 A  
HETATM   27  C   UNL     2      -9.594  11.398  63.315  1.00  0.00    -0.357 A  
HETATM   28  C   UNL     2     -10.995  11.092  67.206  1.00  0.00    -0.356 A  
HETATM   29  C   UNL     2     -10.519  12.567  65.210  1.00  0.00    -0.313 A  
HETATM   30  C   UNL     2     -10.016  10.171  65.210  1.00  0.00    -0.311 A  
HETATM   31  N   UNL     2      -9.558  10.216  63.955  1.00  0.00    -0.284 NA 
BRANCH  29  32
HETATM   32  C   UNL     2     -11.096  13.860  65.819  1.00  0.00    -0.294 C  
HETATM   33  H   UNL     2     -12.881  14.640  66.196  1.00  0.00     0.000 HD 
HETATM   34  O   UNL     2     -12.526  13.843  65.821  1.00  0.00    -0.457 OA 
BRANCH  32  35
HETATM   35  C   UNL     2     -10.646  14.224  67.282  1.00  0.00    -0.278 C  
HETATM   36  C   UNL     2     -11.185  16.162  68.812  1.00  0.00    -0.365 C  
HETATM   37  C   UNL     2     -10.017  15.654  69.676  1.00  0.00    -0.290 C  
HETATM   38  C   UNL     2      -8.930  15.050  68.774  1.00  0.00    -0.196 C  
HETATM   39  C   UNL     2     -11.766  14.936  68.084  1.00  0.00    -0.344 C  
HETATM   40  N   UNL     2      -9.365  15.008  67.357  1.00  0.00    -0.198 NA 
HETATM   41  C   UNL     2      -9.546  16.419  66.925  1.00  0.00    -0.244 C  
HETATM   42  C   UNL     2     -10.666  17.136  67.723  1.00  0.00    -0.329 C  
BRANCH  42  43
HETATM   43  C   UNL     2     -10.182  18.443  68.307  1.00  0.00    -0.412 C  
HETATM   44  C   UNL     2     -10.375  19.643  67.744  1.00  0.00    -0.586 C  
ENDBRANCH  42  43
ENDBRANCH  32  35
ENDBRANCH  29  32
ENDBRANCH   4  22
TORSDOF 6
ENDMDL
MODEL       25
REMARK 921   NORMALIZED FREE ENERGY PREDICTED BY IDOCK:   -5.84 KCAL/MOL
REMARK 922        TOTAL FREE ENERGY PREDICTED BY IDOCK:  -10.97 KCAL/MOL
REMARK 923 INTER-LIGAND FREE ENERGY PREDICTED BY IDOCK:   -8.91 KCAL/MOL
REMARK 924 INTRA-LIGAND FREE ENERGY PREDICTED BY IDOCK:   -2.06 KCAL/MOL
REMARK 927      BINDING AFFINITY PREDICTED BY RF-SCORE:    0.00 PKD
ROOT
HETATM    1  C   UNL     1      -5.716   7.874  68.049  1.00  0.00    -0.033 C  
HETATM    2  C   UNL     1      -6.725   6.791  68.425  1.00  0.00    -0.065 C  
HETATM    3  C   UNL     2      -6.399  10.375  70.352  1.00  0.00    -0.127 C  
HETATM    4  O   UNL     2      -6.933   9.081  70.579  1.00  0.00    -0.052 OA 
ENDROOT
BRANCH   2   5
HETATM    5  C   UNL     1      -8.030   6.703  67.561  1.00  0.00    -0.115 C  
HETATM    6  O   UNL     1      -9.658   6.529  69.404  1.00  0.00    -0.144 OA 
HETATM    7  C   UNL     1      -7.626   5.777  66.401  1.00  0.00    -0.091 C  
HETATM    8  C   UNL     1      -9.145   6.030  68.399  1.00  0.00    -0.112 C  
HETATM    9  H   UNL     1     -10.537   4.530  68.257  1.00  0.00     0.000 HD 
HETATM   10  N   UNL     1      -7.756   4.438  66.640  1.00  0.00    -0.093 N  
HETATM   11  O   UNL     1      -7.131   6.160  65.347  1.00  0.00    -0.061 OA 
HETATM   12  O   UNL     1      -9.373   2.881  66.803  1.00  0.00    -0.148 OA 
HETATM   13  N   UNL     1      -9.609   4.821  67.949  1.00  0.00    -0.147 N  
HETATM   14  C   UNL     1      -8.933   3.982  67.126  1.00  0.00    -0.133 C  
HETATM   15  H   UNL     1      -6.984   3.797  66.456  1.00  0.00     0.000 HD 
BRANCH   5  16
HETATM   16  C   UNL     1      -8.471   8.096  67.066  1.00  0.00    -0.120 A  
HETATM   17  C   UNL     1      -7.910  10.370  66.385  1.00  0.00    -0.128 A  
HETATM   18  C   UNL     1      -7.599   9.201  67.084  1.00  0.00    -0.091 A  
HETATM   19  C   UNL     1      -9.732   8.276  66.472  1.00  0.00    -0.323 A  
HETATM   20  C   UNL     1      -9.108  10.469  65.686  1.00  0.00    -0.209 A  
HETATM   21  C   UNL     1     -10.034   9.435  65.758  1.00  0.00    -0.278 A  
ENDBRANCH   5  16
ENDBRANCH   2   5
BRANCH   4  22
HETATM   22  C   UNL     2      -8.223   9.020  71.008  1.00  0.00    -0.176 A  
HETATM   23  C   UNL     2      -8.694   8.333  72.109  1.00  0.00    -0.259 A  
HETATM   24  C   UNL     2     -10.495   9.838  70.508  1.00  0.00    -0.366 A  
HETATM   25  C   UNL     2     -12.788  10.518  70.144  1.00  0.00    -0.122 A  
HETATM   26  C   UNL     2     -10.058   8.393  72.408  1.00  0.00    -0.386 A  
HETATM   27  C   UNL     2     -13.131   9.760  71.251  1.00  0.00    -0.381 A  
HETATM   28  C   UNL     2      -9.101   9.811  70.275  1.00  0.00    -0.208 A  
HETATM   29  C   UNL     2     -11.449  10.566  69.725  1.00  0.00    -0.365 A  
HETATM   30  C   UNL     2     -10.965   9.092  71.618  1.00  0.00    -0.374 A  
HETATM   31  N   UNL     2     -12.251   9.047  71.977  1.00  0.00    -0.369 NA 
BRANCH  29  32
HETATM   32  C   UNL     2     -11.058  11.465  68.534  1.00  0.00    -0.235 C  
HETATM   33  H   UNL     2     -11.862  12.077  66.827  1.00  0.00     0.000 HD 
HETATM   34  O   UNL     2     -12.103  11.523  67.561  1.00  0.00    -0.614 OA 
BRANCH  32  35
HETATM   35  C   UNL     2     -10.661  12.952  68.862  1.00  0.00    -0.123 C  
HETATM   36  C   UNL     2     -11.228  15.160  67.772  1.00  0.00    -0.327 C  
HETATM   37  C   UNL     2     -10.104  15.748  68.643  1.00  0.00    -0.211 C  
HETATM   38  C   UNL     2      -8.992  14.703  68.826  1.00  0.00    -0.173 C  
HETATM   39  C   UNL     2     -11.800  13.952  68.536  1.00  0.00    -0.401 C  
HETATM   40  N   UNL     2      -9.371  13.399  68.231  1.00  0.00    -0.212 NA 
HETATM   41  C   UNL     2      -9.512  13.624  66.767  1.00  0.00    -0.270 C  
HETATM   42  C   UNL     2     -10.652  14.623  66.437  1.00  0.00    -0.301 C  
BRANCH  42  43
HETATM   43  C   UNL     2     -10.170  15.734  65.532  1.00  0.00    -0.407 C  
HETATM   44  C   UNL     2     -10.757  16.934  65.425  1.00  0.00    -0.161 C  
ENDBRANCH  42  43
ENDBRANCH  32  35
ENDBRANCH  29  32
ENDBRANCH   4  22
TORSDOF 6
ENDMDL
MODEL       26
REMARK 921   NORMALIZED FREE ENERGY PREDICTED BY IDOCK:   -5.79 KCAL/MOL
REMARK 922        TOTAL FREE ENERGY PREDICTED BY IDOCK:  -10.90 KCAL/MOL
REMARK 923 INTER-LIGAND FREE ENERGY PREDICTED BY IDOCK:   -9.96 KCAL/MOL
REMARK 924 INTRA-LIGAND FREE ENERGY PREDICTED BY IDOCK:   -0.94 KCAL/MOL
REMARK 927      BINDING AFFINITY PREDICTED BY RF-SCORE:    0.00 PKD
ROOT
HETATM    1  C   UNL     1     -10.779   8.840  71.780  1.00  0.00    -0.413 C  
HETATM    2  C   UNL     1     -10.643   7.762  70.708  1.00  0.00    -0.220 C  
HETATM    3  C   UNL     2     -11.580  11.657  69.921  1.00  0.00    -0.288 C  
HETATM    4  O   UNL     2     -11.672  10.386  69.299  1.00  0.00    -0.222 OA 
ENDROOT
BRANCH   2   5
HETATM    5  C   UNL     1      -9.191   7.399  70.243  1.00  0.00    -0.154 C  
HETATM    6  O   UNL     1      -8.823   5.463  71.725  1.00  0.00    -0.134 OA 
HETATM    7  C   UNL     1      -8.513   8.772  70.089  1.00  0.00    -0.137 C  
HETATM    8  C   UNL     1      -8.488   6.594  71.365  1.00  0.00    -0.124 C  
HETATM    9  H   UNL     1      -6.730   6.567  72.421  1.00  0.00     0.000 HD 
HETATM   10  N   UNL     1      -7.963   9.290  71.228  1.00  0.00    -0.013 N  
HETATM   11  O   UNL     1      -8.517   9.437  69.061  1.00  0.00    -0.122 OA 
HETATM   12  O   UNL     1      -6.166   8.986  72.549  1.00  0.00    -0.222 OA 
HETATM   13  N   UNL     1      -7.395   7.180  71.951  1.00  0.00    -0.080 N  
HETATM   14  C   UNL     1      -7.129   8.509  71.953  1.00  0.00    -0.089 C  
HETATM   15  H   UNL     1      -8.175  10.243  71.525  1.00  0.00     0.000 HD 
BRANCH   5  16
HETATM   16  C   UNL     1      -9.207   6.608  68.919  1.00  0.00    -0.130 A  
HETATM   17  C   UNL     1     -10.439   5.391  67.201  1.00  0.00    -0.298 A  
HETATM   18  C   UNL     1     -10.331   5.866  68.511  1.00  0.00    -0.268 A  
HETATM   19  C   UNL     1      -8.130   6.699  68.019  1.00  0.00    -0.110 A  
HETATM   20  C   UNL     1      -9.415   5.619  66.288  1.00  0.00    -0.171 A  
HETATM   21  C   UNL     1      -8.247   6.243  66.707  1.00  0.00    -0.110 A  
ENDBRANCH   5  16
ENDBRANCH   2   5
BRANCH   4  22
HETATM   22  C   UNL     2     -11.195  10.292  68.029  1.00  0.00    -0.235 A  
HETATM   23  C   UNL     2     -10.769   9.144  67.391  1.00  0.00    -0.247 A  
HETATM   24  C   UNL     2     -10.724  11.626  66.009  1.00  0.00    -0.328 A  
HETATM   25  C   UNL     2     -10.172  12.784  63.958  1.00  0.00    -0.323 A  
HETATM   26  C   UNL     2     -10.320   9.233  66.071  1.00  0.00    -0.009 A  
HETATM   27  C   UNL     2      -9.746  11.569  63.450  1.00  0.00    -0.361 A  
HETATM   28  C   UNL     2     -11.236  11.487  67.318  1.00  0.00    -0.365 A  
HETATM   29  C   UNL     2     -10.663  12.853  65.271  1.00  0.00    -0.318 A  
HETATM   30  C   UNL     2     -10.253  10.443  65.386  1.00  0.00    -0.259 A  
HETATM   31  N   UNL     2      -9.768  10.415  64.141  1.00  0.00    -0.318 NA 
BRANCH  29  32
HETATM   32  C   UNL     2     -11.202  14.193  65.811  1.00  0.00    -0.312 C  
HETATM   33  H   UNL     2     -12.894  14.900  66.567  1.00  0.00     0.000 HD 
HETATM   34  O   UNL     2     -12.562  14.075  66.235  1.00  0.00    -0.451 OA 
BRANCH  32  35
HETATM   35  C   UNL     2     -10.413  14.854  67.001  1.00  0.00    -0.272 C  
HETATM   36  C   UNL     2     -10.852  16.890  68.432  1.00  0.00    -0.347 C  
HETATM   37  C   UNL     2      -9.397  16.729  68.905  1.00  0.00    -0.233 C  
HETATM   38  C   UNL     2      -8.537  16.181  67.755  1.00  0.00    -0.167 C  
HETATM   39  C   UNL     2     -11.358  15.485  68.056  1.00  0.00    -0.332 C  
HETATM   40  N   UNL     2      -9.365  15.844  66.573  1.00  0.00    -0.253 NA 
HETATM   41  C   UNL     2      -9.963  17.119  66.093  1.00  0.00    -0.281 C  
HETATM   42  C   UNL     2     -10.909  17.753  67.145  1.00  0.00    -0.125 C  
BRANCH  42  43
HETATM   43  C   UNL     2     -10.556  19.199  67.408  1.00  0.00    -0.577 C  
HETATM   44  C   UNL     2      -9.674  19.908  66.691  1.00  0.00    -0.542 C  
ENDBRANCH  42  43
ENDBRANCH  32  35
ENDBRANCH  29  32
ENDBRANCH   4  22
TORSDOF 6
ENDMDL
MODEL       27
REMARK 921   NORMALIZED FREE ENERGY PREDICTED BY IDOCK:   -5.79 KCAL/MOL
REMARK 922        TOTAL FREE ENERGY PREDICTED BY IDOCK:  -10.89 KCAL/MOL
REMARK 923 INTER-LIGAND FREE ENERGY PREDICTED BY IDOCK:   -8.33 KCAL/MOL
REMARK 924 INTRA-LIGAND FREE ENERGY PREDICTED BY IDOCK:   -2.56 KCAL/MOL
REMARK 927      BINDING AFFINITY PREDICTED BY RF-SCORE:    0.00 PKD
ROOT
HETATM    1  C   UNL     1      -6.278   9.195  67.502  1.00  0.00    -0.058 C  
HETATM    2  C   UNL     1      -7.206  10.100  68.308  1.00  0.00    -0.080 C  
HETATM    3  C   UNL     2      -7.295   9.785  64.239  1.00  0.00    -0.129 C  
HETATM    4  O   UNL     2      -7.725  10.677  65.254  1.00  0.00    -0.119 OA 
ENDROOT
BRANCH   2   5
HETATM    5  C   UNL     1      -8.451   9.427  68.980  1.00  0.00    -0.129 C  
HETATM    6  O   UNL     1      -7.708   9.578  71.326  1.00  0.00    -0.322 OA 
HETATM    7  C   UNL     1      -8.776   8.258  68.034  1.00  0.00    -0.135 C  
HETATM    8  C   UNL     1      -8.040   8.875  70.368  1.00  0.00    -0.128 C  
HETATM    9  H   UNL     1      -8.173   7.161  71.485  1.00  0.00     0.000 HD 
HETATM   10  N   UNL     1      -8.089   7.100  68.269  1.00  0.00    -0.123 N  
HETATM   11  O   UNL     1      -9.524   8.334  67.067  1.00  0.00    -0.155 OA 
HETATM   12  O   UNL     1      -8.067   5.395  69.737  1.00  0.00    -0.092 OA 
HETATM   13  N   UNL     1      -8.101   7.515  70.532  1.00  0.00    -0.105 N  
HETATM   14  C   UNL     1      -8.072   6.605  69.528  1.00  0.00    -0.126 C  
HETATM   15  H   UNL     1      -7.601   6.619  67.513  1.00  0.00     0.000 HD 
BRANCH   5  16
HETATM   16  C   UNL     1      -9.627  10.419  69.103  1.00  0.00    -0.226 A  
HETATM   17  C   UNL     1     -10.616  12.593  68.608  1.00  0.00    -0.245 A  
HETATM   18  C   UNL     1      -9.492  11.777  68.760  1.00  0.00    -0.037 A  
HETATM   19  C   UNL     1     -10.910   9.965  69.456  1.00  0.00    -0.274 A  
HETATM   20  C   UNL     1     -11.888  12.078  68.829  1.00  0.00    -0.358 A  
HETATM   21  C   UNL     1     -12.033  10.773  69.286  1.00  0.00    -0.334 A  
ENDBRANCH   5  16
ENDBRANCH   2   5
BRANCH   4  22
HETATM   22  C   UNL     2      -9.024  11.076  65.206  1.00  0.00    -0.163 A  
HETATM   23  C   UNL     2     -10.135  10.261  65.129  1.00  0.00    -0.355 A  
HETATM   24  C   UNL     2     -10.460  13.080  65.239  1.00  0.00    -0.318 A  
HETATM   25  C   UNL     2     -12.014  14.935  65.224  1.00  0.00    -0.168 A  
HETATM   26  C   UNL     2     -11.403  10.848  65.103  1.00  0.00     0.383 A  
HETATM   27  C   UNL     2     -13.036  14.008  65.113  1.00  0.00    -0.223 A  
HETATM   28  C   UNL     2      -9.199  12.450  65.333  1.00  0.00     0.288 A  
HETATM   29  C   UNL     2     -10.681  14.497  65.274  1.00  0.00    -0.390 A  
HETATM   30  C   UNL     2     -11.586  12.227  65.118  1.00  0.00    -0.351 A  
HETATM   31  N   UNL     2     -12.842  12.679  65.048  1.00  0.00    -0.816 NA 
BRANCH  29  32
HETATM   32  C   UNL     2      -9.549  15.526  65.468  1.00  0.00    -0.221 C  
HETATM   33  H   UNL     2      -9.333  17.497  65.441  1.00  0.00     0.000 HD 
HETATM   34  O   UNL     2     -10.031  16.863  65.322  1.00  0.00    -0.526 OA 
BRANCH  32  35
HETATM   35  C   UNL     2      -8.761  15.473  66.828  1.00  0.00    -0.267 C  
HETATM   36  C   UNL     2      -8.281  17.209  68.602  1.00  0.00    -0.255 C  
HETATM   37  C   UNL     2      -7.260  16.198  69.152  1.00  0.00    -0.212 C  
HETATM   38  C   UNL     2      -6.640  15.405  67.990  1.00  0.00    -0.147 C  
HETATM   39  C   UNL     2      -9.388  16.393  67.908  1.00  0.00    -0.214 C  
HETATM   40  N   UNL     2      -7.287  15.742  66.700  1.00  0.00    -0.134 NA 
HETATM   41  C   UNL     2      -7.000  17.178  66.441  1.00  0.00    -0.261 C  
HETATM   42  C   UNL     2      -7.626  18.102  67.518  1.00  0.00    -0.217 C  
BRANCH  42  43
HETATM   43  C   UNL     2      -6.602  19.050  68.098  1.00  0.00    -0.249 C  
HETATM   44  C   UNL     2      -6.826  19.867  69.136  1.00  0.00    -0.342 C  
ENDBRANCH  42  43
ENDBRANCH  32  35
ENDBRANCH  29  32
ENDBRANCH   4  22
TORSDOF 6
ENDMDL
MODEL       28
REMARK 921   NORMALIZED FREE ENERGY PREDICTED BY IDOCK:   -5.76 KCAL/MOL
REMARK 922        TOTAL FREE ENERGY PREDICTED BY IDOCK:  -10.86 KCAL/MOL
REMARK 923 INTER-LIGAND FREE ENERGY PREDICTED BY IDOCK:   -8.88 KCAL/MOL
REMARK 924 INTRA-LIGAND FREE ENERGY PREDICTED BY IDOCK:   -1.98 KCAL/MOL
REMARK 927      BINDING AFFINITY PREDICTED BY RF-SCORE:    0.00 PKD
ROOT
HETATM    1  C   UNL     1     -11.825  13.495  68.602  1.00  0.00    -0.404 C  
HETATM    2  C   UNL     1     -10.403  13.332  68.071  1.00  0.00    -0.243 C  
HETATM    3  C   UNL     2     -12.535  10.336  69.845  1.00  0.00     0.025 C  
HETATM    4  O   UNL     2     -11.187  10.657  69.542  1.00  0.00    -0.232 OA 
ENDROOT
BRANCH   2   5
HETATM    5  C   UNL     1     -10.239  13.106  66.529  1.00  0.00    -0.277 C  
HETATM    6  O   UNL     1      -8.699  14.974  66.064  1.00  0.00    -0.053 OA 
HETATM    7  C   UNL     1     -11.664  12.755  66.068  1.00  0.00    -0.418 C  
HETATM    8  C   UNL     1      -9.791  14.434  65.869  1.00  0.00    -0.310 C  
HETATM    9  H   UNL     1     -10.278  15.655  64.295  1.00  0.00     0.000 HD 
HETATM   10  N   UNL     1     -12.469  13.819  65.773  1.00  0.00    -0.479 N  
HETATM   11  O   UNL     1     -12.124  11.619  66.036  1.00  0.00    -0.279 OA 
HETATM   12  O   UNL     1     -12.743  15.357  64.153  1.00  0.00    -0.592 OA 
HETATM   13  N   UNL     1     -10.663  15.004  64.978  1.00  0.00    -0.409 N  
HETATM   14  C   UNL     1     -11.998  14.770  64.934  1.00  0.00    -0.358 C  
HETATM   15  H   UNL     1     -13.403  13.896  66.177  1.00  0.00     0.000 HD 
BRANCH   5  16
HETATM   16  C   UNL     1      -9.236  11.971  66.231  1.00  0.00    -0.208 A  
HETATM   17  C   UNL     1      -8.331  10.303  64.700  1.00  0.00    -0.169 A  
HETATM   18  C   UNL     1      -9.379  11.130  65.113  1.00  0.00    -0.237 A  
HETATM   19  C   UNL     1      -8.077  11.819  67.013  1.00  0.00    -0.169 A  
HETATM   20  C   UNL     1      -7.138  10.276  65.415  1.00  0.00    -0.139 A  
HETATM   21  C   UNL     1      -7.024  11.009  66.590  1.00  0.00    -0.140 A  
ENDBRANCH   5  16
ENDBRANCH   2   5
BRANCH   4  22
HETATM   22  C   UNL     2     -10.460   9.701  68.905  1.00  0.00    -0.215 A  
HETATM   23  C   UNL     2     -10.780   9.077  67.715  1.00  0.00    -0.217 A  
HETATM   24  C   UNL     2      -8.366   8.407  69.055  1.00  0.00    -0.119 A  
HETATM   25  C   UNL     2      -6.376   7.031  69.062  1.00  0.00    -0.028 A  
HETATM   26  C   UNL     2      -9.902   8.121  67.198  1.00  0.00    -0.281 A  
HETATM   27  C   UNL     2      -6.832   6.462  67.885  1.00  0.00    -0.074 A  
HETATM   28  C   UNL     2      -9.242   9.417  69.513  1.00  0.00    -0.182 A  
HETATM   29  C   UNL     2      -7.145   8.018  69.698  1.00  0.00    -0.061 A  
HETATM   30  C   UNL     2      -8.733   7.749  67.855  1.00  0.00    -0.124 A  
HETATM   31  N   UNL     2      -7.989   6.795  67.287  1.00  0.00    -0.112 NA 
BRANCH  29  32
HETATM   32  C   UNL     2      -6.604   8.700  70.971  1.00  0.00    -0.053 C  
HETATM   33  H   UNL     2      -6.769  10.453  71.884  1.00  0.00     0.000 HD 
HETATM   34  O   UNL     2      -7.103  10.033  71.100  1.00  0.00    -0.291 OA 
BRANCH  32  35
HETATM   35  C   UNL     2      -6.880   7.978  72.341  1.00  0.00    -0.079 C  
HETATM   36  C   UNL     2      -8.419   6.086  73.004  1.00  0.00    -0.119 C  
HETATM   37  C   UNL     2      -8.110   6.496  74.454  1.00  0.00    -0.126 C  
HETATM   38  C   UNL     2      -7.909   8.017  74.530  1.00  0.00    -0.240 C  
HETATM   39  C   UNL     2      -7.190   6.469  72.159  1.00  0.00    -0.086 C  
HETATM   40  N   UNL     2      -7.939   8.635  73.183  1.00  0.00    -0.405 NA 
HETATM   41  C   UNL     2      -9.306   8.409  72.641  1.00  0.00    -0.264 C  
HETATM   42  C   UNL     2      -9.619   6.901  72.457  1.00  0.00    -0.165 C  
BRANCH  42  43
HETATM   43  C   UNL     2     -10.922   6.520  73.122  1.00  0.00    -0.251 C  
HETATM   44  C   UNL     2     -11.565   5.361  72.925  1.00  0.00    -0.296 C  
ENDBRANCH  42  43
ENDBRANCH  32  35
ENDBRANCH  29  32
ENDBRANCH   4  22
TORSDOF 6
ENDMDL
MODEL       29
REMARK 921   NORMALIZED FREE ENERGY PREDICTED BY IDOCK:   -5.76 KCAL/MOL
REMARK 922        TOTAL FREE ENERGY PREDICTED BY IDOCK:  -10.86 KCAL/MOL
REMARK 923 INTER-LIGAND FREE ENERGY PREDICTED BY IDOCK:   -8.28 KCAL/MOL
REMARK 924 INTRA-LIGAND FREE ENERGY PREDICTED BY IDOCK:   -2.57 KCAL/MOL
REMARK 927      BINDING AFFINITY PREDICTED BY RF-SCORE:    0.00 PKD
ROOT
HETATM    1  C   UNL     1     -10.101   4.597  68.892  1.00  0.00    -0.103 C  
HETATM    2  C   UNL     1      -9.035   5.294  69.734  1.00  0.00    -0.138 C  
HETATM    3  C   UNL     2      -9.183   5.450  65.657  1.00  0.00    -0.114 C  
HETATM    4  O   UNL     2      -8.251   5.665  66.705  1.00  0.00    -0.105 OA 
ENDROOT
BRANCH   2   5
HETATM    5  C   UNL     1      -9.429   6.661  70.391  1.00  0.00    -0.170 C  
HETATM    6  O   UNL     1      -8.916   6.084  72.733  1.00  0.00    -0.125 OA 
HETATM    7  C   UNL     1     -10.714   7.058  69.645  1.00  0.00    -0.241 C  
HETATM    8  C   UNL     1      -9.748   6.428  71.889  1.00  0.00    -0.151 C  
HETATM    9  H   UNL     1     -11.194   6.859  73.279  1.00  0.00     0.000 HD 
HETATM   10  N   UNL     1     -11.874   6.541  70.150  1.00  0.00    -0.567 N  
HETATM   11  O   UNL     1     -10.742   7.715  68.611  1.00  0.00    -0.163 OA 
HETATM   12  O   UNL     1     -13.261   6.843  71.896  1.00  0.00    -0.307 OA 
HETATM   13  N   UNL     1     -11.037   6.671  72.289  1.00  0.00    -0.248 N  
HETATM   14  C   UNL     1     -12.119   6.681  71.473  1.00  0.00    -0.355 C  
HETATM   15  H   UNL     1     -12.540   6.062  69.544  1.00  0.00     0.000 HD 
BRANCH   5  16
HETATM   16  C   UNL     1      -8.310   7.710  70.219  1.00  0.00    -0.132 A  
HETATM   17  C   UNL     1      -7.535  10.016  70.385  1.00  0.00    -0.069 A  
HETATM   18  C   UNL     1      -8.574   9.091  70.261  1.00  0.00    -0.193 A  
HETATM   19  C   UNL     1      -6.965   7.310  70.130  1.00  0.00    -0.060 A  
HETATM   20  C   UNL     1      -6.215   9.582  70.436  1.00  0.00    -0.064 A  
HETATM   21  C   UNL     1      -5.928   8.232  70.274  1.00  0.00    -0.028 A  
ENDBRANCH   5  16
ENDBRANCH   2   5
BRANCH   4  22
HETATM   22  C   UNL     2      -7.564   6.839  66.680  1.00  0.00    -0.086 A  
HETATM   23  C   UNL     2      -6.199   6.993  66.550  1.00  0.00    -0.042 A  
HETATM   24  C   UNL     2      -7.862   9.285  66.764  1.00  0.00    -0.104 A  
HETATM   25  C   UNL     2      -7.968  11.701  66.864  1.00  0.00    -0.161 A  
HETATM   26  C   UNL     2      -5.664   8.284  66.530  1.00  0.00    -0.043 A  
HETATM   27  C   UNL     2      -6.587  11.711  66.762  1.00  0.00    -0.094 A  
HETATM   28  C   UNL     2      -8.374   7.970  66.710  1.00  0.00    -0.116 A  
HETATM   29  C   UNL     2      -8.653  10.475  66.886  1.00  0.00    -0.125 A  
HETATM   30  C   UNL     2      -6.455   9.420  66.671  1.00  0.00    -0.067 A  
HETATM   31  N   UNL     2      -5.831  10.602  66.678  1.00  0.00    -0.065 NA 
BRANCH  29  32
HETATM   32  C   UNL     2     -10.194  10.467  66.929  1.00  0.00    -0.229 C  
HETATM   33  H   UNL     2     -11.636  11.171  68.096  1.00  0.00     0.000 HD 
HETATM   34  O   UNL     2     -10.687  11.176  68.069  1.00  0.00    -0.187 OA 
BRANCH  32  35
HETATM   35  C   UNL     2     -10.948  11.045  65.675  1.00  0.00    -0.020 C  
HETATM   36  C   UNL     2     -10.441  12.953  64.097  1.00  0.00    -0.429 C  
HETATM   37  C   UNL     2     -11.890  12.781  63.608  1.00  0.00    -0.603 C  
HETATM   38  C   UNL     2     -12.782  12.343  64.780  1.00  0.00    -0.236 C  
HETATM   39  C   UNL     2      -9.971  11.573  64.592  1.00  0.00    -0.305 C  
HETATM   40  N   UNL     2     -11.984  12.085  66.002  1.00  0.00    -0.535 NA 
HETATM   41  C   UNL     2     -11.370  13.383  66.391  1.00  0.00    -0.313 C  
HETATM   42  C   UNL     2     -10.391  13.914  65.312  1.00  0.00    -0.396 C  
BRANCH  42  43
HETATM   43  C   UNL     2     -10.710  15.340  64.928  1.00  0.00    -0.423 C  
HETATM   44  C   UNL     2     -10.360  16.417  65.645  1.00  0.00    -0.371 C  
ENDBRANCH  42  43
ENDBRANCH  32  35
ENDBRANCH  29  32
ENDBRANCH   4  22
TORSDOF 6
ENDMDL
MODEL       30
REMARK 921   NORMALIZED FREE ENERGY PREDICTED BY IDOCK:   -5.76 KCAL/MOL
REMARK 922        TOTAL FREE ENERGY PREDICTED BY IDOCK:  -10.85 KCAL/MOL
REMARK 923 INTER-LIGAND FREE ENERGY PREDICTED BY IDOCK:   -9.13 KCAL/MOL
REMARK 924 INTRA-LIGAND FREE ENERGY PREDICTED BY IDOCK:   -1.73 KCAL/MOL
REMARK 927      BINDING AFFINITY PREDICTED BY RF-SCORE:    0.00 PKD
ROOT
HETATM    1  C   UNL     1     -11.301  14.331  66.060  1.00  0.00    -0.335 C  
HETATM    2  C   UNL     1     -11.891  14.590  67.445  1.00  0.00    -0.416 C  
HETATM    3  C   UNL     2     -10.907  10.885  66.039  1.00  0.00    -0.085 C  
HETATM    4  O   UNL     2     -11.714  11.468  67.049  1.00  0.00    -0.556 OA 
ENDROOT
BRANCH   2   5
HETATM    5  C   UNL     1     -10.905  15.079  68.559  1.00  0.00    -0.250 C  
HETATM    6  O   UNL     1     -11.144  17.506  68.198  1.00  0.00    -0.233 OA 
HETATM    7  C   UNL     1      -9.729  14.092  68.451  1.00  0.00    -0.226 C  
HETATM    8  C   UNL     1     -10.419  16.508  68.212  1.00  0.00    -0.313 C  
HETATM    9  H   UNL     1      -8.682  17.589  68.059  1.00  0.00     0.000 HD 
HETATM   10  N   UNL     1      -8.769  14.415  67.534  1.00  0.00    -0.185 N  
HETATM   11  O   UNL     1      -9.655  13.031  69.059  1.00  0.00     0.150 OA 
HETATM   12  O   UNL     1      -7.067  15.866  67.280  1.00  0.00    -0.174 OA 
HETATM   13  N   UNL     1      -9.080  16.657  67.951  1.00  0.00    -0.216 N  
HETATM   14  C   UNL     1      -8.246  15.662  67.561  1.00  0.00    -0.166 C  
HETATM   15  H   UNL     1      -8.454  13.732  66.844  1.00  0.00     0.000 HD 
BRANCH   5  16
HETATM   16  C   UNL     1     -11.568  15.042  69.952  1.00  0.00    -0.328 A  
HETATM   17  C   UNL     1     -11.620  15.751  72.285  1.00  0.00    -0.522 A  
HETATM   18  C   UNL     1     -10.916  15.532  71.098  1.00  0.00    -0.275 A  
HETATM   19  C   UNL     1     -12.901  14.618  70.097  1.00  0.00    -0.180 A  
HETATM   20  C   UNL     1     -12.976  15.452  72.359  1.00  0.00    -0.495 A  
HETATM   21  C   UNL     1     -13.608  14.854  71.275  1.00  0.00    -0.504 A  
ENDBRANCH   5  16
ENDBRANCH   2   5
BRANCH   4  22
HETATM   22  C   UNL     2     -11.561  10.981  68.310  1.00  0.00    -0.284 A  
HETATM   23  C   UNL     2     -12.364  11.247  69.400  1.00  0.00    -0.216 A  
HETATM   24  C   UNL     2     -10.149   9.490  69.676  1.00  0.00    -0.228 A  
HETATM   25  C   UNL     2      -8.853   8.095  71.168  1.00  0.00    -0.171 A  
HETATM   26  C   UNL     2     -12.063  10.644  70.624  1.00  0.00    -0.461 A  
HETATM   27  C   UNL     2      -9.717   8.472  72.182  1.00  0.00    -0.317 A  
HETATM   28  C   UNL     2     -10.524  10.063  68.440  1.00  0.00    -0.235 A  
HETATM   29  C   UNL     2      -9.035   8.611  69.875  1.00  0.00    -0.149 A  
HETATM   30  C   UNL     2     -10.962   9.809  70.792  1.00  0.00    -0.336 A  
HETATM   31  N   UNL     2     -10.747   9.320  72.017  1.00  0.00    -0.178 NA 
BRANCH  29  32
HETATM   32  C   UNL     2      -8.115   8.136  68.731  1.00  0.00    -0.120 C  
HETATM   33  H   UNL     2      -6.207   7.656  68.482  1.00  0.00     0.000 HD 
HETATM   34  O   UNL     2      -6.773   7.948  69.186  1.00  0.00    -0.046 OA 
BRANCH  32  35
HETATM   35  C   UNL     2      -8.530   6.816  67.983  1.00  0.00    -0.120 C  
HETATM   36  C   UNL     2      -7.516   5.553  66.042  1.00  0.00    -0.082 C  
HETATM   37  C   UNL     2      -8.842   4.773  66.007  1.00  0.00    -0.123 C  
HETATM   38  C   UNL     2      -9.997   5.699  66.418  1.00  0.00    -0.152 C  
HETATM   39  C   UNL     2      -7.301   6.002  67.499  1.00  0.00    -0.077 C  
HETATM   40  N   UNL     2      -9.500   7.025  66.853  1.00  0.00    -0.153 NA 
HETATM   41  C   UNL     2      -8.852   7.647  65.667  1.00  0.00    -0.050 C  
HETATM   42  C   UNL     2      -7.622   6.837  65.181  1.00  0.00    -0.098 C  
BRANCH  42  43
HETATM   43  C   UNL     2      -7.709   6.531  63.703  1.00  0.00    -0.114 C  
HETATM   44  C   UNL     2      -7.528   7.433  62.729  1.00  0.00    -0.105 C  
ENDBRANCH  42  43
ENDBRANCH  32  35
ENDBRANCH  29  32
ENDBRANCH   4  22
TORSDOF 6
ENDMDL
MODEL       31
REMARK 921   NORMALIZED FREE ENERGY PREDICTED BY IDOCK:   -5.73 KCAL/MOL
REMARK 922        TOTAL FREE ENERGY PREDICTED BY IDOCK:  -10.82 KCAL/MOL
REMARK 923 INTER-LIGAND FREE ENERGY PREDICTED BY IDOCK:  -11.36 KCAL/MOL
REMARK 924 INTRA-LIGAND FREE ENERGY PREDICTED BY IDOCK:    0.55 KCAL/MOL
REMARK 927      BINDING AFFINITY PREDICTED BY RF-SCORE:    0.00 PKD
ROOT
HETATM    1  C   UNL     1      -7.635   9.246  70.406  1.00  0.00    -0.132 C  
HETATM    2  C   UNL     1      -9.089   9.683  70.248  1.00  0.00    -0.272 C  
HETATM    3  C   UNL     2      -6.183  10.370  67.464  1.00  0.00    -0.057 C  
HETATM    4  O   UNL     2      -7.467  10.859  67.816  1.00  0.00    -0.091 OA 
ENDROOT
BRANCH   2   5
HETATM    5  C   UNL     1     -10.113   8.595  69.776  1.00  0.00    -0.199 C  
HETATM    6  O   UNL     1      -9.290   6.720  71.150  1.00  0.00    -0.159 OA 
HETATM    7  C   UNL     1     -10.222   8.843  68.262  1.00  0.00    -0.201 C  
HETATM    8  C   UNL     1      -9.510   7.191  70.031  1.00  0.00    -0.164 C  
HETATM    9  H   UNL     1      -9.195   5.411  69.062  1.00  0.00     0.000 HD 
HETATM   10  N   UNL     1      -9.283   8.217  67.491  1.00  0.00    -0.136 N  
HETATM   11  O   UNL     1     -11.022   9.610  67.739  1.00  0.00    -0.260 OA 
HETATM   12  O   UNL     1      -8.797   6.158  66.724  1.00  0.00    -0.117 OA 
HETATM   13  N   UNL     1      -9.257   6.419  68.926  1.00  0.00    -0.128 N  
HETATM   14  C   UNL     1      -9.084   6.891  67.667  1.00  0.00    -0.118 C  
HETATM   15  H   UNL     1      -8.744   8.738  66.799  1.00  0.00     0.000 HD 
BRANCH   5  16
HETATM   16  C   UNL     1     -11.471   8.754  70.491  1.00  0.00    -0.222 A  
HETATM   17  C   UNL     1     -13.253   7.821  71.870  1.00  0.00    -0.300 A  
HETATM   18  C   UNL     1     -12.181   7.647  70.991  1.00  0.00    -0.261 A  
HETATM   19  C   UNL     1     -11.988  10.033  70.765  1.00  0.00    -0.426 A  
HETATM   20  C   UNL     1     -13.656   9.101  72.237  1.00  0.00    -0.548 A  
HETATM   21  C   UNL     1     -13.045  10.206  71.658  1.00  0.00    -0.550 A  
ENDBRANCH   5  16
ENDBRANCH   2   5
BRANCH   4  22
HETATM   22  C   UNL     2      -8.384  10.945  66.814  1.00  0.00    -0.138 A  
HETATM   23  C   UNL     2      -8.436  10.167  65.676  1.00  0.00    -0.159 A  
HETATM   24  C   UNL     2     -10.405  12.168  66.108  1.00  0.00    -0.264 A  
HETATM   25  C   UNL     2     -12.370  13.286  65.247  1.00  0.00    -0.525 A  
HETATM   26  C   UNL     2      -9.463  10.387  64.754  1.00  0.00    -0.329 A  
HETATM   27  C   UNL     2     -12.287  12.461  64.138  1.00  0.00    -0.467 A  
HETATM   28  C   UNL     2      -9.394  11.871  67.050  1.00  0.00    -0.188 A  
HETATM   29  C   UNL     2     -11.413  13.175  66.268  1.00  0.00    -0.372 A  
HETATM   30  C   UNL     2     -10.417  11.386  64.926  1.00  0.00    -0.305 A  
HETATM   31  N   UNL     2     -11.330  11.534  63.961  1.00  0.00    -0.347 NA 
BRANCH  29  32
HETATM   32  C   UNL     2     -11.547  14.046  67.533  1.00  0.00    -0.367 C  
HETATM   33  H   UNL     2     -12.025  13.802  69.443  1.00  0.00     0.000 HD 
HETATM   34  O   UNL     2     -11.942  13.265  68.663  1.00  0.00    -0.339 OA 
BRANCH  32  35
HETATM   35  C   UNL     2     -10.280  14.869  67.972  1.00  0.00    -0.228 C  
HETATM   36  C   UNL     2      -9.983  17.208  68.884  1.00  0.00    -0.304 C  
HETATM   37  C   UNL     2      -8.486  17.006  68.596  1.00  0.00    -0.262 C  
HETATM   38  C   UNL     2      -8.313  16.129  67.346  1.00  0.00    -0.171 C  
HETATM   39  C   UNL     2     -10.576  15.814  69.166  1.00  0.00    -0.242 C  
HETATM   40  N   UNL     2      -9.617  15.625  66.854  1.00  0.00    -0.225 NA 
HETATM   41  C   UNL     2     -10.405  16.816  66.438  1.00  0.00    -0.306 C  
HETATM   42  C   UNL     2     -10.704  17.763  67.629  1.00  0.00    -0.330 C  
BRANCH  42  43
HETATM   43  C   UNL     2     -10.301  19.187  67.320  1.00  0.00    -0.523 C  
HETATM   44  C   UNL     2     -10.338  19.739  66.100  1.00  0.00    -0.627 C  
ENDBRANCH  42  43
ENDBRANCH  32  35
ENDBRANCH  29  32
ENDBRANCH   4  22
TORSDOF 6
ENDMDL
MODEL       32
REMARK 921   NORMALIZED FREE ENERGY PREDICTED BY IDOCK:   -5.70 KCAL/MOL
REMARK 922        TOTAL FREE ENERGY PREDICTED BY IDOCK:  -10.77 KCAL/MOL
REMARK 923 INTER-LIGAND FREE ENERGY PREDICTED BY IDOCK:   -8.97 KCAL/MOL
REMARK 924 INTRA-LIGAND FREE ENERGY PREDICTED BY IDOCK:   -1.80 KCAL/MOL
REMARK 927      BINDING AFFINITY PREDICTED BY RF-SCORE:    0.00 PKD
ROOT
HETATM    1  C   UNL     1     -10.097  11.851  63.797  1.00  0.00    -0.423 C  
HETATM    2  C   UNL     1     -11.154  11.700  64.889  1.00  0.00    -0.317 C  
HETATM    3  C   UNL     2      -7.408  10.090  65.101  1.00  0.00    -0.139 C  
HETATM    4  O   UNL     2      -8.683   9.919  65.698  1.00  0.00    -0.140 OA 
ENDROOT
BRANCH   2   5
HETATM    5  C   UNL     1     -11.336  12.903  65.875  1.00  0.00    -0.348 C  
HETATM    6  O   UNL     1     -13.752  13.265  65.545  1.00  0.00    -0.033 OA 
HETATM    7  C   UNL     1     -10.083  13.760  65.626  1.00  0.00    -0.298 C  
HETATM    8  C   UNL     1     -12.601  13.701  65.471  1.00  0.00    -0.496 C  
HETATM    9  H   UNL     1     -13.200  15.629  65.109  1.00  0.00     0.000 HD 
HETATM   10  N   UNL     1     -10.175  14.657  64.598  1.00  0.00    -0.512 N  
HETATM   11  O   UNL     1      -9.019  13.625  66.220  1.00  0.00    -0.056 OA 
HETATM   12  O   UNL     1     -11.143  16.636  64.140  1.00  0.00    -1.005 OA 
HETATM   13  N   UNL     1     -12.406  14.991  65.050  1.00  0.00    -0.102 N  
HETATM   14  C   UNL     1     -11.242  15.486  64.562  1.00  0.00    -0.315 C  
HETATM   15  H   UNL     1      -9.456  14.700  63.876  1.00  0.00     0.000 HD 
BRANCH   5  16
HETATM   16  C   UNL     1     -11.428  12.421  67.338  1.00  0.00    -0.418 A  
HETATM   17  C   UNL     1     -11.543  12.921  69.722  1.00  0.00    -0.288 A  
HETATM   18  C   UNL     1     -11.188  13.286  68.421  1.00  0.00    -0.314 A  
HETATM   19  C   UNL     1     -11.870  11.120  67.635  1.00  0.00    -0.025 A  
HETATM   20  C   UNL     1     -12.111  11.676  69.969  1.00  0.00    -0.395 A  
HETATM   21  C   UNL     1     -12.243  10.762  68.930  1.00  0.00     0.035 A  
ENDBRANCH   5  16
ENDBRANCH   2   5
BRANCH   4  22
HETATM   22  C   UNL     2      -8.722   9.894  67.058  1.00  0.00    -0.131 A  
HETATM   23  C   UNL     2      -8.177  10.827  67.916  1.00  0.00    -0.113 A  
HETATM   24  C   UNL     2      -9.579   8.592  68.968  1.00  0.00    -0.167 A  
HETATM   25  C   UNL     2     -10.314   7.423  70.955  1.00  0.00    -0.201 A  
HETATM   26  C   UNL     2      -8.326  10.645  69.294  1.00  0.00    -0.112 A  
HETATM   27  C   UNL     2      -9.693   8.411  71.700  1.00  0.00    -0.219 A  
HETATM   28  C   UNL     2      -9.468   8.844  67.583  1.00  0.00    -0.164 A  
HETATM   29  C   UNL     2     -10.261   7.474  69.553  1.00  0.00    -0.207 A  
HETATM   30  C   UNL     2      -8.976   9.539  69.833  1.00  0.00    -0.212 A  
HETATM   31  N   UNL     2      -9.024   9.447  71.166  1.00  0.00    -0.270 NA 
BRANCH  29  32
HETATM   32  C   UNL     2     -11.011   6.412  68.725  1.00  0.00    -0.334 C  
HETATM   33  H   UNL     2     -11.688   6.200  66.873  1.00  0.00     0.000 HD 
HETATM   34  O   UNL     2     -11.225   6.854  67.383  1.00  0.00    -0.280 OA 
BRANCH  32  35
HETATM   35  C   UNL     2     -10.356   4.985  68.633  1.00  0.00    -0.028 C  
HETATM   36  C   UNL     2      -8.246   3.997  69.614  1.00  0.00    -0.069 C  
HETATM   37  C   UNL     2      -8.477   2.830  68.638  1.00  0.00    -0.095 C  
HETATM   38  C   UNL     2      -9.116   3.356  67.344  1.00  0.00    -0.172 C  
HETATM   39  C   UNL     2      -9.632   4.583  69.944  1.00  0.00    -0.269 C  
HETATM   40  N   UNL     2      -9.446   4.797  67.450  1.00  0.00    -0.138 NA 
HETATM   41  C   UNL     2      -8.157   5.519  67.616  1.00  0.00    -0.101 C  
HETATM   42  C   UNL     2      -7.429   5.121  68.927  1.00  0.00    -0.069 C  
BRANCH  42  43
HETATM   43  C   UNL     2      -5.998   4.711  68.664  1.00  0.00    -0.026 C  
HETATM   44  C   UNL     2      -5.136   4.314  69.610  1.00  0.00     0.000 C  
ENDBRANCH  42  43
ENDBRANCH  32  35
ENDBRANCH  29  32
ENDBRANCH   4  22
TORSDOF 6
ENDMDL
MODEL       33
REMARK 921   NORMALIZED FREE ENERGY PREDICTED BY IDOCK:   -5.67 KCAL/MOL
REMARK 922        TOTAL FREE ENERGY PREDICTED BY IDOCK:  -10.74 KCAL/MOL
REMARK 923 INTER-LIGAND FREE ENERGY PREDICTED BY IDOCK:   -9.40 KCAL/MOL
REMARK 924 INTRA-LIGAND FREE ENERGY PREDICTED BY IDOCK:   -1.34 KCAL/MOL
REMARK 927      BINDING AFFINITY PREDICTED BY RF-SCORE:    0.00 PKD
ROOT
HETATM    1  C   UNL     1     -10.863  14.852  65.314  1.00  0.00    -0.398 C  
HETATM    2  C   UNL     1     -11.461  15.198  66.675  1.00  0.00    -0.185 C  
HETATM    3  C   UNL     2     -10.830  11.384  65.364  1.00  0.00    -0.229 C  
HETATM    4  O   UNL     2     -11.599  12.068  66.339  1.00  0.00    -0.423 OA 
ENDROOT
BRANCH   2   5
HETATM    5  C   UNL     1     -10.461  15.605  67.810  1.00  0.00    -0.273 C  
HETATM    6  O   UNL     1     -10.731  18.051  67.655  1.00  0.00    -0.415 OA 
HETATM    7  C   UNL     1      -9.278  14.644  67.602  1.00  0.00    -0.193 C  
HETATM    8  C   UNL     1      -9.996  17.063  67.575  1.00  0.00    -0.274 C  
HETATM    9  H   UNL     1      -8.273  18.174  67.484  1.00  0.00     0.000 HD 
HETATM   10  N   UNL     1      -8.336  15.053  66.699  1.00  0.00    -0.401 N  
HETATM   11  O   UNL     1      -9.182  13.537  68.118  1.00  0.00    -0.198 OA 
HETATM   12  O   UNL     1      -6.654  16.539  66.540  1.00  0.00    -0.250 OA 
HETATM   13  N   UNL     1      -8.664  17.249  67.306  1.00  0.00    -0.208 N  
HETATM   14  C   UNL     1      -7.825  16.300  66.821  1.00  0.00    -0.265 C  
HETATM   15  H   UNL     1      -8.026  14.433  65.951  1.00  0.00     0.000 HD 
BRANCH   5  16
HETATM   16  C   UNL     1     -11.101  15.445  69.206  1.00  0.00    -0.280 A  
HETATM   17  C   UNL     1     -10.949  15.641  71.632  1.00  0.00    -0.042 A  
HETATM   18  C   UNL     1     -10.334  15.505  70.384  1.00  0.00    -0.131 A  
HETATM   19  C   UNL     1     -12.496  15.348  69.345  1.00  0.00    -0.059 A  
HETATM   20  C   UNL     1     -12.335  15.683  71.728  1.00  0.00    -0.498 A  
HETATM   21  C   UNL     1     -13.109  15.503  70.588  1.00  0.00    -0.361 A  
ENDBRANCH   5  16
ENDBRANCH   2   5
BRANCH   4  22
HETATM   22  C   UNL     2     -11.534  11.593  67.612  1.00  0.00    -0.303 A  
HETATM   23  C   UNL     2     -11.941  12.246  68.758  1.00  0.00    -0.281 A  
HETATM   24  C   UNL     2     -10.868   9.622  68.935  1.00  0.00    -0.201 A  
HETATM   25  C   UNL     2     -10.236   7.793  70.388  1.00  0.00    -0.197 A  
HETATM   26  C   UNL     2     -11.811  11.595  69.987  1.00  0.00    -0.435 A  
HETATM   27  C   UNL     2     -10.651   8.571  71.456  1.00  0.00    -0.263 A  
HETATM   28  C   UNL     2     -11.078  10.282  67.704  1.00  0.00    -0.319 A  
HETATM   29  C   UNL     2     -10.317   8.307  69.084  1.00  0.00    -0.225 A  
HETATM   30  C   UNL     2     -11.253  10.325  70.104  1.00  0.00    -0.318 A  
HETATM   31  N   UNL     2     -11.141   9.817  71.334  1.00  0.00    -0.326 NA 
BRANCH  29  32
HETATM   32  C   UNL     2      -9.920   7.415  67.891  1.00  0.00    -0.165 C  
HETATM   33  H   UNL     2     -10.740   6.758  66.208  1.00  0.00     0.000 HD 
HETATM   34  O   UNL     2     -10.985   7.308  66.944  1.00  0.00    -0.343 OA 
BRANCH  32  35
HETATM   35  C   UNL     2      -8.635   7.831  67.084  1.00  0.00    -0.128 C  
HETATM   36  C   UNL     2      -7.975   7.577  64.657  1.00  0.00    -0.133 C  
HETATM   37  C   UNL     2      -6.561   7.969  65.120  1.00  0.00    -0.051 C  
HETATM   38  C   UNL     2      -6.313   7.429  66.538  1.00  0.00    -0.045 C  
HETATM   39  C   UNL     2      -8.965   8.249  65.627  1.00  0.00    -0.157 C  
HETATM   40  N   UNL     2      -7.535   6.806  67.101  1.00  0.00    -0.089 NA 
HETATM   41  C   UNL     2      -7.850   5.633  66.243  1.00  0.00    -0.100 C  
HETATM   42  C   UNL     2      -8.181   6.046  64.786  1.00  0.00    -0.123 C  
BRANCH  42  43
HETATM   43  C   UNL     2      -7.352   5.271  63.788  1.00  0.00    -0.052 C  
HETATM   44  C   UNL     2      -7.602   5.216  62.472  1.00  0.00    -0.057 C  
ENDBRANCH  42  43
ENDBRANCH  32  35
ENDBRANCH  29  32
ENDBRANCH   4  22
TORSDOF 6
ENDMDL
MODEL       34
REMARK 921   NORMALIZED FREE ENERGY PREDICTED BY IDOCK:   -5.64 KCAL/MOL
REMARK 922        TOTAL FREE ENERGY PREDICTED BY IDOCK:  -10.70 KCAL/MOL
REMARK 923 INTER-LIGAND FREE ENERGY PREDICTED BY IDOCK:   -8.80 KCAL/MOL
REMARK 924 INTRA-LIGAND FREE ENERGY PREDICTED BY IDOCK:   -1.91 KCAL/MOL
REMARK 927      BINDING AFFINITY PREDICTED BY RF-SCORE:    0.00 PKD
ROOT
HETATM    1  C   UNL     1      -5.652   5.919  69.641  1.00  0.00    -0.012 C  
HETATM    2  C   UNL     1      -6.440   5.386  70.835  1.00  0.00    -0.035 C  
HETATM    3  C   UNL     2      -6.822   9.171  69.353  1.00  0.00    -0.048 C  
HETATM    4  O   UNL     2      -7.103   8.453  70.544  1.00  0.00    -0.036 OA 
ENDROOT
BRANCH   2   5
HETATM    5  C   UNL     1      -7.694   4.501  70.522  1.00  0.00    -0.053 C  
HETATM    6  O   UNL     1      -6.637   2.289  70.785  1.00  0.00    -0.026 OA 
HETATM    7  C   UNL     1      -8.363   5.234  69.346  1.00  0.00    -0.095 C  
HETATM    8  C   UNL     1      -7.222   3.100  70.061  1.00  0.00    -0.041 C  
HETATM    9  H   UNL     1      -7.541   1.744  68.556  1.00  0.00     0.000 HD 
HETATM   10  N   UNL     1      -7.891   4.911  68.104  1.00  0.00    -0.082 N  
HETATM   11  O   UNL     1      -9.201   6.119  69.465  1.00  0.00    -0.137 OA 
HETATM   12  O   UNL     1      -8.011   3.227  66.616  1.00  0.00    -0.080 OA 
HETATM   13  N   UNL     1      -7.525   2.740  68.774  1.00  0.00    -0.048 N  
HETATM   14  C   UNL     1      -7.807   3.604  67.767  1.00  0.00    -0.077 C  
HETATM   15  H   UNL     1      -7.610   5.638  67.447  1.00  0.00     0.000 HD 
BRANCH   5  16
HETATM   16  C   UNL     1      -8.628   4.397  71.747  1.00  0.00    -0.124 A  
HETATM   17  C   UNL     1      -9.040   4.761  74.123  1.00  0.00    -0.111 A  
HETATM   18  C   UNL     1      -8.153   4.579  73.059  1.00  0.00    -0.096 A  
HETATM   19  C   UNL     1     -10.013   4.229  71.577  1.00  0.00    -0.243 A  
HETATM   20  C   UNL     1     -10.412   4.729  73.902  1.00  0.00    -0.315 A  
HETATM   21  C   UNL     1     -10.898   4.429  72.636  1.00  0.00    -0.166 A  
ENDBRANCH   5  16
ENDBRANCH   2   5
BRANCH   4  22
HETATM   22  C   UNL     2      -8.362   8.571  71.046  1.00  0.00    -0.147 A  
HETATM   23  C   UNL     2      -8.849   7.985  72.197  1.00  0.00    -0.215 A  
HETATM   24  C   UNL     2     -10.537   9.659  70.643  1.00  0.00    -0.386 A  
HETATM   25  C   UNL     2     -12.744  10.618  70.382  1.00  0.00    -0.340 A  
HETATM   26  C   UNL     2     -10.173   8.229  72.570  1.00  0.00    -0.386 A  
HETATM   27  C   UNL     2     -13.112   9.945  71.535  1.00  0.00    -0.418 A  
HETATM   28  C   UNL     2      -9.175   9.446  70.334  1.00  0.00    -0.305 A  
HETATM   29  C   UNL     2     -11.437  10.481  69.887  1.00  0.00    -0.384 A  
HETATM   30  C   UNL     2     -11.030   9.015  71.805  1.00  0.00    -0.372 A  
HETATM   31  N   UNL     2     -12.288   9.147  72.237  1.00  0.00    -0.342 NA 
BRANCH  29  32
HETATM   32  C   UNL     2     -11.008  11.284  68.643  1.00  0.00    -0.218 C  
HETATM   33  H   UNL     2     -11.665  11.601  66.798  1.00  0.00     0.000 HD 
HETATM   34  O   UNL     2     -11.930  11.106  67.565  1.00  0.00    -0.580 OA 
BRANCH  32  35
HETATM   35  C   UNL     2     -10.818  12.835  68.825  1.00  0.00    -0.234 C  
HETATM   36  C   UNL     2     -11.603  14.830  67.486  1.00  0.00    -0.379 C  
HETATM   37  C   UNL     2     -10.608  15.644  68.331  1.00  0.00    -0.252 C  
HETATM   38  C   UNL     2      -9.384  14.777  68.666  1.00  0.00    -0.198 C  
HETATM   39  C   UNL     2     -12.057  13.640  68.353  1.00  0.00    -0.312 C  
HETATM   40  N   UNL     2      -9.564  13.382  68.199  1.00  0.00    -0.218 NA 
HETATM   41  C   UNL     2      -9.659  13.438  66.715  1.00  0.00    -0.262 C  
HETATM   42  C   UNL     2     -10.897  14.241  66.238  1.00  0.00    -0.310 C  
BRANCH  42  43
HETATM   43  C   UNL     2     -10.514  15.309  65.240  1.00  0.00    -0.436 C  
HETATM   44  C   UNL     2     -11.358  15.865  64.361  1.00  0.00    -0.276 C  
ENDBRANCH  42  43
ENDBRANCH  32  35
ENDBRANCH  29  32
ENDBRANCH   4  22
TORSDOF 6
ENDMDL
MODEL       35
REMARK 921   NORMALIZED FREE ENERGY PREDICTED BY IDOCK:   -5.62 KCAL/MOL
REMARK 922        TOTAL FREE ENERGY PREDICTED BY IDOCK:  -10.67 KCAL/MOL
REMARK 923 INTER-LIGAND FREE ENERGY PREDICTED BY IDOCK:   -8.41 KCAL/MOL
REMARK 924 INTRA-LIGAND FREE ENERGY PREDICTED BY IDOCK:   -2.26 KCAL/MOL
REMARK 927      BINDING AFFINITY PREDICTED BY RF-SCORE:    0.00 PKD
ROOT
HETATM    1  C   UNL     1     -12.033  12.255  68.942  1.00  0.00    -0.300 C  
HETATM    2  C   UNL     1     -10.719  12.935  68.565  1.00  0.00    -0.275 C  
HETATM    3  C   UNL     2     -10.962   9.263  70.333  1.00  0.00    -0.255 C  
HETATM    4  O   UNL     2     -10.012  10.299  70.140  1.00  0.00    -0.185 OA 
ENDROOT
BRANCH   2   5
HETATM    5  C   UNL     1     -10.272  12.840  67.066  1.00  0.00    -0.245 C  
HETATM    6  O   UNL     1      -8.042  13.865  67.301  1.00  0.00    -0.178 OA 
HETATM    7  C   UNL     1     -11.546  13.217  66.291  1.00  0.00    -0.356 C  
HETATM    8  C   UNL     1      -9.169  13.895  66.800  1.00  0.00    -0.254 C  
HETATM    9  H   UNL     1      -8.696  15.378  65.465  1.00  0.00     0.000 HD 
HETATM   10  N   UNL     1     -11.743  14.555  66.092  1.00  0.00    -0.367 N  
HETATM   11  O   UNL     1     -12.403  12.418  65.932  1.00  0.00    -0.638 OA 
HETATM   12  O   UNL     1     -10.942  16.229  64.819  1.00  0.00    -0.631 OA 
HETATM   13  N   UNL     1      -9.474  14.893  65.911  1.00  0.00    -0.296 N  
HETATM   14  C   UNL     1     -10.728  15.286  65.576  1.00  0.00    -0.371 C  
HETATM   15  H   UNL     1     -12.634  14.992  66.326  1.00  0.00     0.000 HD 
BRANCH   5  16
HETATM   16  C   UNL     1      -9.778  11.420  66.717  1.00  0.00    -0.221 A  
HETATM   17  C   UNL     1     -10.256   9.076  66.244  1.00  0.00    -0.237 A  
HETATM   18  C   UNL     1     -10.617  10.296  66.821  1.00  0.00    -0.252 A  
HETATM   19  C   UNL     1      -8.498  11.224  66.171  1.00  0.00    -0.135 A  
HETATM   20  C   UNL     1      -9.038   8.948  65.584  1.00  0.00    -0.269 A  
HETATM   21  C   UNL     1      -8.144  10.013  65.578  1.00  0.00    -0.137 A  
ENDBRANCH   5  16
ENDBRANCH   2   5
BRANCH   4  22
HETATM   22  C   UNL     2      -8.799   9.931  69.646  1.00  0.00    -0.208 A  
HETATM   23  C   UNL     2      -7.696  10.743  69.478  1.00  0.00    -0.074 A  
HETATM   24  C   UNL     2      -7.539   7.992  68.789  1.00  0.00    -0.103 A  
HETATM   25  C   UNL     2      -6.169   6.210  67.894  1.00  0.00    -0.032 A  
HETATM   26  C   UNL     2      -6.521  10.188  68.966  1.00  0.00    -0.044 A  
HETATM   27  C   UNL     2      -5.153   7.139  67.747  1.00  0.00    -0.019 A  
HETATM   28  C   UNL     2      -8.688   8.572  69.373  1.00  0.00    -0.136 A  
HETATM   29  C   UNL     2      -7.411   6.616  68.408  1.00  0.00    -0.087 A  
HETATM   30  C   UNL     2      -6.431   8.852  68.586  1.00  0.00    -0.054 A  
HETATM   31  N   UNL     2      -5.269   8.439  68.070  1.00  0.00    -0.033 NA 
BRANCH  29  32
HETATM   32  C   UNL     2      -8.518   5.567  68.636  1.00  0.00    -0.104 C  
HETATM   33  H   UNL     2      -9.443   4.155  67.595  1.00  0.00     0.000 HD 
HETATM   34  O   UNL     2      -8.760   4.801  67.454  1.00  0.00    -0.104 OA 
BRANCH  32  35
HETATM   35  C   UNL     2      -8.298   4.539  69.806  1.00  0.00    -0.062 C  
HETATM   36  C   UNL     2      -9.862   3.515  71.508  1.00  0.00    -0.219 C  
HETATM   37  C   UNL     2      -8.586   3.046  72.227  1.00  0.00    -0.089 C  
HETATM   38  C   UNL     2      -7.470   4.085  72.033  1.00  0.00    -0.065 C  
HETATM   39  C   UNL     2      -9.521   3.607  70.009  1.00  0.00    -0.260 C  
HETATM   40  N   UNL     2      -7.893   5.166  71.112  1.00  0.00    -0.099 NA 
HETATM   41  C   UNL     2      -9.025   5.870  71.771  1.00  0.00    -0.139 C  
HETATM   42  C   UNL     2     -10.251   4.941  71.974  1.00  0.00    -0.263 C  
BRANCH  42  43
HETATM   43  C   UNL     2     -10.732   4.965  73.407  1.00  0.00    -0.329 C  
HETATM   44  C   UNL     2     -10.357   5.871  74.319  1.00  0.00    -0.284 C  
ENDBRANCH  42  43
ENDBRANCH  32  35
ENDBRANCH  29  32
ENDBRANCH   4  22
TORSDOF 6
ENDMDL
MODEL       36
REMARK 921   NORMALIZED FREE ENERGY PREDICTED BY IDOCK:   -5.53 KCAL/MOL
REMARK 922        TOTAL FREE ENERGY PREDICTED BY IDOCK:  -10.55 KCAL/MOL
REMARK 923 INTER-LIGAND FREE ENERGY PREDICTED BY IDOCK:   -9.02 KCAL/MOL
REMARK 924 INTRA-LIGAND FREE ENERGY PREDICTED BY IDOCK:   -1.53 KCAL/MOL
REMARK 927      BINDING AFFINITY PREDICTED BY RF-SCORE:    0.00 PKD
ROOT
HETATM    1  C   UNL     1     -11.679  15.243  68.125  1.00  0.00    -0.297 C  
HETATM    2  C   UNL     1     -10.559  14.237  68.376  1.00  0.00    -0.255 C  
HETATM    3  C   UNL     2     -13.214  13.971  65.287  1.00  0.00     0.062 C  
HETATM    4  O   UNL     2     -12.313  13.139  66.000  1.00  0.00    -0.422 OA 
ENDROOT
BRANCH   2   5
HETATM    5  C   UNL     1      -9.124  14.633  67.888  1.00  0.00    -0.189 C  
HETATM    6  O   UNL     1      -8.236  15.452  70.038  1.00  0.00    -0.018 OA 
HETATM    7  C   UNL     1      -9.381  15.285  66.519  1.00  0.00    -0.281 C  
HETATM    8  C   UNL     1      -8.530  15.681  68.862  1.00  0.00    -0.213 C  
HETATM    9  H   UNL     1      -7.600  17.509  68.835  1.00  0.00     0.000 HD 
HETATM   10  N   UNL     1      -9.681  16.619  66.548  1.00  0.00    -0.260 N  
HETATM   11  O   UNL     1      -9.415  14.679  65.455  1.00  0.00    -0.200 OA 
HETATM   12  O   UNL     1      -8.652  18.596  66.860  1.00  0.00    -0.265 OA 
HETATM   13  N   UNL     1      -8.281  16.928  68.347  1.00  0.00    -0.223 N  
HETATM   14  C   UNL     1      -8.868  17.448  67.241  1.00  0.00    -0.232 C  
HETATM   15  H   UNL     1     -10.499  16.981  66.057  1.00  0.00     0.000 HD 
BRANCH   5  16
HETATM   16  C   UNL     1      -8.207  13.396  67.779  1.00  0.00    -0.172 A  
HETATM   17  C   UNL     1      -5.995  12.433  67.423  1.00  0.00    -0.154 A  
HETATM   18  C   UNL     1      -6.902  13.483  67.260  1.00  0.00     0.098 A  
HETATM   19  C   UNL     1      -8.613  12.157  68.305  1.00  0.00    -0.175 A  
HETATM   20  C   UNL     1      -6.383  11.268  68.075  1.00  0.00    -0.053 A  
HETATM   21  C   UNL     1      -7.702  11.117  68.486  1.00  0.00    -0.129 A  
ENDBRANCH   5  16
ENDBRANCH   2   5
BRANCH   4  22
HETATM   22  C   UNL     2     -11.445  12.402  65.258  1.00  0.00    -0.344 A  
HETATM   23  C   UNL     2     -11.022  12.673  63.972  1.00  0.00    -0.448 A  
HETATM   24  C   UNL     2     -10.026  10.386  65.331  1.00  0.00    -0.362 A  
HETATM   25  C   UNL     2      -8.608   8.429  65.219  1.00  0.00    -0.177 A  
HETATM   26  C   UNL     2     -10.110  11.806  63.365  1.00  0.00    -0.470 A  
HETATM   27  C   UNL     2      -8.293   8.799  63.922  1.00  0.00    -0.141 A  
HETATM   28  C   UNL     2     -10.895  11.321  65.938  1.00  0.00    -0.264 A  
HETATM   29  C   UNL     2      -9.505   9.210  65.964  1.00  0.00    -0.321 A  
HETATM   30  C   UNL     2      -9.636  10.660  63.997  1.00  0.00    -0.299 A  
HETATM   31  N   UNL     2      -8.798   9.882  63.305  1.00  0.00    -0.225 NA 
BRANCH  29  32
HETATM   32  C   UNL     2      -9.801   8.836  67.431  1.00  0.00    -0.194 C  
HETATM   33  H   UNL     2     -11.331   8.918  68.690  1.00  0.00     0.000 HD 
HETATM   34  O   UNL     2     -11.149   9.148  67.786  1.00  0.00    -0.079 OA 
BRANCH  32  35
HETATM   35  C   UNL     2      -9.556   7.339  67.850  1.00  0.00    -0.139 C  
HETATM   36  C   UNL     2     -10.931   5.681  69.172  1.00  0.00    -0.188 C  
HETATM   37  C   UNL     2      -9.650   4.829  69.216  1.00  0.00    -0.243 C  
HETATM   38  C   UNL     2      -8.420   5.748  69.274  1.00  0.00    -0.108 C  
HETATM   39  C   UNL     2     -10.869   6.514  67.878  1.00  0.00    -0.383 C  
HETATM   40  N   UNL     2      -8.802   7.174  69.141  1.00  0.00    -0.136 NA 
HETATM   41  C   UNL     2      -9.641   7.503  70.324  1.00  0.00    -0.165 C  
HETATM   42  C   UNL     2     -10.955   6.680  70.356  1.00  0.00    -0.341 C  
BRANCH  42  43
HETATM   43  C   UNL     2     -11.144   5.988  71.687  1.00  0.00    -0.333 C  
HETATM   44  C   UNL     2     -11.024   6.588  72.878  1.00  0.00    -0.282 C  
ENDBRANCH  42  43
ENDBRANCH  32  35
ENDBRANCH  29  32
ENDBRANCH   4  22
TORSDOF 6
ENDMDL
MODEL       37
REMARK 921   NORMALIZED FREE ENERGY PREDICTED BY IDOCK:   -5.53 KCAL/MOL
REMARK 922        TOTAL FREE ENERGY PREDICTED BY IDOCK:  -10.55 KCAL/MOL
REMARK 923 INTER-LIGAND FREE ENERGY PREDICTED BY IDOCK:   -8.64 KCAL/MOL
REMARK 924 INTRA-LIGAND FREE ENERGY PREDICTED BY IDOCK:   -1.90 KCAL/MOL
REMARK 927      BINDING AFFINITY PREDICTED BY RF-SCORE:    0.00 PKD
ROOT
HETATM    1  C   UNL     1      -8.672  14.555  68.063  1.00  0.00    -0.167 C  
HETATM    2  C   UNL     1      -8.878  13.969  66.668  1.00  0.00    -0.117 C  
HETATM    3  C   UNL     2      -6.554  12.245  69.548  1.00  0.00    -0.052 C  
HETATM    4  O   UNL     2      -6.727  12.198  68.141  1.00  0.00    -0.061 OA 
ENDROOT
BRANCH   2   5
HETATM    5  C   UNL     1     -10.201  13.168  66.420  1.00  0.00    -0.286 C  
HETATM    6  O   UNL     1      -9.503  11.958  64.388  1.00  0.00    -0.067 OA 
HETATM    7  C   UNL     1     -11.303  14.197  66.726  1.00  0.00    -0.343 C  
HETATM    8  C   UNL     1     -10.272  12.758  64.928  1.00  0.00    -0.272 C  
HETATM    9  H   UNL     1     -11.568  12.806  63.339  1.00  0.00     0.000 HD 
HETATM   10  N   UNL     1     -11.660  15.007  65.685  1.00  0.00    -0.253 N  
HETATM   11  O   UNL     1     -11.795  14.380  67.834  1.00  0.00    -0.347 OA 
HETATM   12  O   UNL     1     -12.831  14.906  63.766  1.00  0.00    -0.662 OA 
HETATM   13  N   UNL     1     -11.293  13.298  64.189  1.00  0.00    -0.386 N  
HETATM   14  C   UNL     1     -11.965  14.434  64.498  1.00  0.00    -0.472 C  
HETATM   15  H   UNL     1     -11.697  16.021  65.800  1.00  0.00     0.000 HD 
BRANCH   5  16
HETATM   16  C   UNL     1     -10.290  11.932  67.340  1.00  0.00    -0.228 A  
HETATM   17  C   UNL     1     -10.683  10.965  69.544  1.00  0.00    -0.251 A  
HETATM   18  C   UNL     1     -10.323  12.051  68.741  1.00  0.00    -0.181 A  
HETATM   19  C   UNL     1     -10.456  10.647  66.794  1.00  0.00    -0.303 A  
HETATM   20  C   UNL     1     -10.980   9.736  68.965  1.00  0.00    -0.193 A  
HETATM   21  C   UNL     1     -10.833   9.568  67.593  1.00  0.00    -0.253 A  
ENDBRANCH   5  16
ENDBRANCH   2   5
BRANCH   4  22
HETATM   22  C   UNL     2      -6.872  10.966  67.584  1.00  0.00    -0.081 A  
HETATM   23  C   UNL     2      -6.720  10.640  66.252  1.00  0.00    -0.129 A  
HETATM   24  C   UNL     2      -7.371   8.614  68.134  1.00  0.00    -0.091 A  
HETATM   25  C   UNL     2      -7.875   6.275  68.488  1.00  0.00    -0.105 A  
HETATM   26  C   UNL     2      -6.896   9.311  65.858  1.00  0.00    -0.088 A  
HETATM   27  C   UNL     2      -7.726   6.092  67.124  1.00  0.00    -0.101 A  
HETATM   28  C   UNL     2      -7.119   9.954  68.506  1.00  0.00    -0.071 A  
HETATM   29  C   UNL     2      -7.718   7.557  69.038  1.00  0.00    -0.117 A  
HETATM   30  C   UNL     2      -7.251   8.308  66.755  1.00  0.00    -0.082 A  
HETATM   31  N   UNL     2      -7.432   7.080  66.260  1.00  0.00    -0.079 NA 
BRANCH  29  32
HETATM   32  C   UNL     2      -7.815   7.746  70.565  1.00  0.00    -0.096 C  
HETATM   33  H   UNL     2      -7.126   9.000  71.938  1.00  0.00     0.000 HD 
HETATM   34  O   UNL     2      -7.065   8.884  70.998  1.00  0.00    -0.072 OA 
BRANCH  32  35
HETATM   35  C   UNL     2      -9.257   7.895  71.176  1.00  0.00    -0.147 C  
HETATM   36  C   UNL     2     -10.218   7.373  73.454  1.00  0.00    -0.402 C  
HETATM   37  C   UNL     2     -11.593   7.562  72.790  1.00  0.00    -0.299 C  
HETATM   38  C   UNL     2     -11.532   7.087  71.330  1.00  0.00    -0.276 C  
HETATM   39  C   UNL     2      -9.224   8.260  72.683  1.00  0.00    -0.345 C  
HETATM   40  N   UNL     2     -10.153   6.709  70.941  1.00  0.00    -0.187 NA 
HETATM   41  C   UNL     2      -9.775   5.546  71.787  1.00  0.00    -0.163 C  
HETATM   42  C   UNL     2      -9.739   5.907  73.295  1.00  0.00    -0.155 C  
BRANCH  42  43
HETATM   43  C   UNL     2     -10.564   4.942  74.116  1.00  0.00    -0.345 C  
HETATM   44  C   UNL     2     -11.074   3.793  73.651  1.00  0.00    -0.318 C  
ENDBRANCH  42  43
ENDBRANCH  32  35
ENDBRANCH  29  32
ENDBRANCH   4  22
TORSDOF 6
ENDMDL
MODEL       38
REMARK 921   NORMALIZED FREE ENERGY PREDICTED BY IDOCK:   -5.52 KCAL/MOL
REMARK 922        TOTAL FREE ENERGY PREDICTED BY IDOCK:  -10.53 KCAL/MOL
REMARK 923 INTER-LIGAND FREE ENERGY PREDICTED BY IDOCK:   -8.99 KCAL/MOL
REMARK 924 INTRA-LIGAND FREE ENERGY PREDICTED BY IDOCK:   -1.54 KCAL/MOL
REMARK 927      BINDING AFFINITY PREDICTED BY RF-SCORE:    0.00 PKD
ROOT
HETATM    1  C   UNL     1     -11.945  15.412  68.274  1.00  0.00    -0.109 C  
HETATM    2  C   UNL     1     -10.516  15.890  68.519  1.00  0.00    -0.241 C  
HETATM    3  C   UNL     2     -11.622  11.962  68.419  1.00  0.00    -0.317 C  
HETATM    4  O   UNL     2     -10.556  12.763  68.902  1.00  0.00    -0.212 OA 
ENDROOT
BRANCH   2   5
HETATM    5  C   UNL     1      -9.676  16.299  67.261  1.00  0.00    -0.237 C  
HETATM    6  O   UNL     1     -10.184  18.712  67.269  1.00  0.00    -0.336 OA 
HETATM    7  C   UNL     1      -9.941  15.154  66.269  1.00  0.00    -0.288 C  
HETATM    8  C   UNL     1     -10.236  17.625  66.688  1.00  0.00    -0.341 C  
HETATM    9  H   UNL     1     -10.837  18.443  64.906  1.00  0.00     0.000 HD 
HETATM   10  N   UNL     1     -11.062  15.288  65.499  1.00  0.00    -0.340 N  
HETATM   11  O   UNL     1      -9.275  14.128  66.197  1.00  0.00    -0.189 OA 
HETATM   12  O   UNL     1     -11.786  16.470  63.725  1.00  0.00    -1.086 OA 
HETATM   13  N   UNL     1     -10.781  17.570  65.431  1.00  0.00    -0.170 N  
HETATM   14  C   UNL     1     -11.250  16.449  64.831  1.00  0.00    -0.185 C  
HETATM   15  H   UNL     1     -11.742  14.530  65.428  1.00  0.00     0.000 HD 
BRANCH   5  16
HETATM   16  C   UNL     1      -8.177  16.433  67.606  1.00  0.00    -0.166 A  
HETATM   17  C   UNL     1      -5.899  16.990  66.937  1.00  0.00    -0.225 A  
HETATM   18  C   UNL     1      -7.198  16.593  66.608  1.00  0.00    -0.276 A  
HETATM   19  C   UNL     1      -7.757  16.515  68.945  1.00  0.00    -0.236 A  
HETATM   20  C   UNL     1      -5.547  17.201  68.265  1.00  0.00    -0.128 A  
HETATM   21  C   UNL     1      -6.467  16.930  69.272  1.00  0.00    -0.228 A  
ENDBRANCH   5  16
ENDBRANCH   2   5
BRANCH   4  22
HETATM   22  C   UNL     2      -9.297  12.370  68.567  1.00  0.00    -0.088 A  
HETATM   23  C   UNL     2      -8.140  13.113  68.693  1.00  0.00    -0.014 A  
HETATM   24  C   UNL     2      -8.012  10.464  67.675  1.00  0.00    -0.106 A  
HETATM   25  C   UNL     2      -6.603   8.710  66.785  1.00  0.00    -0.061 A  
HETATM   26  C   UNL     2      -6.925  12.540  68.309  1.00  0.00    -0.089 A  
HETATM   27  C   UNL     2      -5.530   9.572  66.931  1.00  0.00    -0.046 A  
HETATM   28  C   UNL     2      -9.211  11.050  68.137  1.00  0.00    -0.165 A  
HETATM   29  C   UNL     2      -7.892   9.139  67.140  1.00  0.00    -0.102 A  
HETATM   30  C   UNL     2      -6.842  11.258  67.773  1.00  0.00    -0.074 A  
HETATM   31  N   UNL     2      -5.632  10.827  67.403  1.00  0.00    -0.044 NA 
BRANCH  29  32
HETATM   32  C   UNL     2      -9.075   8.155  67.042  1.00  0.00    -0.143 C  
HETATM   33  H   UNL     2      -9.861   6.932  65.693  1.00  0.00     0.000 HD 
HETATM   34  O   UNL     2      -9.132   7.538  65.754  1.00  0.00    -0.099 OA 
BRANCH  32  35
HETATM   35  C   UNL     2      -9.129   6.996  68.103  1.00  0.00    -0.128 C  
HETATM   36  C   UNL     2     -11.004   6.033  69.498  1.00  0.00    -0.467 C  
HETATM   37  C   UNL     2      -9.894   5.323  70.293  1.00  0.00    -0.284 C  
HETATM   38  C   UNL     2      -8.642   6.213  70.340  1.00  0.00    -0.134 C  
HETATM   39  C   UNL     2     -10.475   6.225  68.065  1.00  0.00    -0.278 C  
HETATM   40  N   UNL     2      -8.810   7.429  69.508  1.00  0.00    -0.137 NA 
HETATM   41  C   UNL     2      -9.918   8.213  70.117  1.00  0.00    -0.187 C  
HETATM   42  C   UNL     2     -11.265   7.446  70.080  1.00  0.00    -0.239 C  
BRANCH  42  43
HETATM   43  C   UNL     2     -11.910   7.393  71.446  1.00  0.00    -0.329 C  
HETATM   44  C   UNL     2     -11.416   7.982  72.543  1.00  0.00    -0.471 C  
ENDBRANCH  42  43
ENDBRANCH  32  35
ENDBRANCH  29  32
ENDBRANCH   4  22
TORSDOF 6
ENDMDL
MODEL       39
REMARK 921   NORMALIZED FREE ENERGY PREDICTED BY IDOCK:   -5.51 KCAL/MOL
REMARK 922        TOTAL FREE ENERGY PREDICTED BY IDOCK:  -10.52 KCAL/MOL
REMARK 923 INTER-LIGAND FREE ENERGY PREDICTED BY IDOCK:   -9.08 KCAL/MOL
REMARK 924 INTRA-LIGAND FREE ENERGY PREDICTED BY IDOCK:   -1.44 KCAL/MOL
REMARK 927      BINDING AFFINITY PREDICTED BY RF-SCORE:    0.00 PKD
ROOT
HETATM    1  C   UNL     1      -6.777   9.755  66.367  1.00  0.00    -0.080 C  
HETATM    2  C   UNL     1      -7.723   8.644  66.817  1.00  0.00    -0.093 C  
HETATM    3  C   UNL     2      -7.652  12.384  68.454  1.00  0.00    -0.129 C  
HETATM    4  O   UNL     2      -8.109  11.080  68.778  1.00  0.00    -0.134 OA 
ENDROOT
BRANCH   2   5
HETATM    5  C   UNL     1      -9.005   8.405  65.948  1.00  0.00    -0.223 C  
HETATM    6  O   UNL     1     -10.682   8.558  67.749  1.00  0.00    -0.201 OA 
HETATM    7  C   UNL     1      -8.575   7.290  64.980  1.00  0.00     0.114 C  
HETATM    8  C   UNL     1     -10.145   7.890  66.862  1.00  0.00    -0.291 C  
HETATM    9  H   UNL     1     -11.539   6.388  66.949  1.00  0.00     0.000 HD 
HETATM   10  N   UNL     1      -8.718   6.013  65.447  1.00  0.00    -0.275 N  
HETATM   11  O   UNL     1      -8.051   7.481  63.888  1.00  0.00    -0.116 OA 
HETATM   12  O   UNL     1     -10.345   4.509  65.839  1.00  0.00    -0.269 OA 
HETATM   13  N   UNL     1     -10.603   6.620  66.619  1.00  0.00    -0.201 N  
HETATM   14  C   UNL     1      -9.909   5.650  65.974  1.00  0.00    -0.018 C  
HETATM   15  H   UNL     1      -7.944   5.350  65.400  1.00  0.00     0.000 HD 
BRANCH   5  16
HETATM   16  C   UNL     1      -9.427   9.689  65.204  1.00  0.00    -0.332 A  
HETATM   17  C   UNL     1      -9.660  10.946  63.127  1.00  0.00    -0.384 A  
HETATM   18  C   UNL     1      -9.049   9.933  63.871  1.00  0.00    -0.298 A  
HETATM   19  C   UNL     1     -10.306  10.607  65.806  1.00  0.00    -0.287 A  
HETATM   20  C   UNL     1     -10.631  11.752  63.709  1.00  0.00    -0.470 A  
HETATM   21  C   UNL     1     -10.930  11.605  65.058  1.00  0.00    -0.334 A  
ENDBRANCH   5  16
ENDBRANCH   2   5
BRANCH   4  22
HETATM   22  C   UNL     2      -9.399  10.971  69.195  1.00  0.00    -0.021 A  
HETATM   23  C   UNL     2     -10.478  11.702  68.739  1.00  0.00    -0.226 A  
HETATM   24  C   UNL     2     -10.862   9.712  70.729  1.00  0.00    -0.400 A  
HETATM   25  C   UNL     2     -12.433   8.601  72.196  1.00  0.00    -0.453 A  
HETATM   26  C   UNL     2     -11.742  11.445  69.275  1.00  0.00    -0.404 A  
HETATM   27  C   UNL     2     -13.417   9.424  71.676  1.00  0.00    -0.394 A  
HETATM   28  C   UNL     2      -9.612   9.951  70.116  1.00  0.00    -0.237 A  
HETATM   29  C   UNL     2     -11.109   8.732  71.747  1.00  0.00    -0.417 A  
HETATM   30  C   UNL     2     -11.949  10.501  70.277  1.00  0.00    -0.325 A  
HETATM   31  N   UNL     2     -13.194  10.367  70.744  1.00  0.00    -0.311 NA 
BRANCH  29  32
HETATM   32  C   UNL     2     -10.028   7.769  72.276  1.00  0.00    -0.203 C  
HETATM   33  H   UNL     2      -9.425   7.052  74.024  1.00  0.00     0.000 HD 
HETATM   34  O   UNL     2     -10.091   7.645  73.698  1.00  0.00    -0.321 OA 
BRANCH  32  35
HETATM   35  C   UNL     2     -10.026   6.307  71.693  1.00  0.00    -0.179 C  
HETATM   36  C   UNL     2      -8.194   4.604  71.337  1.00  0.00    -0.102 C  
HETATM   37  C   UNL     2      -9.225   3.844  70.483  1.00  0.00    -0.203 C  
HETATM   38  C   UNL     2     -10.144   4.847  69.769  1.00  0.00    -0.249 C  
HETATM   39  C   UNL     2      -8.986   5.395  72.394  1.00  0.00    -0.139 C  
HETATM   40  N   UNL     2      -9.867   6.238  70.199  1.00  0.00    -0.169 NA 
HETATM   41  C   UNL     2      -8.476   6.548  69.770  1.00  0.00    -0.131 C  
HETATM   42  C   UNL     2      -7.433   5.638  70.469  1.00  0.00    -0.085 C  
BRANCH  42  43
HETATM   43  C   UNL     2      -6.512   4.980  69.468  1.00  0.00    -0.038 C  
HETATM   44  C   UNL     2      -6.563   5.179  68.144  1.00  0.00    -0.049 C  
ENDBRANCH  42  43
ENDBRANCH  32  35
ENDBRANCH  29  32
ENDBRANCH   4  22
TORSDOF 6
ENDMDL
MODEL       40
REMARK 921   NORMALIZED FREE ENERGY PREDICTED BY IDOCK:   -5.46 KCAL/MOL
REMARK 922        TOTAL FREE ENERGY PREDICTED BY IDOCK:  -10.45 KCAL/MOL
REMARK 923 INTER-LIGAND FREE ENERGY PREDICTED BY IDOCK:   -9.09 KCAL/MOL
REMARK 924 INTRA-LIGAND FREE ENERGY PREDICTED BY IDOCK:   -1.36 KCAL/MOL
REMARK 927      BINDING AFFINITY PREDICTED BY RF-SCORE:    0.00 PKD
ROOT
HETATM    1  C   UNL     1     -12.020  15.944  67.717  1.00  0.00     0.425 C  
HETATM    2  C   UNL     1     -10.855  15.206  68.372  1.00  0.00    -0.255 C  
HETATM    3  C   UNL     2     -13.135  13.655  65.361  1.00  0.00    -0.121 C  
HETATM    4  O   UNL     2     -12.251  13.207  66.376  1.00  0.00    -0.399 OA 
ENDROOT
BRANCH   2   5
HETATM    5  C   UNL     1      -9.413  15.580  67.886  1.00  0.00    -0.201 C  
HETATM    6  O   UNL     1      -9.745  15.196  65.473  1.00  0.00    -0.332 OA 
HETATM    7  C   UNL     1      -8.503  14.948  68.954  1.00  0.00    -0.174 C  
HETATM    8  C   UNL     1      -9.151  14.907  66.516  1.00  0.00    -0.277 C  
HETATM    9  H   UNL     1      -7.738  13.764  65.565  1.00  0.00     0.000 HD 
HETATM   10  N   UNL     1      -8.175  13.637  68.750  1.00  0.00    -0.334 N  
HETATM   11  O   UNL     1      -8.143  15.511  69.982  1.00  0.00     0.007 OA 
HETATM   12  O   UNL     1      -6.835  12.396  67.435  1.00  0.00    -0.129 OA 
HETATM   13  N   UNL     1      -8.156  13.964  66.473  1.00  0.00     0.535 N  
HETATM   14  C   UNL     1      -7.686  13.276  67.542  1.00  0.00    -0.171 C  
HETATM   15  H   UNL     1      -8.295  12.947  69.492  1.00  0.00     0.000 HD 
BRANCH   5  16
HETATM   16  C   UNL     1      -9.229  17.110  67.798  1.00  0.00    -0.241 A  
HETATM   17  C   UNL     1      -8.441  19.074  66.586  1.00  0.00    -0.311 A  
HETATM   18  C   UNL     1      -8.385  17.701  66.840  1.00  0.00    -0.258 A  
HETATM   19  C   UNL     1      -9.995  17.969  68.605  1.00  0.00    -0.396 A  
HETATM   20  C   UNL     1      -9.314  19.883  67.306  1.00  0.00    -0.470 A  
HETATM   21  C   UNL     1     -10.066  19.336  68.338  1.00  0.00    -0.518 A  
ENDBRANCH   5  16
ENDBRANCH   2   5
BRANCH   4  22
HETATM   22  C   UNL     2     -11.251  12.370  65.988  1.00  0.00    -0.335 A  
HETATM   23  C   UNL     2     -10.703  12.268  64.725  1.00  0.00    -0.338 A  
HETATM   24  C   UNL     2      -9.706  10.642  66.829  1.00  0.00    -0.222 A  
HETATM   25  C   UNL     2      -8.144   8.910  67.475  1.00  0.00    -0.109 A  
HETATM   26  C   UNL     2      -9.666  11.357  64.510  1.00  0.00    -0.268 A  
HETATM   27  C   UNL     2      -7.711   8.886  66.160  1.00  0.00    -0.098 A  
HETATM   28  C   UNL     2     -10.705  11.621  67.025  1.00  0.00    -0.292 A  
HETATM   29  C   UNL     2      -9.177   9.785  67.849  1.00  0.00    -0.133 A  
HETATM   30  C   UNL     2      -9.186  10.524  65.516  1.00  0.00    -0.188 A  
HETATM   31  N   UNL     2      -8.219   9.662  65.187  1.00  0.00    -0.127 NA 
BRANCH  29  32
HETATM   32  C   UNL     2      -9.611   9.860  69.327  1.00  0.00    -0.205 C  
HETATM   33  H   UNL     2     -10.235  11.239  70.608  1.00  0.00     0.000 HD 
HETATM   34  O   UNL     2      -9.967  11.193  69.698  1.00  0.00     0.078 OA 
BRANCH  32  35
HETATM   35  C   UNL     2     -10.802   8.932  69.770  1.00  0.00    -0.200 C  
HETATM   36  C   UNL     2     -11.843   8.431  72.018  1.00  0.00    -0.417 C  
HETATM   37  C   UNL     2     -12.553   7.269  71.300  1.00  0.00    -0.402 C  
HETATM   38  C   UNL     2     -11.639   6.704  70.202  1.00  0.00    -0.386 C  
HETATM   39  C   UNL     2     -11.598   9.524  70.961  1.00  0.00    -0.419 C  
HETATM   40  N   UNL     2     -10.404   7.510  70.057  1.00  0.00    -0.216 NA 
HETATM   41  C   UNL     2      -9.661   7.386  71.340  1.00  0.00    -0.159 C  
HETATM   42  C   UNL     2     -10.453   7.978  72.534  1.00  0.00    -0.383 C  
BRANCH  42  43
HETATM   43  C   UNL     2     -10.560   6.990  73.673  1.00  0.00    -0.383 C  
HETATM   44  C   UNL     2      -9.527   6.581  74.422  1.00  0.00    -0.270 C  
ENDBRANCH  42  43
ENDBRANCH  32  35
ENDBRANCH  29  32
ENDBRANCH   4  22
TORSDOF 6
ENDMDL
MODEL       41
REMARK 921   NORMALIZED FREE ENERGY PREDICTED BY IDOCK:   -5.44 KCAL/MOL
REMARK 922        TOTAL FREE ENERGY PREDICTED BY IDOCK:  -10.43 KCAL/MOL
REMARK 923 INTER-LIGAND FREE ENERGY PREDICTED BY IDOCK:   -8.60 KCAL/MOL
REMARK 924 INTRA-LIGAND FREE ENERGY PREDICTED BY IDOCK:   -1.83 KCAL/MOL
REMARK 927      BINDING AFFINITY PREDICTED BY RF-SCORE:    0.00 PKD
ROOT
HETATM    1  C   UNL     1     -11.370  14.918  65.158  1.00  0.00    -0.379 C  
HETATM    2  C   UNL     1     -11.629  15.188  66.638  1.00  0.00    -0.122 C  
HETATM    3  C   UNL     2     -11.331  11.452  65.019  1.00  0.00    -0.020 C  
HETATM    4  O   UNL     2     -11.847  12.078  66.183  1.00  0.00    -0.546 OA 
ENDROOT
BRANCH   2   5
HETATM    5  C   UNL     1     -10.388  15.548  67.524  1.00  0.00    -0.271 C  
HETATM    6  O   UNL     1     -11.444  15.273  69.735  1.00  0.00    -0.269 OA 
HETATM    7  C   UNL     1      -9.754  16.737  66.782  1.00  0.00    -0.264 C  
HETATM    8  C   UNL     1     -10.879  16.007  68.919  1.00  0.00    -0.286 C  
HETATM    9  H   UNL     1     -10.611  17.535  70.261  1.00  0.00     0.000 HD 
HETATM   10  N   UNL     1     -10.265  17.967  67.091  1.00  0.00    -0.339 N  
HETATM   11  O   UNL     1      -8.909  16.636  65.900  1.00  0.00    -0.486 OA 
HETATM   12  O   UNL     1     -10.197  19.475  68.761  1.00  0.00    -0.431 OA 
HETATM   13  N   UNL     1     -10.617  17.307  69.268  1.00  0.00    -0.264 N  
HETATM   14  C   UNL     1     -10.364  18.314  68.395  1.00  0.00    -0.343 C  
HETATM   15  H   UNL     1     -10.564  18.608  66.357  1.00  0.00     0.000 HD 
BRANCH   5  16
HETATM   16  C   UNL     1      -9.417  14.354  67.642  1.00  0.00    -0.214 A  
HETATM   17  C   UNL     1      -7.949  12.715  66.591  1.00  0.00     0.240 A  
HETATM   18  C   UNL     1      -9.028  13.600  66.520  1.00  0.00    -0.068 A  
HETATM   19  C   UNL     1      -8.800  14.054  68.869  1.00  0.00     0.062 A  
HETATM   20  C   UNL     1      -7.265  12.541  67.788  1.00  0.00    -0.125 A  
HETATM   21  C   UNL     1      -7.711  13.186  68.936  1.00  0.00     0.080 A  
ENDBRANCH   5  16
ENDBRANCH   2   5
BRANCH   4  22
HETATM   22  C   UNL     2     -11.482  11.540  67.378  1.00  0.00    -0.274 A  
HETATM   23  C   UNL     2     -12.035  11.819  68.611  1.00  0.00    -0.299 A  
HETATM   24  C   UNL     2      -9.934   9.919  68.406  1.00  0.00    -0.177 A  
HETATM   25  C   UNL     2      -8.467   8.396  69.582  1.00  0.00    -0.127 A  
HETATM   26  C   UNL     2     -11.540  11.158  69.738  1.00  0.00    -0.409 A  
HETATM   27  C   UNL     2      -9.086   8.793  70.756  1.00  0.00    -0.192 A  
HETATM   28  C   UNL     2     -10.505  10.555  67.281  1.00  0.00    -0.300 A  
HETATM   29  C   UNL     2      -8.864   8.965  68.362  1.00  0.00    -0.134 A  
HETATM   30  C   UNL     2     -10.487  10.251  69.668  1.00  0.00    -0.253 A  
HETATM   31  N   UNL     2     -10.069   9.708  70.815  1.00  0.00    -0.268 NA 
BRANCH  29  32
HETATM   32  C   UNL     2      -8.222   8.473  67.049  1.00  0.00    -0.107 C  
HETATM   33  H   UNL     2      -6.474   7.758  66.445  1.00  0.00     0.000 HD 
HETATM   34  O   UNL     2      -6.869   8.061  67.254  1.00  0.00    -0.070 OA 
BRANCH  32  35
HETATM   35  C   UNL     2      -8.946   7.295  66.298  1.00  0.00    -0.156 C  
HETATM   36  C   UNL     2     -10.534   5.486  67.070  1.00  0.00    -0.336 C  
HETATM   37  C   UNL     2     -10.267   4.830  65.704  1.00  0.00    -0.213 C  
HETATM   38  C   UNL     2      -8.820   5.109  65.271  1.00  0.00    -0.152 C  
HETATM   39  C   UNL     2     -10.355   7.004  66.878  1.00  0.00    -0.338 C  
HETATM   40  N   UNL     2      -8.139   6.028  66.214  1.00  0.00    -0.109 NA 
HETATM   41  C   UNL     2      -8.068   5.322  67.521  1.00  0.00    -0.100 C  
HETATM   42  C   UNL     2      -9.475   5.030  68.105  1.00  0.00    -0.169 C  
BRANCH  42  43
HETATM   43  C   UNL     2      -9.628   3.573  68.478  1.00  0.00    -0.151 C  
HETATM   44  C   UNL     2      -9.184   3.031  69.620  1.00  0.00    -0.219 C  
ENDBRANCH  42  43
ENDBRANCH  32  35
ENDBRANCH  29  32
ENDBRANCH   4  22
TORSDOF 6
ENDMDL
MODEL       42
REMARK 921   NORMALIZED FREE ENERGY PREDICTED BY IDOCK:   -5.39 KCAL/MOL
REMARK 922        TOTAL FREE ENERGY PREDICTED BY IDOCK:  -10.36 KCAL/MOL
REMARK 923 INTER-LIGAND FREE ENERGY PREDICTED BY IDOCK:   -8.92 KCAL/MOL
REMARK 924 INTRA-LIGAND FREE ENERGY PREDICTED BY IDOCK:   -1.44 KCAL/MOL
REMARK 927      BINDING AFFINITY PREDICTED BY RF-SCORE:    0.00 PKD
ROOT
HETATM    1  C   UNL     1      -6.100   8.455  68.417  1.00  0.00    -0.046 C  
HETATM    2  C   UNL     1      -7.608   8.497  68.654  1.00  0.00    -0.098 C  
HETATM    3  C   UNL     2      -5.681  10.711  65.815  1.00  0.00    -0.139 C  
HETATM    4  O   UNL     2      -6.914  10.706  66.516  1.00  0.00    -0.109 OA 
ENDROOT
BRANCH   2   5
HETATM    5  C   UNL     1      -8.460   7.344  68.024  1.00  0.00    -0.123 C  
HETATM    6  O   UNL     1     -10.314   8.715  67.150  1.00  0.00    -0.258 OA 
HETATM    7  C   UNL     1      -8.363   6.218  69.068  1.00  0.00    -0.117 C  
HETATM    8  C   UNL     1      -9.931   7.813  67.900  1.00  0.00    -0.172 C  
HETATM    9  H   UNL     1     -11.831   7.180  68.343  1.00  0.00     0.000 HD 
HETATM   10  N   UNL     1      -9.279   6.271  70.081  1.00  0.00    -0.156 N  
HETATM   11  O   UNL     1      -7.487   5.361  69.086  1.00  0.00    -0.074 OA 
HETATM   12  O   UNL     1     -11.467   5.873  70.428  1.00  0.00    -0.255 OA 
HETATM   13  N   UNL     1     -10.859   7.135  68.648  1.00  0.00    -0.154 N  
HETATM   14  C   UNL     1     -10.586   6.410  69.760  1.00  0.00    -0.254 C  
HETATM   15  H   UNL     1      -8.985   6.208  71.056  1.00  0.00     0.000 HD 
BRANCH   5  16
HETATM   16  C   UNL     1      -7.897   6.914  66.652  1.00  0.00    -0.107 A  
HETATM   17  C   UNL     1      -8.264   6.260  64.332  1.00  0.00    -0.040 A  
HETATM   18  C   UNL     1      -8.723   6.380  65.646  1.00  0.00    -0.108 A  
HETATM   19  C   UNL     1      -6.551   7.152  66.327  1.00  0.00    -0.052 A  
HETATM   20  C   UNL     1      -6.965   6.636  64.008  1.00  0.00    -0.051 A  
HETATM   21  C   UNL     1      -6.098   7.050  65.012  1.00  0.00    -0.037 A  
ENDBRANCH   5  16
ENDBRANCH   2   5
BRANCH   4  22
HETATM   22  C   UNL     2      -8.044  10.809  65.764  1.00  0.00    -0.135 A  
HETATM   23  C   UNL     2      -8.365  10.059  64.651  1.00  0.00    -0.167 A  
HETATM   24  C   UNL     2     -10.178  12.031  65.594  1.00  0.00    -0.284 A  
HETATM   25  C   UNL     2     -12.295  13.153  65.257  1.00  0.00    -0.532 A  
HETATM   26  C   UNL     2      -9.583  10.294  64.008  1.00  0.00    -0.365 A  
HETATM   27  C   UNL     2     -12.477  12.357  64.138  1.00  0.00    -0.442 A  
HETATM   28  C   UNL     2      -8.971  11.720  66.259  1.00  0.00    -0.176 A  
HETATM   29  C   UNL     2     -11.122  13.025  66.016  1.00  0.00    -0.301 A  
HETATM   30  C   UNL     2     -10.470  11.280  64.429  1.00  0.00    -0.345 A  
HETATM   31  N   UNL     2     -11.587  11.443  63.713  1.00  0.00    -0.221 NA 
BRANCH  29  32
HETATM   32  C   UNL     2     -10.952  13.863  67.300  1.00  0.00    -0.290 C  
HETATM   33  H   UNL     2     -10.909  13.558  69.259  1.00  0.00     0.000 HD 
HETATM   34  O   UNL     2     -11.014  13.042  68.469  1.00  0.00    -0.243 OA 
BRANCH  32  35
HETATM   35  C   UNL     2      -9.643  14.727  67.421  1.00  0.00    -0.210 C  
HETATM   36  C   UNL     2      -9.022  16.707  68.864  1.00  0.00    -0.239 C  
HETATM   37  C   UNL     2      -7.811  16.863  67.927  1.00  0.00    -0.180 C  
HETATM   38  C   UNL     2      -8.201  16.438  66.503  1.00  0.00    -0.306 C  
HETATM   39  C   UNL     2      -9.390  15.212  68.873  1.00  0.00    -0.207 C  
HETATM   40  N   UNL     2      -9.574  15.882  66.460  1.00  0.00    -0.249 NA 
HETATM   41  C   UNL     2     -10.493  16.986  66.847  1.00  0.00    -0.268 C  
HETATM   42  C   UNL     2     -10.244  17.474  68.298  1.00  0.00    -0.365 C  
BRANCH  42  43
HETATM   43  C   UNL     2     -10.058  18.973  68.355  1.00  0.00    -0.471 C  
HETATM   44  C   UNL     2     -10.476  19.826  67.411  1.00  0.00    -0.577 C  
ENDBRANCH  42  43
ENDBRANCH  32  35
ENDBRANCH  29  32
ENDBRANCH   4  22
TORSDOF 6
ENDMDL
MODEL       43
REMARK 921   NORMALIZED FREE ENERGY PREDICTED BY IDOCK:   -5.33 KCAL/MOL
REMARK 922        TOTAL FREE ENERGY PREDICTED BY IDOCK:  -10.28 KCAL/MOL
REMARK 923 INTER-LIGAND FREE ENERGY PREDICTED BY IDOCK:   -9.65 KCAL/MOL
REMARK 924 INTRA-LIGAND FREE ENERGY PREDICTED BY IDOCK:   -0.63 KCAL/MOL
REMARK 927      BINDING AFFINITY PREDICTED BY RF-SCORE:    0.00 PKD
ROOT
HETATM    1  C   UNL     1     -11.582  14.721  69.502  1.00  0.00    -0.339 C  
HETATM    2  C   UNL     1     -10.083  14.676  69.219  1.00  0.00    -0.125 C  
HETATM    3  C   UNL     2     -12.483  11.376  69.343  1.00  0.00     0.024 C  
HETATM    4  O   UNL     2     -11.106  11.703  69.431  1.00  0.00    -0.244 OA 
ENDROOT
BRANCH   2   5
HETATM    5  C   UNL     1      -9.623  15.016  67.760  1.00  0.00    -0.203 C  
HETATM    6  O   UNL     1      -7.751  13.420  67.601  1.00  0.00    -0.148 OA 
HETATM    7  C   UNL     1      -9.728  16.550  67.703  1.00  0.00    -0.239 C  
HETATM    8  C   UNL     1      -8.145  14.589  67.583  1.00  0.00    -0.179 C  
HETATM    9  H   UNL     1      -6.360  15.332  66.899  1.00  0.00     0.000 HD 
HETATM   10  N   UNL     1      -8.633  17.234  68.151  1.00  0.00    -0.235 N  
HETATM   11  O   UNL     1     -10.735  17.166  67.372  1.00  0.00    -0.323 OA 
HETATM   12  O   UNL     1      -6.545  17.742  67.484  1.00  0.00    -0.159 OA 
HETATM   13  N   UNL     1      -7.238  15.590  67.347  1.00  0.00    -0.194 N  
HETATM   14  C   UNL     1      -7.418  16.897  67.662  1.00  0.00    -0.160 C  
HETATM   15  H   UNL     1      -8.729  17.982  68.838  1.00  0.00     0.000 HD 
BRANCH   5  16
HETATM   16  C   UNL     1     -10.528  14.333  66.712  1.00  0.00    -0.273 A  
HETATM   17  C   UNL     1     -12.752  13.723  65.921  1.00  0.00    -0.452 A  
HETATM   18  C   UNL     1     -11.889  14.078  66.961  1.00  0.00    -0.458 A  
HETATM   19  C   UNL     1     -10.039  14.047  65.426  1.00  0.00    -0.343 A  
HETATM   20  C   UNL     1     -12.267  13.583  64.626  1.00  0.00    -0.450 A  
HETATM   21  C   UNL     1     -10.904  13.711  64.384  1.00  0.00    -0.374 A  
ENDBRANCH   5  16
ENDBRANCH   2   5
BRANCH   4  22
HETATM   22  C   UNL     2     -10.259  11.001  68.631  1.00  0.00    -0.199 A  
HETATM   23  C   UNL     2     -10.093  11.155  67.269  1.00  0.00    -0.218 A  
HETATM   24  C   UNL     2      -8.544   9.230  68.669  1.00  0.00    -0.127 A  
HETATM   25  C   UNL     2      -6.868   7.491  68.519  1.00  0.00    -0.066 A  
HETATM   26  C   UNL     2      -9.162  10.351  66.607  1.00  0.00    -0.178 A  
HETATM   27  C   UNL     2      -6.825   7.726  67.155  1.00  0.00    -0.069 A  
HETATM   28  C   UNL     2      -9.443  10.107  69.316  1.00  0.00    -0.231 A  
HETATM   29  C   UNL     2      -7.749   8.231  69.323  1.00  0.00    -0.103 A  
HETATM   30  C   UNL     2      -8.418   9.376  67.265  1.00  0.00    -0.125 A  
HETATM   31  N   UNL     2      -7.586   8.637  66.525  1.00  0.00    -0.088 NA 
BRANCH  29  32
HETATM   32  C   UNL     2      -7.746   8.018  70.850  1.00  0.00    -0.084 C  
HETATM   33  H   UNL     2      -7.921   9.120  72.490  1.00  0.00     0.000 HD 
HETATM   34  O   UNL     2      -7.923   9.252  71.549  1.00  0.00    -0.334 OA 
BRANCH  32  35
HETATM   35  C   UNL     2      -8.805   7.011  71.433  1.00  0.00    -0.129 C  
HETATM   36  C   UNL     2     -11.232   6.565  70.885  1.00  0.00    -0.366 C  
HETATM   37  C   UNL     2     -11.259   5.756  72.194  1.00  0.00    -0.327 C  
HETATM   38  C   UNL     2     -10.316   6.403  73.221  1.00  0.00    -0.233 C  
HETATM   39  C   UNL     2      -9.790   6.499  70.349  1.00  0.00    -0.193 C  
HETATM   40  N   UNL     2      -9.559   7.530  72.627  1.00  0.00    -0.158 NA 
HETATM   41  C   UNL     2     -10.559   8.564  72.251  1.00  0.00    -0.338 C  
HETATM   42  C   UNL     2     -11.545   8.057  71.167  1.00  0.00    -0.307 C  
BRANCH  42  43
HETATM   43  C   UNL     2     -12.983   8.273  71.581  1.00  0.00    -0.357 C  
HETATM   44  C   UNL     2     -13.413   9.301  72.324  1.00  0.00    -0.548 C  
ENDBRANCH  42  43
ENDBRANCH  32  35
ENDBRANCH  29  32
ENDBRANCH   4  22
TORSDOF 6
ENDMDL
MODEL       44
REMARK 921   NORMALIZED FREE ENERGY PREDICTED BY IDOCK:   -5.33 KCAL/MOL
REMARK 922        TOTAL FREE ENERGY PREDICTED BY IDOCK:  -10.27 KCAL/MOL
REMARK 923 INTER-LIGAND FREE ENERGY PREDICTED BY IDOCK:   -8.33 KCAL/MOL
REMARK 924 INTRA-LIGAND FREE ENERGY PREDICTED BY IDOCK:   -1.94 KCAL/MOL
REMARK 927      BINDING AFFINITY PREDICTED BY RF-SCORE:    0.00 PKD
ROOT
HETATM    1  C   UNL     1      -8.214   8.221  72.546  1.00  0.00    -0.224 C  
HETATM    2  C   UNL     1      -9.367   7.836  71.622  1.00  0.00    -0.174 C  
HETATM    3  C   UNL     2      -6.302  10.305  70.539  1.00  0.00    -0.112 C  
HETATM    4  O   UNL     2      -7.621   9.990  70.125  1.00  0.00    -0.162 OA 
ENDROOT
BRANCH   2   5
HETATM    5  C   UNL     1      -9.278   6.440  70.916  1.00  0.00    -0.161 C  
HETATM    6  O   UNL     1     -11.090   5.308  72.147  1.00  0.00    -0.207 OA 
HETATM    7  C   UNL     1      -7.764   6.204  70.785  1.00  0.00    -0.102 C  
HETATM    8  C   UNL     1      -9.895   5.364  71.844  1.00  0.00    -0.171 C  
HETATM    9  H   UNL     1      -9.463   3.515  72.619  1.00  0.00     0.000 HD 
HETATM   10  N   UNL     1      -7.159   5.634  71.871  1.00  0.00    -0.083 N  
HETATM   11  O   UNL     1      -7.084   6.564  69.832  1.00  0.00    -0.064 OA 
HETATM   12  O   UNL     1      -6.992   3.627  72.875  1.00  0.00    -0.041 OA 
HETATM   13  N   UNL     1      -9.047   4.393  72.309  1.00  0.00    -0.119 N  
HETATM   14  C   UNL     1      -7.698   4.507  72.391  1.00  0.00    -0.085 C  
HETATM   15  H   UNL     1      -6.321   6.047  72.279  1.00  0.00     0.000 HD 
BRANCH   5  16
HETATM   16  C   UNL     1      -9.983   6.460  69.543  1.00  0.00    -0.190 A  
HETATM   17  C   UNL     1     -11.015   7.706  67.718  1.00  0.00    -0.021 A  
HETATM   18  C   UNL     1     -10.630   7.612  69.058  1.00  0.00    -0.186 A  
HETATM   19  C   UNL     1      -9.900   5.353  68.682  1.00  0.00    -0.204 A  
HETATM   20  C   UNL     1     -10.792   6.643  66.850  1.00  0.00    -0.415 A  
HETATM   21  C   UNL     1     -10.266   5.454  67.340  1.00  0.00    -0.247 A  
ENDBRANCH   5  16
ENDBRANCH   2   5
BRANCH   4  22
HETATM   22  C   UNL     2      -7.795   9.702  68.807  1.00  0.00    -0.081 A  
HETATM   23  C   UNL     2      -7.131   8.735  68.079  1.00  0.00    -0.079 A  
HETATM   24  C   UNL     2      -9.112  10.335  66.821  1.00  0.00    -0.161 A  
HETATM   25  C   UNL     2     -10.288  10.850  64.770  1.00  0.00    -0.391 A  
HETATM   26  C   UNL     2      -7.450   8.569  66.729  1.00  0.00    -0.083 A  
HETATM   27  C   UNL     2      -9.527   9.872  64.152  1.00  0.00    -0.189 A  
HETATM   28  C   UNL     2      -8.813  10.428  68.198  1.00  0.00    -0.132 A  
HETATM   29  C   UNL     2     -10.090  11.126  66.132  1.00  0.00    -0.284 A  
HETATM   30  C   UNL     2      -8.390   9.366  66.081  1.00  0.00    -0.115 A  
HETATM   31  N   UNL     2      -8.586   9.145  64.778  1.00  0.00    -0.179 NA 
BRANCH  29  32
HETATM   32  C   UNL     2     -10.985  12.167  66.835  1.00  0.00    -0.270 C  
HETATM   33  H   UNL     2     -12.587  12.178  68.005  1.00  0.00     0.000 HD 
HETATM   34  O   UNL     2     -12.035  11.536  67.572  1.00  0.00    -0.629 OA 
BRANCH  32  35
HETATM   35  C   UNL     2     -10.278  13.169  67.819  1.00  0.00    -0.231 C  
HETATM   36  C   UNL     2     -10.714  15.587  68.413  1.00  0.00    -0.263 C  
HETATM   37  C   UNL     2      -9.332  15.550  69.088  1.00  0.00    -0.250 C  
HETATM   38  C   UNL     2      -8.399  14.612  68.306  1.00  0.00    -0.148 C  
HETATM   39  C   UNL     2     -11.279  14.156  68.475  1.00  0.00    -0.285 C  
HETATM   40  N   UNL     2      -9.121  13.917  67.215  1.00  0.00    -0.217 NA 
HETATM   41  C   UNL     2      -9.571  14.968  66.263  1.00  0.00    -0.307 C  
HETATM   42  C   UNL     2     -10.573  15.956  66.914  1.00  0.00    -0.309 C  
BRANCH  42  43
HETATM   43  C   UNL     2     -10.144  17.392  66.715  1.00  0.00    -0.313 C  
HETATM   44  C   UNL     2     -10.647  18.435  67.389  1.00  0.00    -0.445 C  
ENDBRANCH  42  43
ENDBRANCH  32  35
ENDBRANCH  29  32
ENDBRANCH   4  22
TORSDOF 6
ENDMDL
MODEL       45
REMARK 921   NORMALIZED FREE ENERGY PREDICTED BY IDOCK:   -5.32 KCAL/MOL
REMARK 922        TOTAL FREE ENERGY PREDICTED BY IDOCK:  -10.26 KCAL/MOL
REMARK 923 INTER-LIGAND FREE ENERGY PREDICTED BY IDOCK:   -8.52 KCAL/MOL
REMARK 924 INTRA-LIGAND FREE ENERGY PREDICTED BY IDOCK:   -1.75 KCAL/MOL
REMARK 927      BINDING AFFINITY PREDICTED BY RF-SCORE:    0.00 PKD
ROOT
HETATM    1  C   UNL     1     -11.155  14.823  64.931  1.00  0.00    -0.416 C  
HETATM    2  C   UNL     1     -11.474  15.232  66.367  1.00  0.00    -0.087 C  
HETATM    3  C   UNL     2     -11.396  11.366  65.059  1.00  0.00    -0.020 C  
HETATM    4  O   UNL     2     -11.924  12.122  66.136  1.00  0.00    -0.593 OA 
ENDROOT
BRANCH   2   5
HETATM    5  C   UNL     1     -10.260  15.564  67.300  1.00  0.00    -0.260 C  
HETATM    6  O   UNL     1     -11.365  15.161  69.467  1.00  0.00    -0.250 OA 
HETATM    7  C   UNL     1      -9.628  16.799  66.635  1.00  0.00    -0.258 C  
HETATM    8  C   UNL     1     -10.792  15.944  68.704  1.00  0.00    -0.291 C  
HETATM    9  H   UNL     1     -10.580  17.404  70.129  1.00  0.00     0.000 HD 
HETATM   10  N   UNL     1     -10.165  18.003  66.994  1.00  0.00    -0.346 N  
HETATM   11  O   UNL     1      -8.761  16.755  65.770  1.00  0.00    -0.496 OA 
HETATM   12  O   UNL     1     -10.160  19.424  68.740  1.00  0.00    -0.432 OA 
HETATM   13  N   UNL     1     -10.558  17.228  69.125  1.00  0.00    -0.287 N  
HETATM   14  C   UNL     1     -10.301  18.281  68.311  1.00  0.00    -0.357 C  
HETATM   15  H   UNL     1     -10.457  18.677  66.286  1.00  0.00     0.000 HD 
BRANCH   5  16
HETATM   16  C   UNL     1      -9.275  14.379  67.381  1.00  0.00    -0.199 A  
HETATM   17  C   UNL     1      -8.079  12.715  68.704  1.00  0.00    -0.010 A  
HETATM   18  C   UNL     1      -8.737  13.944  68.607  1.00  0.00    -0.075 A  
HETATM   19  C   UNL     1      -8.972  13.622  66.236  1.00  0.00     0.106 A  
HETATM   20  C   UNL     1      -7.916  11.918  67.577  1.00  0.00    -0.155 A  
HETATM   21  C   UNL     1      -8.333  12.387  66.336  1.00  0.00     0.208 A  
ENDBRANCH   5  16
ENDBRANCH   2   5
BRANCH   4  22
HETATM   22  C   UNL     2     -11.675  11.655  67.389  1.00  0.00    -0.201 A  
HETATM   23  C   UNL     2     -12.000  12.274  68.580  1.00  0.00    -0.272 A  
HETATM   24  C   UNL     2     -10.704   9.747  68.612  1.00  0.00    -0.247 A  
HETATM   25  C   UNL     2      -9.764   7.977  69.969  1.00  0.00    -0.173 A  
HETATM   26  C   UNL     2     -11.677  11.639  69.781  1.00  0.00    -0.425 A  
HETATM   27  C   UNL     2     -10.115   8.720  71.083  1.00  0.00    -0.247 A  
HETATM   28  C   UNL     2     -11.107  10.386  67.418  1.00  0.00    -0.297 A  
HETATM   29  C   UNL     2     -10.035   8.481  68.686  1.00  0.00    -0.197 A  
HETATM   30  C   UNL     2     -11.009  10.418  69.822  1.00  0.00    -0.293 A  
HETATM   31  N   UNL     2     -10.715   9.922  71.028  1.00  0.00    -0.267 NA 
BRANCH  29  32
HETATM   32  C   UNL     2      -9.707   7.623  67.448  1.00  0.00    -0.161 C  
HETATM   33  H   UNL     2      -8.585   7.761  65.818  1.00  0.00     0.000 HD 
HETATM   34  O   UNL     2      -8.787   8.290  66.581  1.00  0.00    -0.132 OA 
BRANCH  32  35
HETATM   35  C   UNL     2      -9.122   6.186  67.709  1.00  0.00    -0.117 C  
HETATM   36  C   UNL     2      -7.875   4.547  66.244  1.00  0.00    -0.099 C  
HETATM   37  C   UNL     2      -8.151   3.520  67.355  1.00  0.00    -0.082 C  
HETATM   38  C   UNL     2      -9.510   3.817  68.008  1.00  0.00    -0.164 C  
HETATM   39  C   UNL     2      -7.812   5.930  66.919  1.00  0.00    -0.101 C  
HETATM   40  N   UNL     2     -10.103   5.069  67.479  1.00  0.00    -0.170 NA 
HETATM   41  C   UNL     2     -10.361   4.840  66.032  1.00  0.00    -0.293 C  
HETATM   42  C   UNL     2      -9.054   4.585  65.238  1.00  0.00    -0.149 C  
BRANCH  42  43
HETATM   43  C   UNL     2      -9.145   3.322  64.413  1.00  0.00    -0.128 C  
HETATM   44  C   UNL     2      -8.411   3.075  63.320  1.00  0.00    -0.086 C  
ENDBRANCH  42  43
ENDBRANCH  32  35
ENDBRANCH  29  32
ENDBRANCH   4  22
TORSDOF 6
ENDMDL
MODEL       46
REMARK 921   NORMALIZED FREE ENERGY PREDICTED BY IDOCK:   -5.29 KCAL/MOL
REMARK 922        TOTAL FREE ENERGY PREDICTED BY IDOCK:  -10.22 KCAL/MOL
REMARK 923 INTER-LIGAND FREE ENERGY PREDICTED BY IDOCK:   -9.25 KCAL/MOL
REMARK 924 INTRA-LIGAND FREE ENERGY PREDICTED BY IDOCK:   -0.97 KCAL/MOL
REMARK 927      BINDING AFFINITY PREDICTED BY RF-SCORE:    0.00 PKD
ROOT
HETATM    1  C   UNL     1      -8.491  14.377  68.482  1.00  0.00    -0.170 C  
HETATM    2  C   UNL     1      -9.072  14.061  67.106  1.00  0.00    -0.239 C  
HETATM    3  C   UNL     2      -6.450  11.638  69.087  1.00  0.00    -0.095 C  
HETATM    4  O   UNL     2      -6.927  11.849  67.768  1.00  0.00    -0.086 OA 
ENDROOT
BRANCH   2   5
HETATM    5  C   UNL     1     -10.517  13.457  67.064  1.00  0.00    -0.257 C  
HETATM    6  O   UNL     1     -11.782  15.574  67.076  1.00  0.00    -0.050 OA 
HETATM    7  C   UNL     1     -10.430  12.259  68.025  1.00  0.00    -0.218 C  
HETATM    8  C   UNL     1     -11.517  14.500  67.623  1.00  0.00    -0.353 C  
HETATM    9  H   UNL     1     -13.050  14.647  68.978  1.00  0.00     0.000 HD 
HETATM   10  N   UNL     1     -10.643  12.543  69.345  1.00  0.00    -0.419 N  
HETATM   11  O   UNL     1     -10.106  11.124  67.694  1.00  0.00    -0.175 OA 
HETATM   12  O   UNL     1     -12.345  13.033  70.734  1.00  0.00    -0.363 OA 
HETATM   13  N   UNL     1     -12.173  14.166  68.780  1.00  0.00    -0.280 N  
HETATM   14  C   UNL     1     -11.747  13.248  69.682  1.00  0.00    -0.303 C  
HETATM   15  H   UNL     1      -9.985  12.231  70.060  1.00  0.00     0.000 HD 
BRANCH   5  16
HETATM   16  C   UNL     1     -10.906  13.027  65.634  1.00  0.00    -0.293 A  
HETATM   17  C   UNL     1     -10.280  12.108  63.463  1.00  0.00    -0.453 A  
HETATM   18  C   UNL     1      -9.936  12.758  64.651  1.00  0.00    -0.158 A  
HETATM   19  C   UNL     1     -12.249  12.779  65.303  1.00  0.00    -0.535 A  
HETATM   20  C   UNL     1     -11.602  11.747  63.222  1.00  0.00    -0.325 A  
HETATM   21  C   UNL     1     -12.591  12.113  64.127  1.00  0.00    -0.466 A  
ENDBRANCH   5  16
ENDBRANCH   2   5
BRANCH   4  22
HETATM   22  C   UNL     2      -7.361  10.751  67.092  1.00  0.00    -0.101 A  
HETATM   23  C   UNL     2      -7.482  10.620  65.723  1.00  0.00    -0.114 A  
HETATM   24  C   UNL     2      -8.144   8.435  67.414  1.00  0.00    -0.106 A  
HETATM   25  C   UNL     2      -8.961   6.162  67.549  1.00  0.00    -0.111 A  
HETATM   26  C   UNL     2      -7.934   9.406  65.200  1.00  0.00    -0.116 A  
HETATM   27  C   UNL     2      -9.067   6.176  66.168  1.00  0.00    -0.145 A  
HETATM   28  C   UNL     2      -7.618   9.652  67.904  1.00  0.00    -0.083 A  
HETATM   29  C   UNL     2      -8.508   7.308  68.222  1.00  0.00    -0.124 A  
HETATM   30  C   UNL     2      -8.300   8.335  66.009  1.00  0.00    -0.128 A  
HETATM   31  N   UNL     2      -8.758   7.236  65.401  1.00  0.00    -0.036 NA 
BRANCH  29  32
HETATM   32  C   UNL     2      -8.325   7.268  69.752  1.00  0.00    -0.135 C  
HETATM   33  H   UNL     2      -7.073   8.003  71.103  1.00  0.00     0.000 HD 
HETATM   34  O   UNL     2      -7.186   8.028  70.160  1.00  0.00    -0.055 OA 
BRANCH  32  35
HETATM   35  C   UNL     2      -9.536   7.758  70.629  1.00  0.00    -0.162 C  
HETATM   36  C   UNL     2     -10.192   7.342  73.035  1.00  0.00    -0.335 C  
HETATM   37  C   UNL     2     -11.550   7.954  72.649  1.00  0.00    -0.435 C  
HETATM   38  C   UNL     2     -11.883   7.598  71.191  1.00  0.00    -0.293 C  
HETATM   39  C   UNL     2      -9.137   7.980  72.112  1.00  0.00    -0.227 C  
HETATM   40  N   UNL     2     -10.758   6.887  70.538  1.00  0.00    -0.227 NA 
HETATM   41  C   UNL     2     -10.585   5.602  71.266  1.00  0.00    -0.255 C  
HETATM   42  C   UNL     2     -10.186   5.819  72.748  1.00  0.00    -0.211 C  
BRANCH  42  43
HETATM   43  C   UNL     2     -11.094   5.056  73.685  1.00  0.00    -0.336 C  
HETATM   44  C   UNL     2     -10.906   3.782  74.056  1.00  0.00    -0.270 C  
ENDBRANCH  42  43
ENDBRANCH  32  35
ENDBRANCH  29  32
ENDBRANCH   4  22
TORSDOF 6
ENDMDL
MODEL       47
REMARK 921   NORMALIZED FREE ENERGY PREDICTED BY IDOCK:   -5.24 KCAL/MOL
REMARK 922        TOTAL FREE ENERGY PREDICTED BY IDOCK:  -10.15 KCAL/MOL
REMARK 923 INTER-LIGAND FREE ENERGY PREDICTED BY IDOCK:   -8.93 KCAL/MOL
REMARK 924 INTRA-LIGAND FREE ENERGY PREDICTED BY IDOCK:   -1.22 KCAL/MOL
REMARK 927      BINDING AFFINITY PREDICTED BY RF-SCORE:    0.00 PKD
ROOT
HETATM    1  C   UNL     1      -8.230   8.544  71.279  1.00  0.00    -0.176 C  
HETATM    2  C   UNL     1      -9.539   9.319  71.150  1.00  0.00    -0.305 C  
HETATM    3  C   UNL     2      -6.594   9.325  68.322  1.00  0.00    -0.059 C  
HETATM    4  O   UNL     2      -7.717  10.104  68.701  1.00  0.00    -0.085 OA 
ENDROOT
BRANCH   2   5
HETATM    5  C   UNL     1     -10.801   8.515  70.685  1.00  0.00    -0.255 C  
HETATM    6  O   UNL     1     -11.711  10.173  69.104  1.00  0.00    -0.108 OA 
HETATM    7  C   UNL     1     -11.320   7.884  71.989  1.00  0.00    -0.292 C  
HETATM    8  C   UNL     1     -11.855   9.505  70.131  1.00  0.00     0.014 C  
HETATM    9  H   UNL     1     -13.849   9.951  70.314  1.00  0.00     0.000 HD 
HETATM   10  N   UNL     1     -12.158   8.667  72.732  1.00  0.00    -0.315 N  
HETATM   11  O   UNL     1     -10.966   6.793  72.421  1.00  0.00    -0.229 OA 
HETATM   12  O   UNL     1     -14.284   9.403  72.700  1.00  0.00    -0.432 OA 
HETATM   13  N   UNL     1     -13.038   9.594  70.819  1.00  0.00    -0.150 N  
HETATM   14  C   UNL     1     -13.215   9.243  72.116  1.00  0.00    -0.461 C  
HETATM   15  H   UNL     1     -11.990   8.813  73.727  1.00  0.00     0.000 HD 
BRANCH   5  16
HETATM   16  C   UNL     1     -10.431   7.450  69.631  1.00  0.00    -0.237 A  
HETATM   17  C   UNL     1     -10.957   6.238  67.581  1.00  0.00    -0.438 A  
HETATM   18  C   UNL     1     -11.367   6.979  68.692  1.00  0.00     0.110 A  
HETATM   19  C   UNL     1      -9.105   7.001  69.505  1.00  0.00    -0.146 A  
HETATM   20  C   UNL     1      -9.613   5.925  67.407  1.00  0.00    -0.117 A  
HETATM   21  C   UNL     1      -8.693   6.278  68.386  1.00  0.00    -0.116 A  
ENDBRANCH   5  16
ENDBRANCH   2   5
BRANCH   4  22
HETATM   22  C   UNL     2      -8.601  10.420  67.716  1.00  0.00    -0.122 A  
HETATM   23  C   UNL     2      -9.382   9.540  66.995  1.00  0.00    -0.183 A  
HETATM   24  C   UNL     2      -9.567  12.329  66.490  1.00  0.00    -0.242 A  
HETATM   25  C   UNL     2     -10.591  14.077  65.167  1.00  0.00    -0.400 A  
HETATM   26  C   UNL     2     -10.249  10.046  66.024  1.00  0.00    -0.277 A  
HETATM   27  C   UNL     2     -11.290  13.087  64.498  1.00  0.00    -0.339 A  
HETATM   28  C   UNL     2      -8.754  11.787  67.510  1.00  0.00    -0.159 A  
HETATM   29  C   UNL     2      -9.687  13.724  66.182  1.00  0.00    -0.280 A  
HETATM   30  C   UNL     2     -10.330  11.405  65.732  1.00  0.00    -0.255 A  
HETATM   31  N   UNL     2     -11.164  11.773  64.755  1.00  0.00    -0.297 NA 
BRANCH  29  32
HETATM   32  C   UNL     2      -8.962  14.831  66.973  1.00  0.00    -0.238 C  
HETATM   33  H   UNL     2      -8.007  16.527  66.590  1.00  0.00     0.000 HD 
HETATM   34  O   UNL     2      -8.454  15.845  66.103  1.00  0.00    -0.318 OA 
BRANCH  32  35
HETATM   35  C   UNL     2      -9.786  15.566  68.093  1.00  0.00    -0.216 C  
HETATM   36  C   UNL     2     -10.698  14.812  70.327  1.00  0.00    -0.006 C  
HETATM   37  C   UNL     2     -11.514  16.116  70.303  1.00  0.00    -0.319 C  
HETATM   38  C   UNL     2     -11.901  16.459  68.856  1.00  0.00     0.066 C  
HETATM   39  C   UNL     2      -9.415  15.074  69.516  1.00  0.00    -0.081 C  
HETATM   40  N   UNL     2     -11.276  15.521  67.893  1.00  0.00    -0.328 NA 
HETATM   41  C   UNL     2     -11.840  14.175  68.181  1.00  0.00    -0.352 C  
HETATM   42  C   UNL     2     -11.470  13.680  69.603  1.00  0.00    -0.286 C  
BRANCH  42  43
HETATM   43  C   UNL     2     -12.694  13.238  70.372  1.00  0.00    -0.103 C  
HETATM   44  C   UNL     2     -12.828  13.327  71.702  1.00  0.00    -0.397 C  
ENDBRANCH  42  43
ENDBRANCH  32  35
ENDBRANCH  29  32
ENDBRANCH   4  22
TORSDOF 6
ENDMDL
MODEL       48
REMARK 921   NORMALIZED FREE ENERGY PREDICTED BY IDOCK:   -5.23 KCAL/MOL
REMARK 922        TOTAL FREE ENERGY PREDICTED BY IDOCK:  -10.14 KCAL/MOL
REMARK 923 INTER-LIGAND FREE ENERGY PREDICTED BY IDOCK:   -8.37 KCAL/MOL
REMARK 924 INTRA-LIGAND FREE ENERGY PREDICTED BY IDOCK:   -1.77 KCAL/MOL
REMARK 927      BINDING AFFINITY PREDICTED BY RF-SCORE:    0.00 PKD
ROOT
HETATM    1  C   UNL     1      -5.722   9.286  65.028  1.00  0.00    -0.058 C  
HETATM    2  C   UNL     1      -6.491   8.146  65.691  1.00  0.00    -0.049 C  
HETATM    3  C   UNL     2      -6.117  11.882  67.295  1.00  0.00    -0.141 C  
HETATM    4  O   UNL     2      -6.439  10.564  67.710  1.00  0.00    -0.060 OA 
ENDROOT
BRANCH   2   5
HETATM    5  C   UNL     1      -7.943   7.870  65.171  1.00  0.00    -0.132 C  
HETATM    6  O   UNL     1      -8.925   7.068  67.286  1.00  0.00    -0.118 OA 
HETATM    7  C   UNL     1      -7.712   7.232  63.790  1.00  0.00    -0.120 C  
HETATM    8  C   UNL     1      -8.629   6.845  66.109  1.00  0.00    -0.143 C  
HETATM    9  H   UNL     1      -9.690   5.092  66.023  1.00  0.00     0.000 HD 
HETATM   10  N   UNL     1      -7.511   5.880  63.790  1.00  0.00    -0.065 N  
HETATM   11  O   UNL     1      -7.615   7.860  62.743  1.00  0.00    -0.109 OA 
HETATM   12  O   UNL     1      -8.688   3.978  64.038  1.00  0.00    -0.104 OA 
HETATM   13  N   UNL     1      -8.960   5.633  65.560  1.00  0.00    -0.140 N  
HETATM   14  C   UNL     1      -8.395   5.098  64.451  1.00  0.00    -0.137 C  
HETATM   15  H   UNL     1      -6.714   5.470  63.303  1.00  0.00     0.000 HD 
BRANCH   5  16
HETATM   16  C   UNL     1      -8.764   9.173  65.079  1.00  0.00    -0.222 A  
HETATM   17  C   UNL     1      -9.375  11.202  63.871  1.00  0.00    -0.197 A  
HETATM   18  C   UNL     1      -8.469  10.171  64.131  1.00  0.00    -0.182 A  
HETATM   19  C   UNL     1      -9.912   9.352  65.871  1.00  0.00    -0.327 A  
HETATM   20  C   UNL     1     -10.572  11.275  64.574  1.00  0.00    -0.401 A  
HETATM   21  C   UNL     1     -10.825  10.370  65.598  1.00  0.00     0.141 A  
ENDBRANCH   5  16
ENDBRANCH   2   5
BRANCH   4  22
HETATM   22  C   UNL     2      -7.579  10.415  68.438  1.00  0.00    -0.093 A  
HETATM   23  C   UNL     2      -7.832   9.441  69.383  1.00  0.00    -0.087 A  
HETATM   24  C   UNL     2      -9.797  11.416  68.832  1.00  0.00    -0.127 A  
HETATM   25  C   UNL     2     -12.018  12.245  69.318  1.00  0.00    -0.308 A  
HETATM   26  C   UNL     2      -9.061   9.448  70.047  1.00  0.00    -0.244 A  
HETATM   27  C   UNL     2     -12.154  11.197  70.213  1.00  0.00    -0.377 A  
HETATM   28  C   UNL     2      -8.519  11.418  68.231  1.00  0.00    -0.154 A  
HETATM   29  C   UNL     2     -10.830  12.378  68.581  1.00  0.00    -0.273 A  
HETATM   30  C   UNL     2     -10.053  10.383  69.768  1.00  0.00    -0.157 A  
HETATM   31  N   UNL     2     -11.206  10.271  70.436  1.00  0.00    -0.315 NA 
BRANCH  29  32
HETATM   32  C   UNL     2     -10.653  13.584  67.637  1.00  0.00    -0.241 C  
HETATM   33  H   UNL     2     -11.806  14.876  66.669  1.00  0.00     0.000 HD 
HETATM   34  O   UNL     2     -11.915  14.133  67.251  1.00  0.00    -0.397 OA 
BRANCH  32  35
HETATM   35  C   UNL     2      -9.780  14.782  68.164  1.00  0.00    -0.217 C  
HETATM   36  C   UNL     2     -10.197  17.270  68.324  1.00  0.00    -0.348 C  
HETATM   37  C   UNL     2      -8.688  17.388  68.603  1.00  0.00    -0.261 C  
HETATM   38  C   UNL     2      -7.931  16.303  67.820  1.00  0.00    -0.142 C  
HETATM   39  C   UNL     2     -10.638  15.886  68.835  1.00  0.00    -0.244 C  
HETATM   40  N   UNL     2      -8.865  15.381  67.132  1.00  0.00    -0.199 NA 
HETATM   41  C   UNL     2      -9.607  16.194  66.131  1.00  0.00    -0.327 C  
HETATM   42  C   UNL     2     -10.468  17.299  66.798  1.00  0.00    -0.261 C  
BRANCH  42  43
HETATM   43  C   UNL     2     -10.193  18.656  66.193  1.00  0.00    -0.450 C  
HETATM   44  C   UNL     2     -10.621  19.817  66.706  1.00  0.00    -0.586 C  
ENDBRANCH  42  43
ENDBRANCH  32  35
ENDBRANCH  29  32
ENDBRANCH   4  22
TORSDOF 6
ENDMDL
MODEL       49
REMARK 921   NORMALIZED FREE ENERGY PREDICTED BY IDOCK:   -5.23 KCAL/MOL
REMARK 922        TOTAL FREE ENERGY PREDICTED BY IDOCK:  -10.14 KCAL/MOL
REMARK 923 INTER-LIGAND FREE ENERGY PREDICTED BY IDOCK:   -8.88 KCAL/MOL
REMARK 924 INTRA-LIGAND FREE ENERGY PREDICTED BY IDOCK:   -1.26 KCAL/MOL
REMARK 927      BINDING AFFINITY PREDICTED BY RF-SCORE:    0.00 PKD
ROOT
HETATM    1  C   UNL     1     -11.081   6.412  68.891  1.00  0.00    -0.420 C  
HETATM    2  C   UNL     1     -10.166   6.202  70.095  1.00  0.00    -0.254 C  
HETATM    3  C   UNL     2      -9.315   8.714  66.991  1.00  0.00    -0.159 C  
HETATM    4  O   UNL     2      -8.640   8.044  68.043  1.00  0.00    -0.128 OA 
ENDROOT
BRANCH   2   5
HETATM    5  C   UNL     1     -10.521   6.984  71.405  1.00  0.00    -0.225 C  
HETATM    6  O   UNL     1     -11.656   5.154  72.607  1.00  0.00    -0.208 OA 
HETATM    7  C   UNL     1     -10.968   8.362  70.887  1.00  0.00    -0.243 C  
HETATM    8  C   UNL     1     -11.711   6.280  72.106  1.00  0.00    -0.319 C  
HETATM    9  H   UNL     1     -13.537   6.717  72.930  1.00  0.00     0.000 HD 
HETATM   10  N   UNL     1     -12.285   8.461  70.533  1.00  0.00    -0.468 N  
HETATM   11  O   UNL     1     -10.216   9.311  70.701  1.00  0.00    -0.229 OA 
HETATM   12  O   UNL     1     -14.309   8.604  71.506  1.00  0.00    -0.410 OA 
HETATM   13  N   UNL     1     -12.877   6.994  72.204  1.00  0.00    -0.131 N  
HETATM   14  C   UNL     1     -13.222   8.040  71.413  1.00  0.00    -0.227 C  
HETATM   15  H   UNL     1     -12.555   8.845  69.627  1.00  0.00     0.000 HD 
BRANCH   5  16
HETATM   16  C   UNL     1      -9.303   7.084  72.347  1.00  0.00    -0.152 A  
HETATM   17  C   UNL     1      -8.257   7.990  74.356  1.00  0.00    -0.284 A  
HETATM   18  C   UNL     1      -9.213   8.077  73.340  1.00  0.00    -0.332 A  
HETATM   19  C   UNL     1      -8.293   6.107  72.315  1.00  0.00    -0.113 A  
HETATM   20  C   UNL     1      -7.355   6.932  74.378  1.00  0.00    -0.107 A  
HETATM   21  C   UNL     1      -7.352   6.009  73.339  1.00  0.00    -0.089 A  
ENDBRANCH   5  16
ENDBRANCH   2   5
BRANCH   4  22
HETATM   22  C   UNL     2      -7.819   8.800  68.821  1.00  0.00    -0.101 A  
HETATM   23  C   UNL     2      -6.967   8.345  69.807  1.00  0.00    -0.047 A  
HETATM   24  C   UNL     2      -7.088  11.121  69.219  1.00  0.00    -0.123 A  
HETATM   25  C   UNL     2      -6.285  13.337  69.766  1.00  0.00    -0.110 A  
HETATM   26  C   UNL     2      -6.182   9.269  70.501  1.00  0.00    -0.058 A  
HETATM   27  C   UNL     2      -5.503  12.752  70.748  1.00  0.00    -0.179 A  
HETATM   28  C   UNL     2      -7.815  10.152  68.493  1.00  0.00    -0.095 A  
HETATM   29  C   UNL     2      -7.122  12.534  68.976  1.00  0.00    -0.037 A  
HETATM   30  C   UNL     2      -6.251  10.638  70.256  1.00  0.00    -0.139 A  
HETATM   31  N   UNL     2      -5.484  11.433  71.008  1.00  0.00    -0.288 NA 
BRANCH  29  32
HETATM   32  C   UNL     2      -7.939  13.177  67.837  1.00  0.00    -0.158 C  
HETATM   33  H   UNL     2      -8.785  12.614  66.134  1.00  0.00     0.000 HD 
HETATM   34  O   UNL     2      -8.281  12.217  66.835  1.00  0.00    -0.172 OA 
BRANCH  32  35
HETATM   35  C   UNL     2      -9.273  13.907  68.240  1.00  0.00    -0.207 C  
HETATM   36  C   UNL     2     -10.629  15.735  67.141  1.00  0.00    -0.313 C  
HETATM   37  C   UNL     2     -11.375  15.830  68.484  1.00  0.00    -0.374 C  
HETATM   38  C   UNL     2     -10.406  15.525  69.637  1.00  0.00    -0.283 C  
HETATM   39  C   UNL     2     -10.135  14.283  67.007  1.00  0.00    -0.260 C  
HETATM   40  N   UNL     2      -9.078  15.104  69.131  1.00  0.00    -0.217 NA 
HETATM   41  C   UNL     2      -8.515  16.265  68.391  1.00  0.00    -0.195 C  
HETATM   42  C   UNL     2      -9.373  16.644  67.156  1.00  0.00    -0.236 C  
BRANCH  42  43
HETATM   43  C   UNL     2      -9.729  18.113  67.157  1.00  0.00    -0.301 C  
HETATM   44  C   UNL     2     -10.462  18.717  66.213  1.00  0.00    -0.489 C  
ENDBRANCH  42  43
ENDBRANCH  32  35
ENDBRANCH  29  32
ENDBRANCH   4  22
TORSDOF 6
ENDMDL
MODEL       50
REMARK 921   NORMALIZED FREE ENERGY PREDICTED BY IDOCK:   -5.18 KCAL/MOL
REMARK 922        TOTAL FREE ENERGY PREDICTED BY IDOCK:  -10.08 KCAL/MOL
REMARK 923 INTER-LIGAND FREE ENERGY PREDICTED BY IDOCK:   -8.48 KCAL/MOL
REMARK 924 INTRA-LIGAND FREE ENERGY PREDICTED BY IDOCK:   -1.59 KCAL/MOL
REMARK 927      BINDING AFFINITY PREDICTED BY RF-SCORE:    0.00 PKD
ROOT
HETATM    1  C   UNL     1      -5.897   8.303  66.297  1.00  0.00    -0.040 C  
HETATM    2  C   UNL     1      -6.995   7.821  67.242  1.00  0.00    -0.078 C  
HETATM    3  C   UNL     2      -6.094  11.752  66.606  1.00  0.00    -0.033 C  
HETATM    4  O   UNL     2      -6.760  10.947  67.566  1.00  0.00    -0.070 OA 
ENDROOT
BRANCH   2   5
HETATM    5  C   UNL     1      -8.364   7.418  66.596  1.00  0.00    -0.124 C  
HETATM    6  O   UNL     1      -9.803   7.789  68.564  1.00  0.00    -0.163 OA 
HETATM    7  C   UNL     1      -8.009   6.184  65.749  1.00  0.00    -0.115 C  
HETATM    8  C   UNL     1      -9.352   7.012  67.718  1.00  0.00    -0.125 C  
HETATM    9  H   UNL     1     -10.649   5.500  68.206  1.00  0.00     0.000 HD 
HETATM   10  N   UNL     1      -8.028   4.987  66.411  1.00  0.00    -0.107 N  
HETATM   11  O   UNL     1      -7.639   6.225  64.582  1.00  0.00    -0.084 OA 
HETATM   12  O   UNL     1      -9.518   3.512  67.229  1.00  0.00    -0.200 OA 
HETATM   13  N   UNL     1      -9.775   5.707  67.724  1.00  0.00    -0.119 N  
HETATM   14  C   UNL     1      -9.124   4.672  67.139  1.00  0.00    -0.122 C  
HETATM   15  H   UNL     1      -7.236   4.347  66.356  1.00  0.00     0.000 HD 
BRANCH   5  16
HETATM   16  C   UNL     1      -8.940   8.564  65.738  1.00  0.00    -0.229 A  
HETATM   17  C   UNL     1     -10.571  10.349  65.422  1.00  0.00    -0.080 A  
HETATM   18  C   UNL     1     -10.191   9.145  66.019  1.00  0.00    -0.093 A  
HETATM   19  C   UNL     1      -8.173   9.143  64.713  1.00  0.00    -0.150 A  
HETATM   20  C   UNL     1      -9.727  10.976  64.511  1.00  0.00    -0.323 A  
HETATM   21  C   UNL     1      -8.543  10.355  64.131  1.00  0.00    -0.186 A  
ENDBRANCH   5  16
ENDBRANCH   2   5
BRANCH   4  22
HETATM   22  C   UNL     2      -8.010  11.339  67.931  1.00  0.00    -0.118 A  
HETATM   23  C   UNL     2      -8.815  10.746  68.882  1.00  0.00    -0.154 A  
HETATM   24  C   UNL     2      -9.731  13.050  67.496  1.00  0.00    -0.206 A  
HETATM   25  C   UNL     2     -11.540  14.624  67.171  1.00  0.00    -0.394 A  
HETATM   26  C   UNL     2     -10.074  11.296  69.138  1.00  0.00    -0.093 A  
HETATM   27  C   UNL     2     -12.255  13.915  68.121  1.00  0.00    -0.150 A  
HETATM   28  C   UNL     2      -8.439  12.508  67.312  1.00  0.00    -0.185 A  
HETATM   29  C   UNL     2     -10.250  14.199  66.814  1.00  0.00    -0.262 A  
HETATM   30  C   UNL     2     -10.559  12.401  68.446  1.00  0.00    -0.236 A  
HETATM   31  N   UNL     2     -11.793  12.818  68.746  1.00  0.00    -0.315 NA 
BRANCH  29  32
HETATM   32  C   UNL     2      -9.428  15.030  65.808  1.00  0.00    -0.225 C  
HETATM   33  H   UNL     2      -9.770  16.260  64.290  1.00  0.00     0.000 HD 
HETATM   34  O   UNL     2     -10.277  15.749  64.910  1.00  0.00    -0.449 OA 
BRANCH  32  35
HETATM   35  C   UNL     2      -8.412  16.072  66.404  1.00  0.00    -0.327 C  
HETATM   36  C   UNL     2      -8.523  17.638  68.384  1.00  0.00    -0.287 C  
HETATM   37  C   UNL     2      -7.271  18.301  67.784  1.00  0.00    -0.215 C  
HETATM   38  C   UNL     2      -7.334  18.232  66.250  1.00  0.00    -0.260 C  
HETATM   39  C   UNL     2      -8.498  16.161  67.950  1.00  0.00    -0.166 C  
HETATM   40  N   UNL     2      -8.502  17.443  65.791  1.00  0.00    -0.500 NA 
HETATM   41  C   UNL     2      -9.715  18.177  66.239  1.00  0.00    -0.276 C  
HETATM   42  C   UNL     2      -9.806  18.268  67.785  1.00  0.00    -0.328 C  
BRANCH  42  43
HETATM   43  C   UNL     2     -10.015  19.692  68.245  1.00  0.00    -0.543 C  
HETATM   44  C   UNL     2      -9.944  20.766  67.447  1.00  0.00    -0.355 C  
ENDBRANCH  42  43
ENDBRANCH  32  35
ENDBRANCH  29  32
ENDBRANCH   4  22
TORSDOF 6
ENDMDL
MODEL       51
REMARK 921   NORMALIZED FREE ENERGY PREDICTED BY IDOCK:   -5.17 KCAL/MOL
REMARK 922        TOTAL FREE ENERGY PREDICTED BY IDOCK:  -10.07 KCAL/MOL
REMARK 923 INTER-LIGAND FREE ENERGY PREDICTED BY IDOCK:   -8.94 KCAL/MOL
REMARK 924 INTRA-LIGAND FREE ENERGY PREDICTED BY IDOCK:   -1.12 KCAL/MOL
REMARK 927      BINDING AFFINITY PREDICTED BY RF-SCORE:    0.00 PKD
ROOT
HETATM    1  C   UNL     1      -7.389   6.825  67.351  1.00  0.00    -0.095 C  
HETATM    2  C   UNL     1      -8.051   6.650  68.715  1.00  0.00    -0.119 C  
HETATM    3  C   UNL     2      -7.693  10.235  66.795  1.00  0.00    -0.111 C  
HETATM    4  O   UNL     2      -7.925   9.739  68.103  1.00  0.00    -0.099 OA 
ENDROOT
BRANCH   2   5
HETATM    5  C   UNL     1      -9.530   6.133  68.728  1.00  0.00    -0.128 C  
HETATM    6  O   UNL     1      -9.073   3.782  69.318  1.00  0.00    -0.108 OA 
HETATM    7  C   UNL     1     -10.160   6.826  67.508  1.00  0.00    -0.170 C  
HETATM    8  C   UNL     1      -9.530   4.599  68.513  1.00  0.00    -0.147 C  
HETATM    9  H   UNL     1     -10.440   3.168  67.359  1.00  0.00     0.000 HD 
HETATM   10  N   UNL     1     -10.000   6.180  66.314  1.00  0.00    -0.377 N  
HETATM   11  O   UNL     1     -10.700   7.925  67.535  1.00  0.00    -0.247 OA 
HETATM   12  O   UNL     1     -10.805   4.385  65.221  1.00  0.00    -0.260 OA 
HETATM   13  N   UNL     1     -10.124   4.138  67.366  1.00  0.00    -0.014 N  
HETATM   14  C   UNL     1     -10.324   4.869  66.242  1.00  0.00    -0.298 C  
HETATM   15  H   UNL     1      -9.645   6.675  65.495  1.00  0.00     0.000 HD 
BRANCH   5  16
HETATM   16  C   UNL     1     -10.245   6.509  70.043  1.00  0.00    -0.219 A  
HETATM   17  C   UNL     1     -12.299   6.735  71.339  1.00  0.00    -0.403 A  
HETATM   18  C   UNL     1     -11.641   6.674  70.108  1.00  0.00    -0.446 A  
HETATM   19  C   UNL     1      -9.527   6.586  71.249  1.00  0.00    -0.172 A  
HETATM   20  C   UNL     1     -11.574   6.667  72.523  1.00  0.00    -0.243 A  
HETATM   21  C   UNL     1     -10.185   6.627  72.478  1.00  0.00    -0.203 A  
ENDBRANCH   5  16
ENDBRANCH   2   5
BRANCH   4  22
HETATM   22  C   UNL     2      -8.991  10.255  68.773  1.00  0.00    -0.155 A  
HETATM   23  C   UNL     2      -9.605   9.717  69.885  1.00  0.00    -0.260 A  
HETATM   24  C   UNL     2     -10.546  12.168  68.802  1.00  0.00    -0.230 A  
HETATM   25  C   UNL     2     -12.173  13.952  68.959  1.00  0.00    -0.274 A  
HETATM   26  C   UNL     2     -10.686  10.395  70.454  1.00  0.00    -0.186 A  
HETATM   27  C   UNL     2     -12.716  13.288  70.046  1.00  0.00     0.157 A  
HETATM   28  C   UNL     2      -9.413  11.491  68.297  1.00  0.00    -0.189 A  
HETATM   29  C   UNL     2     -11.072  13.398  68.287  1.00  0.00    -0.289 A  
HETATM   30  C   UNL     2     -11.188  11.578  69.919  1.00  0.00    -0.104 A  
HETATM   31  N   UNL     2     -12.252  12.119  70.521  1.00  0.00    -0.349 NA 
BRANCH  29  32
HETATM   32  C   UNL     2     -10.426  14.173  67.120  1.00  0.00    -0.270 C  
HETATM   33  H   UNL     2     -10.534  14.207  65.140  1.00  0.00     0.000 HD 
HETATM   34  O   UNL     2     -10.932  13.730  65.858  1.00  0.00    -0.282 OA 
BRANCH  32  35
HETATM   35  C   UNL     2     -10.564  15.739  67.139  1.00  0.00    -0.313 C  
HETATM   36  C   UNL     2      -8.917  17.612  66.728  1.00  0.00    -0.272 C  
HETATM   37  C   UNL     2      -9.994  18.535  67.326  1.00  0.00    -0.350 C  
HETATM   38  C   UNL     2     -10.772  17.783  68.417  1.00  0.00    -0.197 C  
HETATM   39  C   UNL     2      -9.655  16.424  66.085  1.00  0.00    -0.356 C  
HETATM   40  N   UNL     2     -10.359  16.361  68.494  1.00  0.00    -0.255 NA 
HETATM   41  C   UNL     2      -8.929  16.353  68.903  1.00  0.00    -0.256 C  
HETATM   42  C   UNL     2      -8.017  17.036  67.851  1.00  0.00    -0.192 C  
BRANCH  42  43
HETATM   43  C   UNL     2      -7.139  18.092  68.481  1.00  0.00    -0.262 C  
HETATM   44  C   UNL     2      -6.206  18.795  67.824  1.00  0.00    -0.200 C  
ENDBRANCH  42  43
ENDBRANCH  32  35
ENDBRANCH  29  32
ENDBRANCH   4  22
TORSDOF 6
ENDMDL
MODEL       52
REMARK 921   NORMALIZED FREE ENERGY PREDICTED BY IDOCK:   -5.17 KCAL/MOL
REMARK 922        TOTAL FREE ENERGY PREDICTED BY IDOCK:  -10.06 KCAL/MOL
REMARK 923 INTER-LIGAND FREE ENERGY PREDICTED BY IDOCK:   -8.77 KCAL/MOL
REMARK 924 INTRA-LIGAND FREE ENERGY PREDICTED BY IDOCK:   -1.29 KCAL/MOL
REMARK 927      BINDING AFFINITY PREDICTED BY RF-SCORE:    0.00 PKD
ROOT
HETATM    1  C   UNL     1      -6.851   7.740  71.493  1.00  0.00    -0.050 C  
HETATM    2  C   UNL     1      -8.186   8.390  71.851  1.00  0.00    -0.210 C  
HETATM    3  C   UNL     2      -6.260   8.943  68.294  1.00  0.00    -0.054 C  
HETATM    4  O   UNL     2      -7.263   9.569  69.079  1.00  0.00    -0.068 OA 
ENDROOT
BRANCH   2   5
HETATM    5  C   UNL     1      -9.472   7.509  71.695  1.00  0.00    -0.170 C  
HETATM    6  O   UNL     1     -10.002   7.236  74.088  1.00  0.00    -0.271 OA 
HETATM    7  C   UNL     1      -9.100   6.535  70.564  1.00  0.00    -0.152 C  
HETATM    8  C   UNL     1      -9.705   6.719  73.007  1.00  0.00    -0.162 C  
HETATM    9  H   UNL     1     -10.086   4.809  73.652  1.00  0.00     0.000 HD 
HETATM   10  N   UNL     1      -8.437   5.404  70.953  1.00  0.00    -0.117 N  
HETATM   11  O   UNL     1      -9.283   6.751  69.372  1.00  0.00    -0.143 OA 
HETATM   12  O   UNL     1      -8.856   3.444  71.976  1.00  0.00    -0.090 OA 
HETATM   13  N   UNL     1      -9.617   5.353  72.928  1.00  0.00    -0.144 N  
HETATM   14  C   UNL     1      -8.955   4.668  71.963  1.00  0.00    -0.126 C  
HETATM   15  H   UNL     1      -7.571   5.121  70.492  1.00  0.00     0.000 HD 
BRANCH   5  16
HETATM   16  C   UNL     1     -10.702   8.370  71.339  1.00  0.00    -0.298 A  
HETATM   17  C   UNL     1     -13.118   8.700  71.340  1.00  0.00    -0.277 A  
HETATM   18  C   UNL     1     -12.009   7.852  71.388  1.00  0.00    -0.331 A  
HETATM   19  C   UNL     1     -10.559   9.741  71.064  1.00  0.00    -0.295 A  
HETATM   20  C   UNL     1     -12.943  10.073  71.207  1.00  0.00    -0.495 A  
HETATM   21  C   UNL     1     -11.665  10.590  71.035  1.00  0.00    -0.384 A  
ENDBRANCH   5  16
ENDBRANCH   2   5
BRANCH   4  22
HETATM   22  C   UNL     2      -8.425   9.883  68.446  1.00  0.00    -0.111 A  
HETATM   23  C   UNL     2      -9.411   9.003  68.047  1.00  0.00    -0.153 A  
HETATM   24  C   UNL     2      -9.736  11.787  67.589  1.00  0.00    -0.186 A  
HETATM   25  C   UNL     2     -11.136  13.530  66.663  1.00  0.00    -0.309 A  
HETATM   26  C   UNL     2     -10.552   9.507  67.419  1.00  0.00    -0.337 A  
HETATM   27  C   UNL     2     -12.027  12.540  66.287  1.00  0.00    -0.343 A  
HETATM   28  C   UNL     2      -8.629  11.249  68.282  1.00  0.00    -0.153 A  
HETATM   29  C   UNL     2      -9.944  13.179  67.317  1.00  0.00    -0.230 A  
HETATM   30  C   UNL     2     -10.717  10.863  67.150  1.00  0.00    -0.270 A  
HETATM   31  N   UNL     2     -11.831  11.228  66.508  1.00  0.00    -0.107 NA 
BRANCH  29  32
HETATM   32  C   UNL     2      -8.985  14.288  67.797  1.00  0.00    -0.188 C  
HETATM   33  H   UNL     2      -7.200  15.001  67.310  1.00  0.00     0.000 HD 
HETATM   34  O   UNL     2      -7.790  14.319  67.014  1.00  0.00    -0.116 OA 
BRANCH  32  35
HETATM   35  C   UNL     2      -9.548  15.757  67.823  1.00  0.00    -0.214 C  
HETATM   36  C   UNL     2      -8.630  17.962  66.996  1.00  0.00    -0.248 C  
HETATM   37  C   UNL     2      -9.756  18.608  67.821  1.00  0.00    -0.344 C  
HETATM   38  C   UNL     2     -10.024  17.768  69.080  1.00  0.00    -0.264 C  
HETATM   39  C   UNL     2      -9.131  16.570  66.570  1.00  0.00    -0.307 C  
HETATM   40  N   UNL     2      -9.224  16.520  69.078  1.00  0.00    -0.257 NA 
HETATM   41  C   UNL     2      -7.795  16.930  69.130  1.00  0.00    -0.116 C  
HETATM   42  C   UNL     2      -7.374  17.742  67.878  1.00  0.00    -0.215 C  
BRANCH  42  43
HETATM   43  C   UNL     2      -6.707  19.044  68.260  1.00  0.00    -0.263 C  
HETATM   44  C   UNL     2      -6.032  19.830  67.410  1.00  0.00    -0.203 C  
ENDBRANCH  42  43
ENDBRANCH  32  35
ENDBRANCH  29  32
ENDBRANCH   4  22
TORSDOF 6
ENDMDL
MODEL       53
REMARK 921   NORMALIZED FREE ENERGY PREDICTED BY IDOCK:   -5.16 KCAL/MOL
REMARK 922        TOTAL FREE ENERGY PREDICTED BY IDOCK:  -10.05 KCAL/MOL
REMARK 923 INTER-LIGAND FREE ENERGY PREDICTED BY IDOCK:   -9.78 KCAL/MOL
REMARK 924 INTRA-LIGAND FREE ENERGY PREDICTED BY IDOCK:   -0.27 KCAL/MOL
REMARK 927      BINDING AFFINITY PREDICTED BY RF-SCORE:    0.00 PKD
ROOT
HETATM    1  C   UNL     1     -10.353   7.239  68.226  1.00  0.00    -0.227 C  
HETATM    2  C   UNL     1      -9.779   7.135  69.637  1.00  0.00    -0.158 C  
HETATM    3  C   UNL     2      -8.038   9.260  66.616  1.00  0.00    -0.108 C  
HETATM    4  O   UNL     2      -7.686   8.690  67.866  1.00  0.00    -0.100 OA 
ENDROOT
BRANCH   2   5
HETATM    5  C   UNL     1     -10.403   8.068  70.730  1.00  0.00    -0.214 C  
HETATM    6  O   UNL     1      -8.317   9.109  71.534  1.00  0.00    -0.336 OA 
HETATM    7  C   UNL     1     -11.476   7.180  71.384  1.00  0.00    -0.272 C  
HETATM    8  C   UNL     1      -9.314   8.422  71.773  1.00  0.00    -0.226 C  
HETATM    9  H   UNL     1      -9.026   8.454  73.804  1.00  0.00     0.000 HD 
HETATM   10  N   UNL     1     -11.038   6.373  72.397  1.00  0.00    -0.255 N  
HETATM   11  O   UNL     1     -12.637   7.098  71.002  1.00  0.00    -0.357 OA 
HETATM   12  O   UNL     1     -10.408   6.526  74.552  1.00  0.00    -0.341 OA 
HETATM   13  N   UNL     1      -9.515   7.969  73.052  1.00  0.00    -0.264 N  
HETATM   14  C   UNL     1     -10.313   6.929  73.395  1.00  0.00    -0.308 C  
HETATM   15  H   UNL     1     -11.253   5.376  72.401  1.00  0.00     0.000 HD 
BRANCH   5  16
HETATM   16  C   UNL     1     -11.006   9.342  70.103  1.00  0.00    -0.282 A  
HETATM   17  C   UNL     1     -12.063  11.525  70.362  1.00  0.00    -0.471 A  
HETATM   18  C   UNL     1     -11.765  10.254  70.860  1.00  0.00    -0.472 A  
HETATM   19  C   UNL     1     -10.717   9.689  68.772  1.00  0.00    -0.234 A  
HETATM   20  C   UNL     1     -11.642  11.894  69.090  1.00  0.00    -0.373 A  
HETATM   21  C   UNL     1     -10.998  10.964  68.282  1.00  0.00    -0.293 A  
ENDBRANCH   5  16
ENDBRANCH   2   5
BRANCH   4  22
HETATM   22  C   UNL     2      -7.041   9.501  68.747  1.00  0.00    -0.068 A  
HETATM   23  C   UNL     2      -6.177   9.109  69.749  1.00  0.00    -0.039 A  
HETATM   24  C   UNL     2      -6.727  11.869  69.361  1.00  0.00    -0.081 A  
HETATM   25  C   UNL     2      -6.331  14.132  70.120  1.00  0.00    -0.125 A  
HETATM   26  C   UNL     2      -5.591  10.087  70.557  1.00  0.00    -0.064 A  
HETATM   27  C   UNL     2      -5.512  13.601  71.102  1.00  0.00    -0.203 A  
HETATM   28  C   UNL     2      -7.246  10.858  68.521  1.00  0.00    -0.090 A  
HETATM   29  C   UNL     2      -6.983  13.272  69.221  1.00  0.00     0.018 A  
HETATM   30  C   UNL     2      -5.874  11.442  70.410  1.00  0.00    -0.153 A  
HETATM   31  N   UNL     2      -5.288  12.286  71.265  1.00  0.00    -0.332 NA 
BRANCH  29  32
HETATM   32  C   UNL     2      -7.838  13.868  68.084  1.00  0.00    -0.147 C  
HETATM   33  H   UNL     2      -8.430  13.351  66.264  1.00  0.00     0.000 HD 
HETATM   34  O   UNL     2      -7.903  12.983  66.964  1.00  0.00    -0.103 OA 
BRANCH  32  35
HETATM   35  C   UNL     2      -9.319  14.263  68.437  1.00  0.00    -0.208 C  
HETATM   36  C   UNL     2     -10.972  15.850  67.370  1.00  0.00    -0.257 C  
HETATM   37  C   UNL     2     -11.797  15.672  68.657  1.00  0.00    -0.306 C  
HETATM   38  C   UNL     2     -10.853  15.483  69.855  1.00  0.00    -0.302 C  
HETATM   39  C   UNL     2     -10.169  14.551  67.172  1.00  0.00    -0.260 C  
HETATM   40  N   UNL     2      -9.439  15.395  69.420  1.00  0.00    -0.262 NA 
HETATM   41  C   UNL     2      -9.099  16.707  68.808  1.00  0.00    -0.256 C  
HETATM   42  C   UNL     2      -9.946  16.998  67.542  1.00  0.00    -0.274 C  
BRANCH  42  43
HETATM   43  C   UNL     2     -10.610  18.354  67.619  1.00  0.00    -0.437 C  
HETATM   44  C   UNL     2     -10.507  19.304  66.680  1.00  0.00    -0.541 C  
ENDBRANCH  42  43
ENDBRANCH  32  35
ENDBRANCH  29  32
ENDBRANCH   4  22
TORSDOF 6
ENDMDL
MODEL       54
REMARK 921   NORMALIZED FREE ENERGY PREDICTED BY IDOCK:   -5.16 KCAL/MOL
REMARK 922        TOTAL FREE ENERGY PREDICTED BY IDOCK:  -10.04 KCAL/MOL
REMARK 923 INTER-LIGAND FREE ENERGY PREDICTED BY IDOCK:   -8.65 KCAL/MOL
REMARK 924 INTRA-LIGAND FREE ENERGY PREDICTED BY IDOCK:   -1.39 KCAL/MOL
REMARK 927      BINDING AFFINITY PREDICTED BY RF-SCORE:    0.00 PKD
ROOT
HETATM    1  C   UNL     1     -10.550  11.762  63.687  1.00  0.00    -0.496 C  
HETATM    2  C   UNL     1     -11.126  11.570  65.088  1.00  0.00    -0.260 C  
HETATM    3  C   UNL     2      -7.206  10.955  64.129  1.00  0.00     0.588 C  
HETATM    4  O   UNL     2      -8.128  10.602  65.147  1.00  0.00    -0.146 OA 
ENDROOT
BRANCH   2   5
HETATM    5  C   UNL     1     -11.325  12.858  65.959  1.00  0.00    -0.354 C  
HETATM    6  O   UNL     1     -13.760  13.108  65.662  1.00  0.00     0.247 OA 
HETATM    7  C   UNL     1     -10.109  13.726  65.593  1.00  0.00    -0.298 C  
HETATM    8  C   UNL     1     -12.626  13.571  65.515  1.00  0.00    -0.481 C  
HETATM    9  H   UNL     1     -13.301  15.435  64.985  1.00  0.00     0.000 HD 
HETATM   10  N   UNL     1     -10.257  14.515  64.487  1.00  0.00    -0.491 N  
HETATM   11  O   UNL     1      -9.027  13.683  66.168  1.00  0.00     0.024 OA 
HETATM   12  O   UNL     1     -11.303  16.408  63.867  1.00  0.00    -0.967 OA 
HETATM   13  N   UNL     1     -12.487  14.820  64.966  1.00  0.00    -0.234 N  
HETATM   14  C   UNL     1     -11.353  15.303  64.400  1.00  0.00    -0.215 C  
HETATM   15  H   UNL     1      -9.558  14.510  63.744  1.00  0.00     0.000 HD 
BRANCH   5  16
HETATM   16  C   UNL     1     -11.365  12.517  67.463  1.00  0.00    -0.368 A  
HETATM   17  C   UNL     1     -12.104  13.043  69.727  1.00  0.00    -0.325 A  
HETATM   18  C   UNL     1     -11.808  13.446  68.423  1.00  0.00    -0.401 A  
HETATM   19  C   UNL     1     -11.064  11.218  67.910  1.00  0.00    -0.325 A  
HETATM   20  C   UNL     1     -11.929  11.716  70.105  1.00  0.00    -0.441 A  
HETATM   21  C   UNL     1     -11.378  10.811  69.206  1.00  0.00    -0.352 A  
ENDBRANCH   5  16
ENDBRANCH   2   5
BRANCH   4  22
HETATM   22  C   UNL     2      -7.733  10.818  66.430  1.00  0.00    -0.145 A  
HETATM   23  C   UNL     2      -7.472  12.039  67.018  1.00  0.00    -0.106 A  
HETATM   24  C   UNL     2      -7.228   9.658  68.547  1.00  0.00    -0.070 A  
HETATM   25  C   UNL     2      -6.664   8.682  70.688  1.00  0.00    -0.043 A  
HETATM   26  C   UNL     2      -7.087  12.074  68.361  1.00  0.00    -0.084 A  
HETATM   27  C   UNL     2      -6.402   9.964  71.141  1.00  0.00     0.054 A  
HETATM   28  C   UNL     2      -7.681   9.667  67.208  1.00  0.00    -0.091 A  
HETATM   29  C   UNL     2      -7.073   8.486  69.359  1.00  0.00    -0.054 A  
HETATM   30  C   UNL     2      -6.925  10.918  69.119  1.00  0.00    -0.096 A  
HETATM   31  N   UNL     2      -6.513  11.068  70.382  1.00  0.00    -0.292 NA 
BRANCH  29  32
HETATM   32  C   UNL     2      -7.431   7.067  68.875  1.00  0.00    -0.095 C  
HETATM   33  H   UNL     2      -6.796   5.210  69.166  1.00  0.00     0.000 HD 
HETATM   34  O   UNL     2      -6.575   6.085  69.464  1.00  0.00    -0.040 OA 
BRANCH  32  35
HETATM   35  C   UNL     2      -8.908   6.582  69.114  1.00  0.00    -0.128 C  
HETATM   36  C   UNL     2     -10.838   7.544  70.434  1.00  0.00    -0.255 C  
HETATM   37  C   UNL     2     -11.507   6.173  70.233  1.00  0.00    -0.357 C  
HETATM   38  C   UNL     2     -10.437   5.071  70.223  1.00  0.00    -0.173 C  
HETATM   39  C   UNL     2      -9.905   7.766  69.229  1.00  0.00    -0.173 C  
HETATM   40  N   UNL     2      -9.070   5.642  70.277  1.00  0.00    -0.141 NA 
HETATM   41  C   UNL     2      -8.953   6.344  71.583  1.00  0.00    -0.144 C  
HETATM   42  C   UNL     2      -9.947   7.528  71.703  1.00  0.00    -0.200 C  
BRANCH  42  43
HETATM   43  C   UNL     2     -10.760   7.443  72.973  1.00  0.00    -0.413 C  
HETATM   44  C   UNL     2     -10.532   6.571  73.965  1.00  0.00    -0.306 C  
ENDBRANCH  42  43
ENDBRANCH  32  35
ENDBRANCH  29  32
ENDBRANCH   4  22
TORSDOF 6
ENDMDL
MODEL       55
REMARK 921   NORMALIZED FREE ENERGY PREDICTED BY IDOCK:   -5.15 KCAL/MOL
REMARK 922        TOTAL FREE ENERGY PREDICTED BY IDOCK:  -10.04 KCAL/MOL
REMARK 923 INTER-LIGAND FREE ENERGY PREDICTED BY IDOCK:   -7.99 KCAL/MOL
REMARK 924 INTRA-LIGAND FREE ENERGY PREDICTED BY IDOCK:   -2.04 KCAL/MOL
REMARK 927      BINDING AFFINITY PREDICTED BY RF-SCORE:    0.00 PKD
ROOT
HETATM    1  C   UNL     1     -11.323   7.357  72.709  1.00  0.00    -0.356 C  
HETATM    2  C   UNL     1     -11.211   6.183  71.739  1.00  0.00    -0.338 C  
HETATM    3  C   UNL     2     -11.158  10.101  70.594  1.00  0.00    -0.322 C  
HETATM    4  O   UNL     2     -11.391   8.822  70.027  1.00  0.00    -0.173 OA 
ENDROOT
BRANCH   2   5
HETATM    5  C   UNL     1      -9.804   5.508  71.598  1.00  0.00    -0.221 C  
HETATM    6  O   UNL     1     -10.103   4.544  69.348  1.00  0.00    -0.193 OA 
HETATM    7  C   UNL     1      -9.555   4.909  72.993  1.00  0.00    -0.135 C  
HETATM    8  C   UNL     1      -9.894   4.369  70.551  1.00  0.00    -0.215 C  
HETATM    9  H   UNL     1      -9.392   2.393  70.324  1.00  0.00     0.000 HD 
HETATM   10  N   UNL     1     -10.074   3.662  73.202  1.00  0.00    -0.140 N  
HETATM   11  O   UNL     1      -9.013   5.503  73.917  1.00  0.00    -0.123 OA 
HETATM   12  O   UNL     1      -9.660   1.523  72.638  1.00  0.00    -0.073 OA 
HETATM   13  N   UNL     1      -9.676   3.094  71.008  1.00  0.00    -0.157 N  
HETATM   14  C   UNL     1      -9.808   2.693  72.296  1.00  0.00    -0.160 C  
HETATM   15  H   UNL     1     -10.648   3.465  74.022  1.00  0.00     0.000 HD 
BRANCH   5  16
HETATM   16  C   UNL     1      -8.724   6.538  71.206  1.00  0.00    -0.130 A  
HETATM   17  C   UNL     1      -7.101   7.385  69.595  1.00  0.00    -0.072 A  
HETATM   18  C   UNL     1      -7.872   6.337  70.104  1.00  0.00    -0.106 A  
HETATM   19  C   UNL     1      -8.636   7.770  71.877  1.00  0.00    -0.143 A  
HETATM   20  C   UNL     1      -7.140   8.638  70.196  1.00  0.00    -0.044 A  
HETATM   21  C   UNL     1      -7.881   8.821  71.358  1.00  0.00    -0.166 A  
ENDBRANCH   5  16
ENDBRANCH   2   5
BRANCH   4  22
HETATM   22  C   UNL     2     -10.711   8.527  68.887  1.00  0.00    -0.073 A  
HETATM   23  C   UNL     2     -10.744   7.335  68.192  1.00  0.00    -0.191 A  
HETATM   24  C   UNL     2      -9.156   9.484  67.229  1.00  0.00    -0.146 A  
HETATM   25  C   UNL     2      -7.610  10.249  65.533  1.00  0.00    -0.149 A  
HETATM   26  C   UNL     2      -9.986   7.212  67.025  1.00  0.00    -0.283 A  
HETATM   27  C   UNL     2      -7.708   8.995  64.955  1.00  0.00    -0.111 A  
HETATM   28  C   UNL     2      -9.987   9.594  68.366  1.00  0.00    -0.178 A  
HETATM   29  C   UNL     2      -8.324  10.529  66.709  1.00  0.00    -0.128 A  
HETATM   30  C   UNL     2      -9.172   8.238  66.554  1.00  0.00    -0.187 A  
HETATM   31  N   UNL     2      -8.460   7.996  65.449  1.00  0.00    -0.152 NA 
BRANCH  29  32
HETATM   32  C   UNL     2      -8.268  11.947  67.313  1.00  0.00    -0.170 C  
HETATM   33  H   UNL     2      -6.940  13.406  67.519  1.00  0.00     0.000 HD 
HETATM   34  O   UNL     2      -6.975  12.533  67.147  1.00  0.00    -0.141 OA 
BRANCH  32  35
HETATM   35  C   UNL     2      -9.312  12.994  66.776  1.00  0.00    -0.244 C  
HETATM   36  C   UNL     2     -10.234  15.144  67.734  1.00  0.00    -0.236 C  
HETATM   37  C   UNL     2     -11.291  15.052  66.619  1.00  0.00    -0.289 C  
HETATM   38  C   UNL     2     -11.618  13.577  66.337  1.00  0.00    -0.350 C  
HETATM   39  C   UNL     2      -8.968  14.443  67.207  1.00  0.00    -0.221 C  
HETATM   40  N   UNL     2     -10.742  12.670  67.114  1.00  0.00    -0.239 NA 
HETATM   41  C   UNL     2     -11.046  12.910  68.550  1.00  0.00    -0.267 C  
HETATM   42  C   UNL     2     -10.702  14.358  68.986  1.00  0.00    -0.261 C  
BRANCH  42  43
HETATM   43  C   UNL     2     -11.871  15.022  69.675  1.00  0.00    -0.358 C  
HETATM   44  C   UNL     2     -11.763  16.025  70.557  1.00  0.00    -0.350 C  
ENDBRANCH  42  43
ENDBRANCH  32  35
ENDBRANCH  29  32
ENDBRANCH   4  22
TORSDOF 6
ENDMDL
MODEL       56
REMARK 921   NORMALIZED FREE ENERGY PREDICTED BY IDOCK:   -5.15 KCAL/MOL
REMARK 922        TOTAL FREE ENERGY PREDICTED BY IDOCK:  -10.03 KCAL/MOL
REMARK 923 INTER-LIGAND FREE ENERGY PREDICTED BY IDOCK:   -8.28 KCAL/MOL
REMARK 924 INTRA-LIGAND FREE ENERGY PREDICTED BY IDOCK:   -1.75 KCAL/MOL
REMARK 927      BINDING AFFINITY PREDICTED BY RF-SCORE:    0.00 PKD
ROOT
HETATM    1  C   UNL     1      -7.198  14.148  68.847  1.00  0.00    -0.118 C  
HETATM    2  C   UNL     1      -7.872  14.062  67.480  1.00  0.00    -0.197 C  
HETATM    3  C   UNL     2      -5.370  11.203  68.974  1.00  0.00    -0.040 C  
HETATM    4  O   UNL     2      -5.893  11.622  67.724  1.00  0.00    -0.045 OA 
ENDROOT
BRANCH   2   5
HETATM    5  C   UNL     1      -9.364  13.583  67.451  1.00  0.00    -0.228 C  
HETATM    6  O   UNL     1      -9.084  11.487  68.718  1.00  0.00    -0.152 OA 
HETATM    7  C   UNL     1      -9.815  13.914  66.018  1.00  0.00    -0.289 C  
HETATM    8  C   UNL     1      -9.407  12.050  67.669  1.00  0.00    -0.185 C  
HETATM    9  H   UNL     1     -10.238  10.364  66.850  1.00  0.00     0.000 HD 
HETATM   10  N   UNL     1      -9.546  12.959  65.078  1.00  0.00    -0.483 N  
HETATM   11  O   UNL     1     -10.306  14.983  65.673  1.00  0.00    -0.303 OA 
HETATM   12  O   UNL     1     -10.297  10.938  64.431  1.00  0.00    -0.337 OA 
HETATM   13  N   UNL     1      -9.883  11.293  66.629  1.00  0.00    -0.201 N  
HETATM   14  C   UNL     1      -9.917  11.683  65.331  1.00  0.00    -0.250 C  
HETATM   15  H   UNL     1      -9.076  13.202  64.206  1.00  0.00     0.000 HD 
BRANCH   5  16
HETATM   16  C   UNL     1     -10.210  14.319  68.511  1.00  0.00    -0.245 A  
HETATM   17  C   UNL     1     -10.949  16.397  69.551  1.00  0.00    -0.317 A  
HETATM   18  C   UNL     1     -10.009  15.680  68.808  1.00  0.00    -0.213 A  
HETATM   19  C   UNL     1     -11.293  13.674  69.134  1.00  0.00    -0.335 A  
HETATM   20  C   UNL     1     -12.086  15.763  70.039  1.00  0.00    -0.344 A  
HETATM   21  C   UNL     1     -12.241  14.394  69.859  1.00  0.00    -0.394 A  
ENDBRANCH   5  16
ENDBRANCH   2   5
BRANCH   4  22
HETATM   22  C   UNL     2      -6.452  10.659  66.942  1.00  0.00    -0.084 A  
HETATM   23  C   UNL     2      -6.498  10.640  65.563  1.00  0.00    -0.066 A  
HETATM   24  C   UNL     2      -7.624   8.492  67.041  1.00  0.00    -0.092 A  
HETATM   25  C   UNL     2      -8.810   6.385  66.953  1.00  0.00    -0.119 A  
HETATM   26  C   UNL     2      -7.105   9.557  64.923  1.00  0.00    -0.107 A  
HETATM   27  C   UNL     2      -8.815   6.507  65.574  1.00  0.00     0.007 A  
HETATM   28  C   UNL     2      -6.942   9.568  67.652  1.00  0.00    -0.080 A  
HETATM   29  C   UNL     2      -8.223   7.391  67.737  1.00  0.00    -0.119 A  
HETATM   30  C   UNL     2      -7.696   8.512  65.625  1.00  0.00    -0.095 A  
HETATM   31  N   UNL     2      -8.284   7.548  64.910  1.00  0.00    -0.116 NA 
BRANCH  29  32
HETATM   32  C   UNL     2      -8.156   7.220  69.268  1.00  0.00    -0.124 C  
HETATM   33  H   UNL     2      -6.773   7.226  70.689  1.00  0.00     0.000 HD 
HETATM   34  O   UNL     2      -6.814   7.331  69.746  1.00  0.00    -0.050 OA 
BRANCH  32  35
HETATM   35  C   UNL     2      -9.029   8.200  70.135  1.00  0.00    -0.146 C  
HETATM   36  C   UNL     2     -10.410   7.874  72.227  1.00  0.00    -0.314 C  
HETATM   37  C   UNL     2     -10.993   9.265  71.920  1.00  0.00    -0.284 C  
HETATM   38  C   UNL     2     -11.072   9.468  70.399  1.00  0.00    -0.277 C  
HETATM   39  C   UNL     2      -8.985   7.850  71.646  1.00  0.00    -0.173 C  
HETATM   40  N   UNL     2     -10.453   8.337  69.669  1.00  0.00    -0.220 NA 
HETATM   41  C   UNL     2     -11.263   7.131  69.984  1.00  0.00    -0.238 C  
HETATM   42  C   UNL     2     -11.221   6.776  71.493  1.00  0.00    -0.300 C  
BRANCH  42  43
HETATM   43  C   UNL     2     -12.610   6.611  72.063  1.00  0.00    -0.251 C  
HETATM   44  C   UNL     2     -13.733   7.024  71.460  1.00  0.00    -0.355 C  
ENDBRANCH  42  43
ENDBRANCH  32  35
ENDBRANCH  29  32
ENDBRANCH   4  22
TORSDOF 6
ENDMDL
MODEL       57
REMARK 921   NORMALIZED FREE ENERGY PREDICTED BY IDOCK:   -5.13 KCAL/MOL
REMARK 922        TOTAL FREE ENERGY PREDICTED BY IDOCK:  -10.01 KCAL/MOL
REMARK 923 INTER-LIGAND FREE ENERGY PREDICTED BY IDOCK:   -8.98 KCAL/MOL
REMARK 924 INTRA-LIGAND FREE ENERGY PREDICTED BY IDOCK:   -1.03 KCAL/MOL
REMARK 927      BINDING AFFINITY PREDICTED BY RF-SCORE:    0.00 PKD
ROOT
HETATM    1  C   UNL     1      -7.725   8.386  71.016  1.00  0.00    -0.099 C  
HETATM    2  C   UNL     1      -8.759   9.445  70.640  1.00  0.00    -0.263 C  
HETATM    3  C   UNL     2      -5.931   8.004  68.072  1.00  0.00    -0.042 C  
HETATM    4  O   UNL     2      -6.787   9.128  68.203  1.00  0.00    -0.067 OA 
ENDROOT
BRANCH   2   5
HETATM    5  C   UNL     1     -10.197   8.940  70.278  1.00  0.00    -0.230 C  
HETATM    6  O   UNL     1      -9.583   7.436  68.423  1.00  0.00    -0.146 OA 
HETATM    7  C   UNL     1     -11.058  10.210  70.384  1.00  0.00    -0.324 C  
HETATM    8  C   UNL     1     -10.200   8.430  68.815  1.00  0.00    -0.207 C  
HETATM    9  H   UNL     1     -11.272   8.629  67.078  1.00  0.00     0.000 HD 
HETATM   10  N   UNL     1     -11.105  10.988  69.261  1.00  0.00    -0.235 N  
HETATM   11  O   UNL     1     -11.610  10.592  71.409  1.00  0.00    -0.193 OA 
HETATM   12  O   UNL     1     -12.054  10.986  67.220  1.00  0.00    -0.115 OA 
HETATM   13  N   UNL     1     -10.983   9.118  67.925  1.00  0.00    -0.072 N  
HETATM   14  C   UNL     1     -11.404  10.398  68.081  1.00  0.00    -0.213 C  
HETATM   15  H   UNL     1     -10.919  11.990  69.310  1.00  0.00     0.000 HD 
BRANCH   5  16
HETATM   16  C   UNL     1     -10.667   7.837  71.251  1.00  0.00    -0.251 A  
HETATM   17  C   UNL     1     -11.334   5.527  71.659  1.00  0.00    -0.063 A  
HETATM   18  C   UNL     1     -11.178   6.610  70.790  1.00  0.00    -0.366 A  
HETATM   19  C   UNL     1     -10.488   7.984  72.637  1.00  0.00    -0.408 A  
HETATM   20  C   UNL     1     -11.016   5.660  73.006  1.00  0.00    -0.325 A  
HETATM   21  C   UNL     1     -10.625   6.898  73.501  1.00  0.00    -0.378 A  
ENDBRANCH   5  16
ENDBRANCH   2   5
BRANCH   4  22
HETATM   22  C   UNL     2      -7.543   9.449  67.119  1.00  0.00    -0.091 A  
HETATM   23  C   UNL     2      -7.875   8.618  66.068  1.00  0.00    -0.102 A  
HETATM   24  C   UNL     2      -8.832  11.292  66.107  1.00  0.00    -0.194 A  
HETATM   25  C   UNL     2     -10.109  12.995  64.957  1.00  0.00    -0.234 A  
HETATM   26  C   UNL     2      -8.677   9.117  65.039  1.00  0.00    -0.222 A  
HETATM   27  C   UNL     2     -10.339  12.069  63.954  1.00  0.00    -0.402 A  
HETATM   28  C   UNL     2      -8.078  10.733  67.162  1.00  0.00    -0.124 A  
HETATM   29  C   UNL     2      -9.328  12.636  66.067  1.00  0.00    -0.074 A  
HETATM   30  C   UNL     2      -9.127  10.434  65.017  1.00  0.00    -0.203 A  
HETATM   31  N   UNL     2      -9.855  10.815  63.963  1.00  0.00    -0.304 NA 
BRANCH  29  32
HETATM   32  C   UNL     2      -9.131  13.646  67.216  1.00  0.00    -0.228 C  
HETATM   33  H   UNL     2      -7.625  14.533  68.152  1.00  0.00     0.000 HD 
HETATM   34  O   UNL     2      -7.746  13.911  67.444  1.00  0.00    -0.171 OA 
BRANCH  32  35
HETATM   35  C   UNL     2      -9.843  15.041  67.070  1.00  0.00    -0.238 C  
HETATM   36  C   UNL     2      -8.967  17.409  66.943  1.00  0.00    -0.260 C  
HETATM   37  C   UNL     2     -10.428  17.838  67.167  1.00  0.00    -0.338 C  
HETATM   38  C   UNL     2     -11.132  16.822  68.080  1.00  0.00    -0.220 C  
HETATM   39  C   UNL     2      -9.007  16.044  66.232  1.00  0.00    -0.380 C  
HETATM   40  N   UNL     2     -10.256  15.663  68.376  1.00  0.00    -0.219 NA 
HETATM   41  C   UNL     2      -9.093  16.191  69.137  1.00  0.00    -0.243 C  
HETATM   42  C   UNL     2      -8.254  17.193  68.302  1.00  0.00    -0.230 C  
BRANCH  42  43
HETATM   43  C   UNL     2      -8.037  18.490  69.048  1.00  0.00    -0.126 C  
HETATM   44  C   UNL     2      -7.300  19.513  68.593  1.00  0.00    -0.381 C  
ENDBRANCH  42  43
ENDBRANCH  32  35
ENDBRANCH  29  32
ENDBRANCH   4  22
TORSDOF 6
ENDMDL
MODEL       58
REMARK 921   NORMALIZED FREE ENERGY PREDICTED BY IDOCK:   -5.13 KCAL/MOL
REMARK 922        TOTAL FREE ENERGY PREDICTED BY IDOCK:  -10.00 KCAL/MOL
REMARK 923 INTER-LIGAND FREE ENERGY PREDICTED BY IDOCK:   -8.71 KCAL/MOL
REMARK 924 INTRA-LIGAND FREE ENERGY PREDICTED BY IDOCK:   -1.30 KCAL/MOL
REMARK 927      BINDING AFFINITY PREDICTED BY RF-SCORE:    0.00 PKD
ROOT
HETATM    1  C   UNL     1      -6.644   5.979  66.586  1.00  0.00    -0.059 C  
HETATM    2  C   UNL     1      -7.523   5.387  67.685  1.00  0.00    -0.084 C  
HETATM    3  C   UNL     2      -6.455   9.323  67.489  1.00  0.00    -0.063 C  
HETATM    4  O   UNL     2      -6.940   8.390  68.441  1.00  0.00    -0.067 OA 
ENDROOT
BRANCH   2   5
HETATM    5  C   UNL     1      -9.037   5.170  67.346  1.00  0.00    -0.116 C  
HETATM    6  O   UNL     1      -9.503   7.390  66.380  1.00  0.00    -0.178 OA 
HETATM    7  C   UNL     1      -9.569   4.403  68.570  1.00  0.00    -0.143 C  
HETATM    8  C   UNL     1      -9.737   6.549  67.251  1.00  0.00    -0.132 C  
HETATM    9  H   UNL     1     -11.401   7.524  67.949  1.00  0.00     0.000 HD 
HETATM   10  N   UNL     1      -9.970   5.177  69.623  1.00  0.00    -0.221 N  
HETATM   11  O   UNL     1      -9.570   3.183  68.679  1.00  0.00    -0.164 OA 
HETATM   12  O   UNL     1     -11.683   6.515  70.205  1.00  0.00    -0.404 OA 
HETATM   13  N   UNL     1     -10.710   6.810  68.181  1.00  0.00    -0.230 N  
HETATM   14  C   UNL     1     -10.827   6.196  69.384  1.00  0.00    -0.353 C  
HETATM   15  H   UNL     1      -9.632   4.991  70.567  1.00  0.00     0.000 HD 
BRANCH   5  16
HETATM   16  C   UNL     1      -9.211   4.368  66.039  1.00  0.00    -0.139 A  
HETATM   17  C   UNL     1      -8.498   2.567  64.557  1.00  0.00    -0.088 A  
HETATM   18  C   UNL     1      -8.220   3.485  65.573  1.00  0.00    -0.097 A  
HETATM   19  C   UNL     1     -10.424   4.413  65.330  1.00  0.00    -0.204 A  
HETATM   20  C   UNL     1      -9.757   2.539  63.966  1.00  0.00    -0.141 A  
HETATM   21  C   UNL     1     -10.708   3.484  64.329  1.00  0.00    -0.123 A  
ENDBRANCH   5  16
ENDBRANCH   2   5
BRANCH   4  22
HETATM   22  C   UNL     2      -8.027   8.768  69.167  1.00  0.00    -0.109 A  
HETATM   23  C   UNL     2      -8.297   8.440  70.480  1.00  0.00    -0.126 A  
HETATM   24  C   UNL     2     -10.101  10.096  69.041  1.00  0.00    -0.216 A  
HETATM   25  C   UNL     2     -12.187  11.322  69.083  1.00  0.00    -0.251 A  
HETATM   26  C   UNL     2      -9.463   8.931  71.073  1.00  0.00    -0.318 A  
HETATM   27  C   UNL     2     -12.351  10.892  70.389  1.00  0.00    -0.351 A  
HETATM   28  C   UNL     2      -8.881   9.638  68.497  1.00  0.00    -0.124 A  
HETATM   29  C   UNL     2     -11.054  10.920  68.357  1.00  0.00    -0.320 A  
HETATM   30  C   UNL     2     -10.380   9.713  70.377  1.00  0.00    -0.291 A  
HETATM   31  N   UNL     2     -11.481  10.094  71.033  1.00  0.00    -0.367 NA 
BRANCH  29  32
HETATM   32  C   UNL     2     -10.838  11.456  66.927  1.00  0.00    -0.285 C  
HETATM   33  H   UNL     2     -11.948  11.963  65.364  1.00  0.00     0.000 HD 
HETATM   34  O   UNL     2     -12.081  11.633  66.244  1.00  0.00    -0.333 OA 
BRANCH  32  35
HETATM   35  C   UNL     2     -10.045  12.807  66.783  1.00  0.00    -0.236 C  
HETATM   36  C   UNL     2      -9.574  14.700  68.390  1.00  0.00    -0.217 C  
HETATM   37  C   UNL     2      -9.109  15.483  67.150  1.00  0.00    -0.233 C  
HETATM   38  C   UNL     2      -9.948  15.069  65.931  1.00  0.00    -0.326 C  
HETATM   39  C   UNL     2      -9.324  13.209  68.096  1.00  0.00    -0.217 C  
HETATM   40  N   UNL     2     -10.867  13.953  66.261  1.00  0.00    -0.289 NA 
HETATM   41  C   UNL     2     -11.817  14.471  67.281  1.00  0.00    -0.392 C  
HETATM   42  C   UNL     2     -11.101  14.874  68.596  1.00  0.00    -0.272 C  
BRANCH  42  43
HETATM   43  C   UNL     2     -11.466  16.278  69.019  1.00  0.00    -0.268 C  
HETATM   44  C   UNL     2     -10.589  17.193  69.454  1.00  0.00    -0.161 C  
ENDBRANCH  42  43
ENDBRANCH  32  35
ENDBRANCH  29  32
ENDBRANCH   4  22
TORSDOF 6
ENDMDL
MODEL       59
REMARK 921   NORMALIZED FREE ENERGY PREDICTED BY IDOCK:   -5.12 KCAL/MOL
REMARK 922        TOTAL FREE ENERGY PREDICTED BY IDOCK:   -9.99 KCAL/MOL
REMARK 923 INTER-LIGAND FREE ENERGY PREDICTED BY IDOCK:   -8.16 KCAL/MOL
REMARK 924 INTRA-LIGAND FREE ENERGY PREDICTED BY IDOCK:   -1.82 KCAL/MOL
REMARK 927      BINDING AFFINITY PREDICTED BY RF-SCORE:    0.00 PKD
ROOT
HETATM    1  C   UNL     1     -12.016  13.215  65.630  1.00  0.00    -0.462 C  
HETATM    2  C   UNL     1     -11.565  12.506  66.905  1.00  0.00    -0.436 C  
HETATM    3  C   UNL     2     -10.479  11.349  63.143  1.00  0.00    -0.260 C  
HETATM    4  O   UNL     2     -10.540  10.811  64.454  1.00  0.00    -0.347 OA 
ENDROOT
BRANCH   2   5
HETATM    5  C   UNL     1     -10.372  13.146  67.693  1.00  0.00    -0.223 C  
HETATM    6  O   UNL     1      -8.717  13.166  65.866  1.00  0.00     0.467 OA 
HETATM    7  C   UNL     1     -10.441  12.455  69.066  1.00  0.00     0.001 C  
HETATM    8  C   UNL     1      -9.044  12.773  66.988  1.00  0.00    -0.220 C  
HETATM    9  H   UNL     1      -7.188  12.015  67.422  1.00  0.00     0.000 HD 
HETATM   10  N   UNL     1      -9.790  11.257  69.158  1.00  0.00    -0.416 N  
HETATM   11  O   UNL     1     -11.096  12.864  70.017  1.00  0.00     0.147 OA 
HETATM   12  O   UNL     1      -7.690  10.460  69.297  1.00  0.00    -0.115 OA 
HETATM   13  N   UNL     1      -8.169  11.991  67.698  1.00  0.00    -0.145 N  
HETATM   14  C   UNL     1      -8.506  11.188  68.737  1.00  0.00    -0.134 C  
HETATM   15  H   UNL     1     -10.260  10.434  69.534  1.00  0.00     0.000 HD 
BRANCH   5  16
HETATM   16  C   UNL     1     -10.530  14.677  67.804  1.00  0.00    -0.246 A  
HETATM   17  C   UNL     1     -11.480  16.625  68.923  1.00  0.00    -0.023 A  
HETATM   18  C   UNL     1     -11.523  15.264  68.611  1.00  0.00    -0.350 A  
HETATM   19  C   UNL     1      -9.605  15.537  67.187  1.00  0.00    -0.228 A  
HETATM   20  C   UNL     1     -10.468  17.429  68.409  1.00  0.00    -0.384 A  
HETATM   21  C   UNL     1      -9.551  16.892  67.514  1.00  0.00    -0.245 A  
ENDBRANCH   5  16
ENDBRANCH   2   5
BRANCH   4  22
HETATM   22  C   UNL     2      -9.415  10.203  64.917  1.00  0.00    -0.289 A  
HETATM   23  C   UNL     2      -8.127  10.389  64.457  1.00  0.00    -0.114 A  
HETATM   24  C   UNL     2      -8.609   8.601  66.610  1.00  0.00    -0.124 A  
HETATM   25  C   UNL     2      -7.653   7.031  68.183  1.00  0.00    -0.108 A  
HETATM   26  C   UNL     2      -7.084   9.685  65.064  1.00  0.00    -0.116 A  
HETATM   27  C   UNL     2      -6.421   7.286  67.605  1.00  0.00    -0.052 A  
HETATM   28  C   UNL     2      -9.628   9.381  66.019  1.00  0.00    -0.328 A  
HETATM   29  C   UNL     2      -8.799   7.674  67.688  1.00  0.00    -0.125 A  
HETATM   30  C   UNL     2      -7.301   8.776  66.096  1.00  0.00    -0.086 A  
HETATM   31  N   UNL     2      -6.234   8.129  66.575  1.00  0.00    -0.049 NA 
BRANCH  29  32
HETATM   32  C   UNL     2     -10.158   7.443  68.377  1.00  0.00    -0.177 C  
HETATM   33  H   UNL     2     -11.650   6.138  68.287  1.00  0.00     0.000 HD 
HETATM   34  O   UNL     2     -10.812   6.280  67.862  1.00  0.00    -0.277 OA 
BRANCH  32  35
HETATM   35  C   UNL     2     -10.150   7.301  69.944  1.00  0.00    -0.194 C  
HETATM   36  C   UNL     2     -11.941   6.698  71.622  1.00  0.00    -0.395 C  
HETATM   37  C   UNL     2     -10.950   7.200  72.687  1.00  0.00    -0.325 C  
HETATM   38  C   UNL     2     -10.124   8.363  72.117  1.00  0.00    -0.306 C  
HETATM   39  C   UNL     2     -11.101   6.181  70.439  1.00  0.00    -0.420 C  
HETATM   40  N   UNL     2     -10.419   8.584  70.681  1.00  0.00    -0.197 NA 
HETATM   41  C   UNL     2     -11.848   8.990  70.597  1.00  0.00    -0.154 C  
HETATM   42  C   UNL     2     -12.802   7.872  71.090  1.00  0.00    -0.156 C  
BRANCH  42  43
HETATM   43  C   UNL     2     -13.771   8.388  72.129  1.00  0.00    -0.378 C  
HETATM   44  C   UNL     2     -13.927   9.681  72.446  1.00  0.00    -0.178 C  
ENDBRANCH  42  43
ENDBRANCH  32  35
ENDBRANCH  29  32
ENDBRANCH   4  22
TORSDOF 6
ENDMDL
MODEL       60
REMARK 921   NORMALIZED FREE ENERGY PREDICTED BY IDOCK:   -5.11 KCAL/MOL
REMARK 922        TOTAL FREE ENERGY PREDICTED BY IDOCK:   -9.98 KCAL/MOL
REMARK 923 INTER-LIGAND FREE ENERGY PREDICTED BY IDOCK:   -8.40 KCAL/MOL
REMARK 924 INTRA-LIGAND FREE ENERGY PREDICTED BY IDOCK:   -1.57 KCAL/MOL
REMARK 927      BINDING AFFINITY PREDICTED BY RF-SCORE:    0.00 PKD
ROOT
HETATM    1  C   UNL     1     -11.281   7.304  72.709  1.00  0.00    -0.348 C  
HETATM    2  C   UNL     1     -11.120   6.219  71.647  1.00  0.00    -0.325 C  
HETATM    3  C   UNL     2     -11.298  10.213  70.820  1.00  0.00    -0.354 C  
HETATM    4  O   UNL     2     -11.470   8.972  70.155  1.00  0.00    -0.193 OA 
ENDROOT
BRANCH   2   5
HETATM    5  C   UNL     1      -9.681   5.637  71.437  1.00  0.00    -0.204 C  
HETATM    6  O   UNL     1     -10.061   4.540  69.262  1.00  0.00    -0.172 OA 
HETATM    7  C   UNL     1      -9.294   5.130  72.837  1.00  0.00    -0.134 C  
HETATM    8  C   UNL     1      -9.758   4.442  70.454  1.00  0.00    -0.214 C  
HETATM    9  H   UNL     1      -9.131   2.497  70.284  1.00  0.00     0.000 HD 
HETATM   10  N   UNL     1      -9.705   3.862  73.141  1.00  0.00    -0.120 N  
HETATM   11  O   UNL     1      -8.735   5.807  73.691  1.00  0.00    -0.122 OA 
HETATM   12  O   UNL     1      -9.176   1.731  72.649  1.00  0.00    -0.071 OA 
HETATM   13  N   UNL     1      -9.417   3.211  70.952  1.00  0.00    -0.152 N  
HETATM   14  C   UNL     1      -9.432   2.869  72.264  1.00  0.00    -0.119 C  
HETATM   15  H   UNL     1     -10.207   3.669  74.008  1.00  0.00     0.000 HD 
BRANCH   5  16
HETATM   16  C   UNL     1      -8.707   6.718  70.921  1.00  0.00    -0.142 A  
HETATM   17  C   UNL     1      -7.461   8.782  71.286  1.00  0.00    -0.127 A  
HETATM   18  C   UNL     1      -8.532   7.941  71.595  1.00  0.00    -0.140 A  
HETATM   19  C   UNL     1      -7.876   6.462  69.817  1.00  0.00    -0.114 A  
HETATM   20  C   UNL     1      -6.568   8.435  70.278  1.00  0.00    -0.035 A  
HETATM   21  C   UNL     1      -6.795   7.292  69.521  1.00  0.00    -0.050 A  
ENDBRANCH   5  16
ENDBRANCH   2   5
BRANCH   4  22
HETATM   22  C   UNL     2     -10.792   8.807  68.987  1.00  0.00    -0.027 A  
HETATM   23  C   UNL     2     -10.850   7.713  68.147  1.00  0.00    -0.040 A  
HETATM   24  C   UNL     2      -9.208   9.928  67.466  1.00  0.00    -0.148 A  
HETATM   25  C   UNL     2      -7.636  10.864  65.882  1.00  0.00    -0.057 A  
HETATM   26  C   UNL     2     -10.091   7.721  66.975  1.00  0.00    -0.343 A  
HETATM   27  C   UNL     2      -7.762   9.695  65.149  1.00  0.00    -0.117 A  
HETATM   28  C   UNL     2     -10.041   9.914  68.606  1.00  0.00    -0.191 A  
HETATM   29  C   UNL     2      -8.349  11.010  67.082  1.00  0.00    -0.132 A  
HETATM   30  C   UNL     2      -9.250   8.778  66.638  1.00  0.00    -0.177 A  
HETATM   31  N   UNL     2      -8.539   8.660  65.512  1.00  0.00    -0.167 NA 
BRANCH  29  32
HETATM   32  C   UNL     2      -8.262  12.338  67.860  1.00  0.00    -0.161 C  
HETATM   33  H   UNL     2      -7.000  13.858  68.039  1.00  0.00     0.000 HD 
HETATM   34  O   UNL     2      -7.054  13.040  67.559  1.00  0.00    -0.146 OA 
BRANCH  32  35
HETATM   35  C   UNL     2      -9.441  13.361  67.663  1.00  0.00    -0.216 C  
HETATM   36  C   UNL     2     -11.883  13.072  67.079  1.00  0.00    -0.437 C  
HETATM   37  C   UNL     2     -11.887  14.592  66.840  1.00  0.00    -0.399 C  
HETATM   38  C   UNL     2     -10.522  15.032  66.288  1.00  0.00    -0.304 C  
HETATM   39  C   UNL     2     -10.802  12.789  68.139  1.00  0.00    -0.249 C  
HETATM   40  N   UNL     2      -9.559  13.906  66.266  1.00  0.00    -0.278 NA 
HETATM   41  C   UNL     2     -10.102  12.899  65.316  1.00  0.00    -0.238 C  
HETATM   42  C   UNL     2     -11.462  12.324  65.788  1.00  0.00    -0.417 C  
BRANCH  42  43
HETATM   43  C   UNL     2     -12.511  12.418  64.704  1.00  0.00    -0.500 C  
HETATM   44  C   UNL     2     -12.303  12.948  63.491  1.00  0.00    -0.521 C  
ENDBRANCH  42  43
ENDBRANCH  32  35
ENDBRANCH  29  32
ENDBRANCH   4  22
TORSDOF 6
ENDMDL
MODEL       61
REMARK 921   NORMALIZED FREE ENERGY PREDICTED BY IDOCK:   -5.10 KCAL/MOL
REMARK 922        TOTAL FREE ENERGY PREDICTED BY IDOCK:   -9.97 KCAL/MOL
REMARK 923 INTER-LIGAND FREE ENERGY PREDICTED BY IDOCK:   -8.21 KCAL/MOL
REMARK 924 INTRA-LIGAND FREE ENERGY PREDICTED BY IDOCK:   -1.75 KCAL/MOL
REMARK 927      BINDING AFFINITY PREDICTED BY RF-SCORE:    0.00 PKD
ROOT
HETATM    1  C   UNL     1      -6.330   5.028  69.021  1.00  0.00    -0.031 C  
HETATM    2  C   UNL     1      -6.955   5.063  70.414  1.00  0.00    -0.049 C  
HETATM    3  C   UNL     2      -6.949   8.229  67.837  1.00  0.00    -0.078 C  
HETATM    4  O   UNL     2      -7.116   7.976  69.222  1.00  0.00    -0.064 OA 
ENDROOT
BRANCH   2   5
HETATM    5  C   UNL     1      -8.380   4.433  70.571  1.00  0.00    -0.086 C  
HETATM    6  O   UNL     1      -7.714   2.329  71.670  1.00  0.00    -0.040 OA 
HETATM    7  C   UNL     1      -9.068   4.771  69.237  1.00  0.00    -0.105 C  
HETATM    8  C   UNL     1      -8.241   2.896  70.710  1.00  0.00    -0.052 C  
HETATM    9  H   UNL     1      -9.015   1.165  69.927  1.00  0.00     0.000 HD 
HETATM   10  N   UNL     1      -8.847   3.887  68.218  1.00  0.00    -0.102 N  
HETATM   11  O   UNL     1      -9.705   5.795  69.024  1.00  0.00    -0.129 OA 
HETATM   12  O   UNL     1      -9.484   1.826  67.576  1.00  0.00    -0.113 OA 
HETATM   13  N   UNL     1      -8.788   2.135  69.709  1.00  0.00    -0.068 N  
HETATM   14  C   UNL     1      -9.050   2.570  68.452  1.00  0.00    -0.176 C  
HETATM   15  H   UNL     1      -8.536   4.212  67.302  1.00  0.00     0.000 HD 
BRANCH   5  16
HETATM   16  C   UNL     1      -9.130   5.034  71.779  1.00  0.00    -0.160 A  
HETATM   17  C   UNL     1     -11.159   5.233  73.117  1.00  0.00    -0.384 A  
HETATM   18  C   UNL     1     -10.528   4.942  71.905  1.00  0.00    -0.233 A  
HETATM   19  C   UNL     1      -8.418   5.594  72.854  1.00  0.00    -0.122 A  
HETATM   20  C   UNL     1     -10.410   5.654  74.211  1.00  0.00    -0.289 A  
HETATM   21  C   UNL     1      -9.044   5.867  74.069  1.00  0.00    -0.127 A  
ENDBRANCH   5  16
ENDBRANCH   2   5
BRANCH   4  22
HETATM   22  C   UNL     2      -8.214   8.517  69.814  1.00  0.00    -0.121 A  
HETATM   23  C   UNL     2      -8.604   8.361  71.129  1.00  0.00    -0.187 A  
HETATM   24  C   UNL     2     -10.150   9.983  69.383  1.00  0.00    -0.235 A  
HETATM   25  C   UNL     2     -12.117  11.368  69.127  1.00  0.00    -0.331 A  
HETATM   26  C   UNL     2      -9.762   9.007  71.571  1.00  0.00    -0.365 A  
HETATM   27  C   UNL     2     -12.411  11.101  70.454  1.00  0.00    -0.344 A  
HETATM   28  C   UNL     2      -8.938   9.372  68.990  1.00  0.00    -0.141 A  
HETATM   29  C   UNL     2     -10.976  10.798  68.541  1.00  0.00    -0.291 A  
HETATM   30  C   UNL     2     -10.555   9.776  70.725  1.00  0.00    -0.301 A  
HETATM   31  N   UNL     2     -11.662  10.314  71.246  1.00  0.00    -0.337 NA 
BRANCH  29  32
HETATM   32  C   UNL     2     -10.613  11.151  67.085  1.00  0.00    -0.244 C  
HETATM   33  H   UNL     2     -11.555  11.451  65.365  1.00  0.00     0.000 HD 
HETATM   34  O   UNL     2     -11.779  11.233  66.263  1.00  0.00    -0.221 OA 
BRANCH  32  35
HETATM   35  C   UNL     2      -9.801  12.479  66.853  1.00  0.00    -0.227 C  
HETATM   36  C   UNL     2      -9.105  14.356  68.395  1.00  0.00    -0.193 C  
HETATM   37  C   UNL     2      -8.753  15.126  67.111  1.00  0.00    -0.238 C  
HETATM   38  C   UNL     2      -9.730  14.737  65.990  1.00  0.00    -0.321 C  
HETATM   39  C   UNL     2      -8.932  12.859  68.080  1.00  0.00    -0.202 C  
HETATM   40  N   UNL     2     -10.640  13.649  66.419  1.00  0.00    -0.281 NA 
HETATM   41  C   UNL     2     -11.460  14.193  67.535  1.00  0.00    -0.340 C  
HETATM   42  C   UNL     2     -10.595  14.574  68.764  1.00  0.00    -0.248 C  
BRANCH  42  43
HETATM   43  C   UNL     2     -10.871  15.989  69.220  1.00  0.00    -0.300 C  
HETATM   44  C   UNL     2     -11.271  16.324  70.454  1.00  0.00    -0.336 C  
ENDBRANCH  42  43
ENDBRANCH  32  35
ENDBRANCH  29  32
ENDBRANCH   4  22
TORSDOF 6
ENDMDL
MODEL       62
REMARK 921   NORMALIZED FREE ENERGY PREDICTED BY IDOCK:   -5.08 KCAL/MOL
REMARK 922        TOTAL FREE ENERGY PREDICTED BY IDOCK:   -9.94 KCAL/MOL
REMARK 923 INTER-LIGAND FREE ENERGY PREDICTED BY IDOCK:   -8.62 KCAL/MOL
REMARK 924 INTRA-LIGAND FREE ENERGY PREDICTED BY IDOCK:   -1.32 KCAL/MOL
REMARK 927      BINDING AFFINITY PREDICTED BY RF-SCORE:    0.00 PKD
ROOT
HETATM    1  C   UNL     1      -6.745   7.948  69.038  1.00  0.00    -0.049 C  
HETATM    2  C   UNL     1      -8.169   7.489  68.733  1.00  0.00    -0.129 C  
HETATM    3  C   UNL     2      -7.120  11.377  69.405  1.00  0.00    -0.065 C  
HETATM    4  O   UNL     2      -8.282  10.564  69.414  1.00  0.00    -0.158 OA 
ENDROOT
BRANCH   2   5
HETATM    5  C   UNL     1      -8.526   7.226  67.231  1.00  0.00    -0.118 C  
HETATM    6  O   UNL     1     -10.982   7.244  67.446  1.00  0.00    -0.258 OA 
HETATM    7  C   UNL     1      -7.498   6.165  66.802  1.00  0.00    -0.087 C  
HETATM    8  C   UNL     1      -9.954   6.631  67.148  1.00  0.00    -0.160 C  
HETATM    9  H   UNL     1     -10.964   5.069  66.283  1.00  0.00     0.000 HD 
HETATM   10  N   UNL     1      -7.846   4.868  67.057  1.00  0.00    -0.095 N  
HETATM   11  O   UNL     1      -6.391   6.416  66.341  1.00  0.00    -0.039 OA 
HETATM   12  O   UNL     1      -9.233   3.283  66.263  1.00  0.00    -0.151 OA 
HETATM   13  N   UNL     1     -10.061   5.352  66.664  1.00  0.00    -0.193 N  
HETATM   14  C   UNL     1      -9.063   4.436  66.652  1.00  0.00    -0.127 C  
HETATM   15  H   UNL     1      -7.204   4.240  67.541  1.00  0.00     0.000 HD 
BRANCH   5  16
HETATM   16  C   UNL     1      -8.413   8.517  66.392  1.00  0.00    -0.122 A  
HETATM   17  C   UNL     1      -7.043  10.253  65.365  1.00  0.00    -0.139 A  
HETATM   18  C   UNL     1      -7.220   9.260  66.332  1.00  0.00    -0.088 A  
HETATM   19  C   UNL     1      -9.474   8.927  65.567  1.00  0.00    -0.162 A  
HETATM   20  C   UNL     1      -8.063  10.544  64.466  1.00  0.00    -0.052 A  
HETATM   21  C   UNL     1      -9.291   9.904  64.589  1.00  0.00    -0.338 A  
ENDBRANCH   5  16
ENDBRANCH   2   5
BRANCH   4  22
HETATM   22  C   UNL     2      -9.353  11.022  68.712  1.00  0.00    -0.179 A  
HETATM   23  C   UNL     2     -10.519  10.333  68.443  1.00  0.00    -0.228 A  
HETATM   24  C   UNL     2     -10.212  13.001  67.518  1.00  0.00    -0.221 A  
HETATM   25  C   UNL     2     -11.194  14.834  66.281  1.00  0.00    -0.343 A  
HETATM   26  C   UNL     2     -11.526  10.970  67.713  1.00  0.00    -0.339 A  
HETATM   27  C   UNL     2     -12.292  14.022  66.056  1.00  0.00    -0.473 A  
HETATM   28  C   UNL     2      -9.244  12.351  68.316  1.00  0.00    -0.189 A  
HETATM   29  C   UNL     2     -10.102  14.338  67.012  1.00  0.00    -0.260 A  
HETATM   30  C   UNL     2     -11.383  12.262  67.217  1.00  0.00    -0.328 A  
HETATM   31  N   UNL     2     -12.395  12.757  66.497  1.00  0.00    -0.427 NA 
BRANCH  29  32
HETATM   32  C   UNL     2      -8.910  15.266  67.321  1.00  0.00    -0.196 C  
HETATM   33  H   UNL     2      -6.939  15.250  67.102  1.00  0.00     0.000 HD 
HETATM   34  O   UNL     2      -7.673  14.679  66.911  1.00  0.00    -0.053 OA 
BRANCH  32  35
HETATM   35  C   UNL     2      -8.952  16.713  66.705  1.00  0.00    -0.255 C  
HETATM   36  C   UNL     2      -7.247  18.574  66.578  1.00  0.00    -0.254 C  
HETATM   37  C   UNL     2      -8.424  19.467  66.149  1.00  0.00    -0.329 C  
HETATM   38  C   UNL     2      -9.708  19.005  66.857  1.00  0.00    -0.324 C  
HETATM   39  C   UNL     2      -7.582  17.143  66.119  1.00  0.00    -0.304 C  
HETATM   40  N   UNL     2      -9.480  17.767  67.639  1.00  0.00    -0.253 NA 
HETATM   41  C   UNL     2      -8.501  18.111  68.705  1.00  0.00    -0.208 C  
HETATM   42  C   UNL     2      -7.129  18.541  68.123  1.00  0.00    -0.261 C  
BRANCH  42  43
HETATM   43  C   UNL     2      -6.676  19.865  68.692  1.00  0.00    -0.348 C  
HETATM   44  C   UNL     2      -6.444  20.094  69.992  1.00  0.00    -0.322 C  
ENDBRANCH  42  43
ENDBRANCH  32  35
ENDBRANCH  29  32
ENDBRANCH   4  22
TORSDOF 6
ENDMDL
MODEL       63
REMARK 921   NORMALIZED FREE ENERGY PREDICTED BY IDOCK:   -5.08 KCAL/MOL
REMARK 922        TOTAL FREE ENERGY PREDICTED BY IDOCK:   -9.94 KCAL/MOL
REMARK 923 INTER-LIGAND FREE ENERGY PREDICTED BY IDOCK:   -8.67 KCAL/MOL
REMARK 924 INTRA-LIGAND FREE ENERGY PREDICTED BY IDOCK:   -1.27 KCAL/MOL
REMARK 927      BINDING AFFINITY PREDICTED BY RF-SCORE:    0.00 PKD
ROOT
HETATM    1  C   UNL     1      -6.172   5.523  69.241  1.00  0.00    -0.029 C  
HETATM    2  C   UNL     1      -7.265   5.002  70.170  1.00  0.00    -0.058 C  
HETATM    3  C   UNL     2      -6.379   8.957  69.680  1.00  0.00    -0.042 C  
HETATM    4  O   UNL     2      -7.039   8.115  70.611  1.00  0.00    -0.043 OA 
ENDROOT
BRANCH   2   5
HETATM    5  C   UNL     1      -8.635   4.619  69.514  1.00  0.00    -0.103 C  
HETATM    6  O   UNL     1      -8.924   6.625  68.110  1.00  0.00    -0.123 OA 
HETATM    7  C   UNL     1      -9.429   4.007  70.681  1.00  0.00    -0.170 C  
HETATM    8  C   UNL     1      -9.339   5.909  69.025  1.00  0.00    -0.123 C  
HETATM    9  H   UNL     1     -11.162   6.846  69.126  1.00  0.00     0.000 HD 
HETATM   10  N   UNL     1     -10.112   4.896  71.462  1.00  0.00    -0.192 N  
HETATM   11  O   UNL     1      -9.412   2.820  70.986  1.00  0.00    -0.137 OA 
HETATM   12  O   UNL     1     -11.967   6.169  71.380  1.00  0.00    -0.225 OA 
HETATM   13  N   UNL     1     -10.525   6.231  69.634  1.00  0.00    -0.215 N  
HETATM   14  C   UNL     1     -10.919   5.798  70.857  1.00  0.00    -0.235 C  
HETATM   15  H   UNL     1     -10.017   4.881  72.477  1.00  0.00     0.000 HD 
BRANCH   5  16
HETATM   16  C   UNL     1      -8.442   3.619  68.355  1.00  0.00    -0.106 A  
HETATM   17  C   UNL     1      -7.475   1.555  67.487  1.00  0.00    -0.054 A  
HETATM   18  C   UNL     1      -7.458   2.614  68.398  1.00  0.00    -0.048 A  
HETATM   19  C   UNL     1      -9.327   3.612  67.263  1.00  0.00    -0.235 A  
HETATM   20  C   UNL     1      -8.452   1.499  66.498  1.00  0.00    -0.096 A  
HETATM   21  C   UNL     1      -9.357   2.545  66.366  1.00  0.00     0.026 A  
ENDBRANCH   5  16
ENDBRANCH   2   5
BRANCH   4  22
HETATM   22  C   UNL     2      -8.289   8.489  70.994  1.00  0.00    -0.147 A  
HETATM   23  C   UNL     2      -8.892   8.227  72.208  1.00  0.00    -0.274 A  
HETATM   24  C   UNL     2     -10.286   9.719  70.234  1.00  0.00    -0.346 A  
HETATM   25  C   UNL     2     -12.335  10.858  69.637  1.00  0.00    -0.290 A  
HETATM   26  C   UNL     2     -10.186   8.703  72.435  1.00  0.00    -0.319 A  
HETATM   27  C   UNL     2     -12.832  10.498  70.878  1.00  0.00    -0.394 A  
HETATM   28  C   UNL     2      -8.953   9.282  70.065  1.00  0.00    -0.216 A  
HETATM   29  C   UNL     2     -11.040  10.462  69.267  1.00  0.00    -0.303 A  
HETATM   30  C   UNL     2     -10.902   9.404  71.470  1.00  0.00    -0.328 A  
HETATM   31  N   UNL     2     -12.148   9.776  71.782  1.00  0.00    -0.385 NA 
BRANCH  29  32
HETATM   32  C   UNL     2     -10.463  10.922  67.913  1.00  0.00    -0.195 C  
HETATM   33  H   UNL     2      -9.744  10.091  66.262  1.00  0.00     0.000 HD 
HETATM   34  O   UNL     2     -10.100   9.807  67.096  1.00  0.00    -0.186 OA 
BRANCH  32  35
HETATM   35  C   UNL     2     -11.369  11.856  67.030  1.00  0.00    -0.329 C  
HETATM   36  C   UNL     2     -10.864  13.430  65.118  1.00  0.00    -0.322 C  
HETATM   37  C   UNL     2     -12.293  13.959  65.328  1.00  0.00    -0.485 C  
HETATM   38  C   UNL     2     -12.656  13.894  66.820  1.00  0.00    -0.061 C  
HETATM   39  C   UNL     2     -10.863  11.957  65.567  1.00  0.00    -0.343 C  
HETATM   40  N   UNL     2     -11.591  13.227  67.607  1.00  0.00    -0.324 NA 
HETATM   41  C   UNL     2     -10.380  14.083  67.496  1.00  0.00    -0.245 C  
HETATM   42  C   UNL     2      -9.869  14.187  66.035  1.00  0.00    -0.329 C  
BRANCH  42  43
HETATM   43  C   UNL     2      -9.682  15.626  65.614  1.00  0.00    -0.348 C  
HETATM   44  C   UNL     2      -9.648  16.666  66.458  1.00  0.00    -0.292 C  
ENDBRANCH  42  43
ENDBRANCH  32  35
ENDBRANCH  29  32
ENDBRANCH   4  22
TORSDOF 6
ENDMDL
MODEL       64
REMARK 921   NORMALIZED FREE ENERGY PREDICTED BY IDOCK:   -5.07 KCAL/MOL
REMARK 922        TOTAL FREE ENERGY PREDICTED BY IDOCK:   -9.93 KCAL/MOL
REMARK 923 INTER-LIGAND FREE ENERGY PREDICTED BY IDOCK:   -9.49 KCAL/MOL
REMARK 924 INTRA-LIGAND FREE ENERGY PREDICTED BY IDOCK:   -0.44 KCAL/MOL
REMARK 927      BINDING AFFINITY PREDICTED BY RF-SCORE:    0.00 PKD
ROOT
HETATM    1  C   UNL     1     -11.112  15.391  69.722  1.00  0.00    -0.295 C  
HETATM    2  C   UNL     1      -9.690  15.535  69.183  1.00  0.00    -0.252 C  
HETATM    3  C   UNL     2     -11.698  11.987  69.402  1.00  0.00    -0.340 C  
HETATM    4  O   UNL     2     -10.366  12.459  69.285  1.00  0.00     0.076 OA 
ENDROOT
BRANCH   2   5
HETATM    5  C   UNL     1      -9.535  16.035  67.707  1.00  0.00    -0.217 C  
HETATM    6  O   UNL     1      -7.379  14.954  67.196  1.00  0.00    -0.179 OA 
HETATM    7  C   UNL     1     -10.009  17.497  67.774  1.00  0.00    -0.312 C  
HETATM    8  C   UNL     1      -8.037  15.991  67.313  1.00  0.00    -0.177 C  
HETATM    9  H   UNL     1      -6.595  17.175  66.463  1.00  0.00     0.000 HD 
HETATM   10  N   UNL     1      -9.056  18.411  68.128  1.00  0.00    -0.300 N  
HETATM   11  O   UNL     1     -11.169  17.860  67.619  1.00  0.00    -0.074 OA 
HETATM   12  O   UNL     1      -7.263  19.442  67.239  1.00  0.00    -0.208 OA 
HETATM   13  N   UNL     1      -7.438  17.192  67.036  1.00  0.00    -0.173 N  
HETATM   14  C   UNL     1      -7.876  18.401  67.465  1.00  0.00    -0.231 C  
HETATM   15  H   UNL     1      -9.229  19.085  68.874  1.00  0.00     0.000 HD 
BRANCH   5  16
HETATM   16  C   UNL     1     -10.389  15.192  66.736  1.00  0.00    -0.273 A  
HETATM   17  C   UNL     1     -10.568  13.827  64.723  1.00  0.00    -0.444 A  
HETATM   18  C   UNL     1      -9.912  14.810  65.468  1.00  0.00    -0.390 A  
HETATM   19  C   UNL     1     -11.635  14.681  67.140  1.00  0.00    -0.394 A  
HETATM   20  C   UNL     1     -11.727  13.235  65.212  1.00  0.00    -0.357 A  
HETATM   21  C   UNL     1     -12.279  13.686  66.405  1.00  0.00    -0.472 A  
ENDBRANCH   5  16
ENDBRANCH   2   5
BRANCH   4  22
HETATM   22  C   UNL     2      -9.612  11.919  68.289  1.00  0.00    -0.201 A  
HETATM   23  C   UNL     2      -8.622  12.554  67.567  1.00  0.00    -0.183 A  
HETATM   24  C   UNL     2      -9.225   9.829  67.039  1.00  0.00    -0.166 A  
HETATM   25  C   UNL     2      -8.737   7.878  65.694  1.00  0.00    -0.145 A  
HETATM   26  C   UNL     2      -7.938  11.836  66.583  1.00  0.00    -0.070 A  
HETATM   27  C   UNL     2      -7.795   8.642  65.025  1.00  0.00    -0.116 A  
HETATM   28  C   UNL     2      -9.847  10.566  68.071  1.00  0.00    -0.166 A  
HETATM   29  C   UNL     2      -9.500   8.459  66.720  1.00  0.00    -0.255 A  
HETATM   30  C   UNL     2      -8.240  10.512  66.281  1.00  0.00    -0.147 A  
HETATM   31  N   UNL     2      -7.549   9.936  65.293  1.00  0.00    -0.124 NA 
BRANCH  29  32
HETATM   32  C   UNL     2     -10.498   7.589  67.510  1.00  0.00    -0.271 C  
HETATM   33  H   UNL     2     -11.875   6.214  67.126  1.00  0.00     0.000 HD 
HETATM   34  O   UNL     2     -11.260   6.750  66.639  1.00  0.00    -0.205 OA 
BRANCH  32  35
HETATM   35  C   UNL     2      -9.905   6.659  68.631  1.00  0.00    -0.137 C  
HETATM   36  C   UNL     2     -10.812   5.849  70.847  1.00  0.00    -0.347 C  
HETATM   37  C   UNL     2      -9.371   5.395  71.139  1.00  0.00    -0.186 C  
HETATM   38  C   UNL     2      -8.379   6.370  70.486  1.00  0.00    -0.129 C  
HETATM   39  C   UNL     2     -10.994   5.796  69.319  1.00  0.00    -0.330 C  
HETATM   40  N   UNL     2      -9.079   7.382  69.660  1.00  0.00    -0.141 NA 
HETATM   41  C   UNL     2      -9.920   8.183  70.590  1.00  0.00    -0.189 C  
HETATM   42  C   UNL     2     -11.011   7.324  71.278  1.00  0.00    -0.264 C  
BRANCH  42  43
HETATM   43  C   UNL     2     -10.982   7.491  72.780  1.00  0.00    -0.410 C  
HETATM   44  C   UNL     2      -9.895   7.830  73.486  1.00  0.00    -0.298 C  
ENDBRANCH  42  43
ENDBRANCH  32  35
ENDBRANCH  29  32
ENDBRANCH   4  22
TORSDOF 6
ENDMDL
MODEL       65
REMARK 921   NORMALIZED FREE ENERGY PREDICTED BY IDOCK:   -5.01 KCAL/MOL
REMARK 922        TOTAL FREE ENERGY PREDICTED BY IDOCK:   -9.84 KCAL/MOL
REMARK 923 INTER-LIGAND FREE ENERGY PREDICTED BY IDOCK:   -7.86 KCAL/MOL
REMARK 924 INTRA-LIGAND FREE ENERGY PREDICTED BY IDOCK:   -1.98 KCAL/MOL
REMARK 927      BINDING AFFINITY PREDICTED BY RF-SCORE:    0.00 PKD
ROOT
HETATM    1  C   UNL     1      -6.104   6.070  66.153  1.00  0.00    -0.032 C  
HETATM    2  C   UNL     1      -6.508   5.285  67.399  1.00  0.00    -0.052 C  
HETATM    3  C   UNL     2      -6.733   9.350  67.090  1.00  0.00    -0.076 C  
HETATM    4  O   UNL     2      -6.700   8.352  68.098  1.00  0.00    -0.063 OA 
ENDROOT
BRANCH   2   5
HETATM    5  C   UNL     1      -7.923   4.614  67.391  1.00  0.00    -0.101 C  
HETATM    6  O   UNL     1      -7.215   2.310  66.874  1.00  0.00    -0.051 OA 
HETATM    7  C   UNL     1      -8.803   5.649  66.670  1.00  0.00    -0.119 C  
HETATM    8  C   UNL     1      -7.859   3.312  66.554  1.00  0.00    -0.081 C  
HETATM    9  H   UNL     1      -8.863   2.361  65.039  1.00  0.00     0.000 HD 
HETATM   10  N   UNL     1      -8.815   5.567  65.306  1.00  0.00    -0.252 N  
HETATM   11  O   UNL     1      -9.402   6.561  67.228  1.00  0.00    -0.118 OA 
HETATM   12  O   UNL     1      -9.680   4.275  63.679  1.00  0.00    -0.142 OA 
HETATM   13  N   UNL     1      -8.615   3.277  65.410  1.00  0.00    -0.109 N  
HETATM   14  C   UNL     1      -9.058   4.366  64.734  1.00  0.00    -0.152 C  
HETATM   15  H   UNL     1      -8.644   6.393  64.731  1.00  0.00     0.000 HD 
BRANCH   5  16
HETATM   16  C   UNL     1      -8.418   4.329  68.825  1.00  0.00    -0.096 A  
HETATM   17  C   UNL     1      -7.950   4.046  71.202  1.00  0.00    -0.067 A  
HETATM   18  C   UNL     1      -7.527   4.024  69.870  1.00  0.00    -0.049 A  
HETATM   19  C   UNL     1      -9.776   4.479  69.155  1.00  0.00    -0.250 A  
HETATM   20  C   UNL     1      -9.275   4.336  71.509  1.00  0.00    -0.190 A  
HETATM   21  C   UNL     1     -10.195   4.520  70.484  1.00  0.00    -0.152 A  
ENDBRANCH   5  16
ENDBRANCH   2   5
BRANCH   4  22
HETATM   22  C   UNL     2      -7.667   8.417  69.052  1.00  0.00    -0.097 A  
HETATM   23  C   UNL     2      -7.720   7.687  70.223  1.00  0.00    -0.091 A  
HETATM   24  C   UNL     2      -9.762   9.575  69.644  1.00  0.00    -0.215 A  
HETATM   25  C   UNL     2     -11.839  10.586  70.363  1.00  0.00    -0.431 A  
HETATM   26  C   UNL     2      -8.789   7.894  71.099  1.00  0.00    -0.150 A  
HETATM   27  C   UNL     2     -11.787   9.769  71.479  1.00  0.00    -0.399 A  
HETATM   28  C   UNL     2      -8.632   9.389  68.816  1.00  0.00    -0.127 A  
HETATM   29  C   UNL     2     -10.827  10.502  69.394  1.00  0.00    -0.291 A  
HETATM   30  C   UNL     2      -9.819   8.786  70.820  1.00  0.00    -0.205 A  
HETATM   31  N   UNL     2     -10.811   8.874  71.712  1.00  0.00    -0.343 NA 
BRANCH  29  32
HETATM   32  C   UNL     2     -10.849  11.461  68.187  1.00  0.00    -0.213 C  
HETATM   33  H   UNL     2     -12.097  11.962  66.729  1.00  0.00     0.000 HD 
HETATM   34  O   UNL     2     -12.084  11.372  67.473  1.00  0.00    -0.592 OA 
BRANCH  32  35
HETATM   35  C   UNL     2     -10.605  12.987  68.482  1.00  0.00    -0.258 C  
HETATM   36  C   UNL     2     -11.575  15.102  67.495  1.00  0.00    -0.268 C  
HETATM   37  C   UNL     2     -10.437  15.830  68.233  1.00  0.00    -0.259 C  
HETATM   38  C   UNL     2      -9.188  14.935  68.268  1.00  0.00    -0.187 C  
HETATM   39  C   UNL     2     -11.893  13.834  68.308  1.00  0.00    -0.413 C  
HETATM   40  N   UNL     2      -9.468  13.593  67.707  1.00  0.00    -0.213 NA 
HETATM   41  C   UNL     2      -9.812  13.793  66.273  1.00  0.00    -0.303 C  
HETATM   42  C   UNL     2     -11.100  14.639  66.095  1.00  0.00    -0.334 C  
BRANCH  42  43
HETATM   43  C   UNL     2     -10.875  15.799  65.153  1.00  0.00    -0.444 C  
HETATM   44  C   UNL     2     -11.782  16.254  64.278  1.00  0.00     0.121 C  
ENDBRANCH  42  43
ENDBRANCH  32  35
ENDBRANCH  29  32
ENDBRANCH   4  22
TORSDOF 6
ENDMDL
MODEL       66
REMARK 921   NORMALIZED FREE ENERGY PREDICTED BY IDOCK:   -4.98 KCAL/MOL
REMARK 922        TOTAL FREE ENERGY PREDICTED BY IDOCK:   -9.80 KCAL/MOL
REMARK 923 INTER-LIGAND FREE ENERGY PREDICTED BY IDOCK:   -8.50 KCAL/MOL
REMARK 924 INTRA-LIGAND FREE ENERGY PREDICTED BY IDOCK:   -1.30 KCAL/MOL
REMARK 927      BINDING AFFINITY PREDICTED BY RF-SCORE:    0.00 PKD
ROOT
HETATM    1  C   UNL     1      -6.441   6.870  68.004  1.00  0.00    -0.050 C  
HETATM    2  C   UNL     1      -7.145   5.877  68.927  1.00  0.00    -0.073 C  
HETATM    3  C   UNL     2      -7.194   9.924  69.466  1.00  0.00    -0.095 C  
HETATM    4  O   UNL     2      -7.424   8.740  70.213  1.00  0.00    -0.057 OA 
ENDROOT
BRANCH   2   5
HETATM    5  C   UNL     1      -8.535   5.328  68.455  1.00  0.00    -0.096 C  
HETATM    6  O   UNL     1      -9.582   7.483  67.870  1.00  0.00    -0.140 OA 
HETATM    7  C   UNL     1      -8.852   4.230  69.484  1.00  0.00    -0.091 C  
HETATM    8  C   UNL     1      -9.587   6.460  68.560  1.00  0.00    -0.122 C  
HETATM    9  H   UNL     1     -11.467   6.801  69.308  1.00  0.00     0.000 HD 
HETATM   10  N   UNL     1      -9.467   4.653  70.629  1.00  0.00    -0.157 N  
HETATM   11  O   UNL     1      -8.517   3.057  69.373  1.00  0.00    -0.058 OA 
HETATM   12  O   UNL     1     -11.492   5.345  71.325  1.00  0.00     0.088 OA 
HETATM   13  N   UNL     1     -10.609   6.269  69.455  1.00  0.00    -0.240 N  
HETATM   14  C   UNL     1     -10.569   5.430  70.519  1.00  0.00    -0.242 C  
HETATM   15  H   UNL     1      -9.104   4.389  71.545  1.00  0.00     0.000 HD 
BRANCH   5  16
HETATM   16  C   UNL     1      -8.460   4.773  67.017  1.00  0.00    -0.105 A  
HETATM   17  C   UNL     1      -9.415   4.564  64.782  1.00  0.00    -0.126 A  
HETATM   18  C   UNL     1      -9.568   4.806  66.150  1.00  0.00    -0.185 A  
HETATM   19  C   UNL     1      -7.239   4.319  66.489  1.00  0.00    -0.075 A  
HETATM   20  C   UNL     1      -8.164   4.252  64.263  1.00  0.00    -0.098 A  
HETATM   21  C   UNL     1      -7.082   4.096  65.122  1.00  0.00    -0.063 A  
ENDBRANCH   5  16
ENDBRANCH   2   5
BRANCH   4  22
HETATM   22  C   UNL     2      -8.586   8.678  70.917  1.00  0.00    -0.172 A  
HETATM   23  C   UNL     2      -8.831   7.914  72.040  1.00  0.00    -0.187 A  
HETATM   24  C   UNL     2     -10.872   9.598  71.008  1.00  0.00    -0.412 A  
HETATM   25  C   UNL     2     -13.155  10.370  71.226  1.00  0.00    -0.494 A  
HETATM   26  C   UNL     2     -10.088   7.986  72.644  1.00  0.00    -0.370 A  
HETATM   27  C   UNL     2     -13.276   9.531  72.321  1.00  0.00    -0.421 A  
HETATM   28  C   UNL     2      -9.569   9.553  70.465  1.00  0.00    -0.312 A  
HETATM   29  C   UNL     2     -11.943  10.417  70.519  1.00  0.00    -0.427 A  
HETATM   30  C   UNL     2     -11.116   8.775  72.135  1.00  0.00    -0.336 A  
HETATM   31  N   UNL     2     -12.291   8.735  72.772  1.00  0.00    -0.215 NA 
BRANCH  29  32
HETATM   32  C   UNL     2     -11.787  11.402  69.343  1.00  0.00    -0.351 C  
HETATM   33  H   UNL     2     -11.623  13.361  69.078  1.00  0.00     0.000 HD 
HETATM   34  O   UNL     2     -11.719  12.754  69.803  1.00  0.00    -0.308 OA 
BRANCH  32  35
HETATM   35  C   UNL     2     -10.557  11.185  68.388  1.00  0.00    -0.193 C  
HETATM   36  C   UNL     2      -9.385  12.690  66.729  1.00  0.00    -0.232 C  
HETATM   37  C   UNL     2      -8.694  11.409  66.231  1.00  0.00    -0.173 C  
HETATM   38  C   UNL     2      -9.655  10.217  66.363  1.00  0.00    -0.185 C  
HETATM   39  C   UNL     2      -9.708  12.472  68.219  1.00  0.00    -0.220 C  
HETATM   40  N   UNL     2     -10.911  10.608  67.045  1.00  0.00    -0.248 NA 
HETATM   41  C   UNL     2     -11.581  11.605  66.167  1.00  0.00    -0.028 C  
HETATM   42  C   UNL     2     -10.736  12.894  65.996  1.00  0.00    -0.296 C  
BRANCH  42  43
HETATM   43  C   UNL     2     -10.549  13.245  64.538  1.00  0.00    -0.437 C  
HETATM   44  C   UNL     2     -11.087  12.564  63.518  1.00  0.00    -0.497 C  
ENDBRANCH  42  43
ENDBRANCH  32  35
ENDBRANCH  29  32
ENDBRANCH   4  22
TORSDOF 6
ENDMDL
MODEL       67
REMARK 921   NORMALIZED FREE ENERGY PREDICTED BY IDOCK:   -4.98 KCAL/MOL
REMARK 922        TOTAL FREE ENERGY PREDICTED BY IDOCK:   -9.80 KCAL/MOL
REMARK 923 INTER-LIGAND FREE ENERGY PREDICTED BY IDOCK:   -8.23 KCAL/MOL
REMARK 924 INTRA-LIGAND FREE ENERGY PREDICTED BY IDOCK:   -1.57 KCAL/MOL
REMARK 927      BINDING AFFINITY PREDICTED BY RF-SCORE:    0.00 PKD
ROOT
HETATM    1  C   UNL     1      -6.339   5.053  68.835  1.00  0.00    -0.032 C  
HETATM    2  C   UNL     1      -6.842   5.153  70.274  1.00  0.00    -0.044 C  
HETATM    3  C   UNL     2      -7.181   8.152  67.525  1.00  0.00    -0.091 C  
HETATM    4  O   UNL     2      -7.218   7.979  68.932  1.00  0.00    -0.072 OA 
ENDROOT
BRANCH   2   5
HETATM    5  C   UNL     1      -8.224   4.486  70.592  1.00  0.00    -0.076 C  
HETATM    6  O   UNL     1      -8.826   5.851  72.556  1.00  0.00    -0.133 OA 
HETATM    7  C   UNL     1      -7.955   2.987  70.374  1.00  0.00    -0.042 C  
HETATM    8  C   UNL     1      -8.576   4.741  72.079  1.00  0.00    -0.120 C  
HETATM    9  H   UNL     1      -9.200   3.725  73.748  1.00  0.00     0.000 HD 
HETATM   10  N   UNL     1      -7.443   2.317  71.449  1.00  0.00    -0.036 N  
HETATM   11  O   UNL     1      -8.088   2.406  69.304  1.00  0.00    -0.045 OA 
HETATM   12  O   UNL     1      -8.117   1.507  73.438  1.00  0.00    -0.040 OA 
HETATM   13  N   UNL     1      -8.655   3.638  72.891  1.00  0.00    -0.093 N  
HETATM   14  C   UNL     1      -8.065   2.443  72.644  1.00  0.00    -0.055 C  
HETATM   15  H   UNL     1      -6.611   1.734  71.354  1.00  0.00     0.000 HD 
BRANCH   5  16
HETATM   16  C   UNL     1      -9.333   5.019  69.660  1.00  0.00    -0.184 A  
HETATM   17  C   UNL     1     -11.386   6.295  69.338  1.00  0.00    -0.448 A  
HETATM   18  C   UNL     1     -10.525   5.569  70.165  1.00  0.00    -0.370 A  
HETATM   19  C   UNL     1      -9.132   5.074  68.270  1.00  0.00    -0.135 A  
HETATM   20  C   UNL     1     -11.090   6.453  67.988  1.00  0.00    -0.365 A  
HETATM   21  C   UNL     1      -9.980   5.815  67.448  1.00  0.00    -0.172 A  
ENDBRANCH   5  16
ENDBRANCH   2   5
BRANCH   4  22
HETATM   22  C   UNL     2      -8.282   8.520  69.585  1.00  0.00    -0.115 A  
HETATM   23  C   UNL     2      -8.633   8.310  70.904  1.00  0.00    -0.152 A  
HETATM   24  C   UNL     2     -10.190  10.053  69.290  1.00  0.00    -0.229 A  
HETATM   25  C   UNL     2     -12.126  11.499  69.166  1.00  0.00    -0.329 A  
HETATM   26  C   UNL     2      -9.758   8.963  71.414  1.00  0.00    -0.370 A  
HETATM   27  C   UNL     2     -12.384  11.175  70.487  1.00  0.00    -0.364 A  
HETATM   28  C   UNL     2      -9.009   9.431  68.827  1.00  0.00    -0.132 A  
HETATM   29  C   UNL     2     -11.020  10.929  68.515  1.00  0.00    -0.278 A  
HETATM   30  C   UNL     2     -10.557   9.792  70.633  1.00  0.00    -0.313 A  
HETATM   31  N   UNL     2     -11.632  10.332  71.216  1.00  0.00    -0.309 NA 
BRANCH  29  32
HETATM   32  C   UNL     2     -10.695  11.343  67.066  1.00  0.00    -0.261 C  
HETATM   33  H   UNL     2     -11.680  11.934  65.449  1.00  0.00     0.000 HD 
HETATM   34  O   UNL     2     -11.881  11.679  66.342  1.00  0.00    -0.470 OA 
BRANCH  32  35
HETATM   35  C   UNL     2      -9.691  12.538  66.873  1.00  0.00    -0.232 C  
HETATM   36  C   UNL     2      -8.586  14.131  68.496  1.00  0.00    -0.163 C  
HETATM   37  C   UNL     2      -8.201  14.949  67.251  1.00  0.00    -0.234 C  
HETATM   38  C   UNL     2      -9.305  14.826  66.189  1.00  0.00    -0.257 C  
HETATM   39  C   UNL     2      -8.687  12.661  68.050  1.00  0.00    -0.190 C  
HETATM   40  N   UNL     2     -10.351  13.863  66.605  1.00  0.00    -0.275 NA 
HETATM   41  C   UNL     2     -10.990  14.427  67.824  1.00  0.00    -0.274 C  
HETATM   42  C   UNL     2      -9.990  14.550  69.003  1.00  0.00    -0.162 C  
BRANCH  42  43
HETATM   43  C   UNL     2      -9.995  15.942  69.591  1.00  0.00    -0.255 C  
HETATM   44  C   UNL     2     -10.559  17.010  69.011  1.00  0.00    -0.314 C  
ENDBRANCH  42  43
ENDBRANCH  32  35
ENDBRANCH  29  32
ENDBRANCH   4  22
TORSDOF 6
ENDMDL
MODEL       68
REMARK 921   NORMALIZED FREE ENERGY PREDICTED BY IDOCK:   -4.93 KCAL/MOL
REMARK 922        TOTAL FREE ENERGY PREDICTED BY IDOCK:   -9.74 KCAL/MOL
REMARK 923 INTER-LIGAND FREE ENERGY PREDICTED BY IDOCK:  -10.42 KCAL/MOL
REMARK 924 INTRA-LIGAND FREE ENERGY PREDICTED BY IDOCK:    0.68 KCAL/MOL
REMARK 927      BINDING AFFINITY PREDICTED BY RF-SCORE:    0.00 PKD
ROOT
HETATM    1  C   UNL     1      -8.374  14.196  67.769  1.00  0.00    -0.175 C  
HETATM    2  C   UNL     1      -9.167  13.715  66.556  1.00  0.00    -0.195 C  
HETATM    3  C   UNL     2      -7.170  11.230  69.107  1.00  0.00    -0.115 C  
HETATM    4  O   UNL     2      -7.704  11.213  67.793  1.00  0.00    -0.106 OA 
ENDROOT
BRANCH   2   5
HETATM    5  C   UNL     1     -10.721  13.604  66.720  1.00  0.00    -0.272 C  
HETATM    6  O   UNL     1     -11.097  11.700  65.199  1.00  0.00    -0.291 OA 
HETATM    7  C   UNL     1     -11.184  15.071  66.731  1.00  0.00    -0.322 C  
HETATM    8  C   UNL     1     -11.309  12.882  65.481  1.00  0.00    -0.307 C  
HETATM    9  H   UNL     1     -12.803  13.097  64.093  1.00  0.00     0.000 HD 
HETATM   10  N   UNL     1     -11.406  15.630  65.504  1.00  0.00    -0.119 N  
HETATM   11  O   UNL     1     -11.276  15.763  67.739  1.00  0.00    -0.336 OA 
HETATM   12  O   UNL     1     -12.931  15.569  63.850  1.00  0.00    -0.478 OA 
HETATM   13  N   UNL     1     -12.154  13.613  64.687  1.00  0.00    -0.395 N  
HETATM   14  C   UNL     1     -12.195  14.967  64.628  1.00  0.00    -0.341 C  
HETATM   15  H   UNL     1     -10.988  16.526  65.254  1.00  0.00     0.000 HD 
BRANCH   5  16
HETATM   16  C   UNL     1     -11.097  12.866  68.022  1.00  0.00    -0.283 A  
HETATM   17  C   UNL     1     -11.824  12.929  70.349  1.00  0.00    -0.239 A  
HETATM   18  C   UNL     1     -11.219  13.543  69.250  1.00  0.00    -0.285 A  
HETATM   19  C   UNL     1     -11.444  11.504  67.997  1.00  0.00    -0.381 A  
HETATM   20  C   UNL     1     -12.287  11.622  70.253  1.00  0.00    -0.339 A  
HETATM   21  C   UNL     1     -12.066  10.898  69.088  1.00  0.00    -0.292 A  
ENDBRANCH   5  16
ENDBRANCH   2   5
BRANCH   4  22
HETATM   22  C   UNL     2      -8.510  10.165  67.475  1.00  0.00    -0.118 A  
HETATM   23  C   UNL     2      -9.364  10.080  66.394  1.00  0.00    -0.211 A  
HETATM   24  C   UNL     2      -9.150   7.896  68.197  1.00  0.00    -0.133 A  
HETATM   25  C   UNL     2      -9.917   5.677  68.781  1.00  0.00    -0.221 A  
HETATM   26  C   UNL     2     -10.111   8.913  66.214  1.00  0.00    -0.284 A  
HETATM   27  C   UNL     2     -10.755   5.736  67.680  1.00  0.00    -0.229 A  
HETATM   28  C   UNL     2      -8.359   9.062  68.308  1.00  0.00    -0.121 A  
HETATM   29  C   UNL     2      -9.093   6.772  69.086  1.00  0.00    -0.138 A  
HETATM   30  C   UNL     2     -10.051   7.845  67.105  1.00  0.00    -0.258 A  
HETATM   31  N   UNL     2     -10.840   6.795  66.856  1.00  0.00    -0.359 NA 
BRANCH  29  32
HETATM   32  C   UNL     2      -8.111   6.677  70.271  1.00  0.00    -0.121 C  
HETATM   33  H   UNL     2      -6.570   7.698  70.988  1.00  0.00     0.000 HD 
HETATM   34  O   UNL     2      -7.175   7.757  70.258  1.00  0.00    -0.060 OA 
BRANCH  32  35
HETATM   35  C   UNL     2      -8.735   6.634  71.714  1.00  0.00    -0.129 C  
HETATM   36  C   UNL     2     -11.118   6.551  72.552  1.00  0.00    -0.294 C  
HETATM   37  C   UNL     2     -10.523   6.884  73.931  1.00  0.00    -0.352 C  
HETATM   38  C   UNL     2      -9.298   7.796  73.760  1.00  0.00    -0.225 C  
HETATM   39  C   UNL     2     -10.033   5.788  71.770  1.00  0.00    -0.209 C  
HETATM   40  N   UNL     2      -8.962   7.988  72.329  1.00  0.00    -0.153 NA 
HETATM   41  C   UNL     2     -10.116   8.697  71.712  1.00  0.00    -0.310 C  
HETATM   42  C   UNL     2     -11.416   7.853  71.765  1.00  0.00    -0.313 C  
BRANCH  42  43
HETATM   43  C   UNL     2     -12.561   8.636  72.365  1.00  0.00    -0.426 C  
HETATM   44  C   UNL     2     -13.792   8.703  71.841  1.00  0.00    -0.481 C  
ENDBRANCH  42  43
ENDBRANCH  32  35
ENDBRANCH  29  32
ENDBRANCH   4  22
TORSDOF 6
ENDMDL
MODEL       69
REMARK 921   NORMALIZED FREE ENERGY PREDICTED BY IDOCK:   -4.89 KCAL/MOL
REMARK 922        TOTAL FREE ENERGY PREDICTED BY IDOCK:   -9.68 KCAL/MOL
REMARK 923 INTER-LIGAND FREE ENERGY PREDICTED BY IDOCK:   -9.01 KCAL/MOL
REMARK 924 INTRA-LIGAND FREE ENERGY PREDICTED BY IDOCK:   -0.67 KCAL/MOL
REMARK 927      BINDING AFFINITY PREDICTED BY RF-SCORE:    0.00 PKD
ROOT
HETATM    1  C   UNL     1      -6.513   9.114  69.862  1.00  0.00    -0.042 C  
HETATM    2  C   UNL     1      -7.821   9.892  69.991  1.00  0.00    -0.192 C  
HETATM    3  C   UNL     2      -5.828   9.346  66.469  1.00  0.00    -0.058 C  
HETATM    4  O   UNL     2      -6.811  10.207  67.022  1.00  0.00    -0.080 OA 
ENDROOT
BRANCH   2   5
HETATM    5  C   UNL     1      -9.144   9.055  70.056  1.00  0.00    -0.187 C  
HETATM    6  O   UNL     1      -9.282   8.808  72.505  1.00  0.00    -0.347 OA 
HETATM    7  C   UNL     1      -8.996   8.064  68.888  1.00  0.00    -0.141 C  
HETATM    8  C   UNL     1      -9.185   8.278  71.395  1.00  0.00    -0.169 C  
HETATM    9  H   UNL     1      -9.517   6.384  72.110  1.00  0.00     0.000 HD 
HETATM   10  N   UNL     1      -8.316   6.913  69.172  1.00  0.00    -0.124 N  
HETATM   11  O   UNL     1      -9.365   8.283  67.740  1.00  0.00    -0.137 OA 
HETATM   12  O   UNL     1      -8.625   4.972  70.267  1.00  0.00    -0.099 OA 
HETATM   13  N   UNL     1      -9.156   6.909  71.314  1.00  0.00    -0.149 N  
HETATM   14  C   UNL     1      -8.685   6.199  70.260  1.00  0.00    -0.145 C  
HETATM   15  H   UNL     1      -7.548   6.599  68.578  1.00  0.00     0.000 HD 
BRANCH   5  16
HETATM   16  C   UNL     1     -10.387   9.956  69.899  1.00  0.00    -0.298 A  
HETATM   17  C   UNL     1     -12.593  10.661  70.664  1.00  0.00    -0.454 A  
HETATM   18  C   UNL     1     -11.583   9.698  70.594  1.00  0.00    -0.371 A  
HETATM   19  C   UNL     1     -10.321  11.136  69.138  1.00  0.00    -0.186 A  
HETATM   20  C   UNL     1     -12.441  11.881  70.014  1.00  0.00    -0.091 A  
HETATM   21  C   UNL     1     -11.321  12.105  69.224  1.00  0.00    -0.327 A  
ENDBRANCH   5  16
ENDBRANCH   2   5
BRANCH   4  22
HETATM   22  C   UNL     2      -7.950  10.377  66.299  1.00  0.00    -0.138 A  
HETATM   23  C   UNL     2      -8.674   9.393  65.656  1.00  0.00    -0.179 A  
HETATM   24  C   UNL     2      -9.566  12.089  65.564  1.00  0.00    -0.174 A  
HETATM   25  C   UNL     2     -11.225  13.638  64.727  1.00  0.00    -0.367 A  
HETATM   26  C   UNL     2      -9.835   9.752  64.967  1.00  0.00    -0.243 A  
HETATM   27  C   UNL     2     -11.835  12.563  64.103  1.00  0.00    -0.411 A  
HETATM   28  C   UNL     2      -8.437  11.680  66.308  1.00  0.00    -0.066 A  
HETATM   29  C   UNL     2     -10.052  13.434  65.470  1.00  0.00    -0.279 A  
HETATM   30  C   UNL     2     -10.272  11.070  64.876  1.00  0.00    -0.311 A  
HETATM   31  N   UNL     2     -11.374  11.302  64.156  1.00  0.00    -0.185 NA 
BRANCH  29  32
HETATM   32  C   UNL     2      -9.413  14.619  66.222  1.00  0.00    -0.293 C  
HETATM   33  H   UNL     2      -9.099  16.555  65.922  1.00  0.00     0.000 HD 
HETATM   34  O   UNL     2      -9.492  15.825  65.458  1.00  0.00    -0.323 OA 
BRANCH  32  35
HETATM   35  C   UNL     2      -9.983  14.950  67.651  1.00  0.00    -0.226 C  
HETATM   36  C   UNL     2     -11.148  16.979  68.607  1.00  0.00    -0.128 C  
HETATM   37  C   UNL     2     -10.896  16.333  69.980  1.00  0.00    -0.329 C  
HETATM   38  C   UNL     2      -9.567  15.562  69.954  1.00  0.00    -0.103 C  
HETATM   39  C   UNL     2     -11.258  15.830  67.587  1.00  0.00    -0.246 C  
HETATM   40  N   UNL     2      -8.976  15.548  68.595  1.00  0.00    -0.183 NA 
HETATM   41  C   UNL     2      -8.660  16.961  68.253  1.00  0.00    -0.230 C  
HETATM   42  C   UNL     2      -9.933  17.845  68.187  1.00  0.00    -0.350 C  
BRANCH  42  43
HETATM   43  C   UNL     2      -9.792  19.085  69.040  1.00  0.00    -0.408 C  
HETATM   44  C   UNL     2      -9.788  20.338  68.564  1.00  0.00    -0.237 C  
ENDBRANCH  42  43
ENDBRANCH  32  35
ENDBRANCH  29  32
ENDBRANCH   4  22
TORSDOF 6
ENDMDL
MODEL       70
REMARK 921   NORMALIZED FREE ENERGY PREDICTED BY IDOCK:   -4.87 KCAL/MOL
REMARK 922        TOTAL FREE ENERGY PREDICTED BY IDOCK:   -9.65 KCAL/MOL
REMARK 923 INTER-LIGAND FREE ENERGY PREDICTED BY IDOCK:   -9.15 KCAL/MOL
REMARK 924 INTRA-LIGAND FREE ENERGY PREDICTED BY IDOCK:   -0.50 KCAL/MOL
REMARK 927      BINDING AFFINITY PREDICTED BY RF-SCORE:    0.00 PKD
ROOT
HETATM    1  C   UNL     1      -7.491   7.122  72.288  1.00  0.00    -0.084 C  
HETATM    2  C   UNL     1      -8.695   8.028  72.042  1.00  0.00    -0.197 C  
HETATM    3  C   UNL     2      -5.768   7.322  69.285  1.00  0.00    -0.019 C  
HETATM    4  O   UNL     2      -6.788   8.273  69.545  1.00  0.00    -0.041 OA 
ENDROOT
BRANCH   2   5
HETATM    5  C   UNL     1     -10.045   7.331  71.661  1.00  0.00    -0.196 C  
HETATM    6  O   UNL     1     -10.908   6.967  73.942  1.00  0.00    -0.237 OA 
HETATM    7  C   UNL     1      -9.648   6.396  70.506  1.00  0.00    -0.165 C  
HETATM    8  C   UNL     1     -10.538   6.491  72.865  1.00  0.00    -0.241 C  
HETATM    9  H   UNL     1     -11.222   4.607  73.299  1.00  0.00     0.000 HD 
HETATM   10  N   UNL     1      -9.179   5.166  70.875  1.00  0.00    -0.142 N  
HETATM   11  O   UNL     1      -9.649   6.714  69.322  1.00  0.00    -0.144 OA 
HETATM   12  O   UNL     1      -9.956   3.211  71.675  1.00  0.00    -0.165 OA 
HETATM   13  N   UNL     1     -10.602   5.133  72.684  1.00  0.00    -0.218 N  
HETATM   14  C   UNL     1      -9.907   4.436  71.752  1.00  0.00    -0.185 C  
HETATM   15  H   UNL     1      -8.302   4.807  70.500  1.00  0.00     0.000 HD 
BRANCH   5  16
HETATM   16  C   UNL     1     -11.109   8.365  71.232  1.00  0.00    -0.307 A  
HETATM   17  C   UNL     1     -13.411   9.169  71.283  1.00  0.00    -0.286 A  
HETATM   18  C   UNL     1     -12.485   8.130  71.411  1.00  0.00    -0.313 A  
HETATM   19  C   UNL     1     -10.724   9.629  70.753  1.00  0.00    -0.401 A  
HETATM   20  C   UNL     1     -12.984  10.448  70.943  1.00  0.00    -0.475 A  
HETATM   21  C   UNL     1     -11.645  10.670  70.645  1.00  0.00    -0.432 A  
ENDBRANCH   5  16
ENDBRANCH   2   5
BRANCH   4  22
HETATM   22  C   UNL     2      -7.625   8.568  68.515  1.00  0.00    -0.095 A  
HETATM   23  C   UNL     2      -8.083   7.696  67.548  1.00  0.00    -0.120 A  
HETATM   24  C   UNL     2      -8.925  10.408  67.513  1.00  0.00    -0.138 A  
HETATM   25  C   UNL     2     -10.231  12.102  66.382  1.00  0.00    -0.245 A  
HETATM   26  C   UNL     2      -8.954   8.174  66.566  1.00  0.00    -0.191 A  
HETATM   27  C   UNL     2     -10.586  11.134  65.458  1.00  0.00    -0.225 A  
HETATM   28  C   UNL     2      -8.101   9.875  68.529  1.00  0.00    -0.101 A  
HETATM   29  C   UNL     2      -9.367  11.770  67.438  1.00  0.00    -0.174 A  
HETATM   30  C   UNL     2      -9.351   9.507  66.506  1.00  0.00    -0.171 A  
HETATM   31  N   UNL     2     -10.155   9.861  65.499  1.00  0.00    -0.284 NA 
BRANCH  29  32
HETATM   32  C   UNL     2      -9.028  12.831  68.504  1.00  0.00    -0.046 C  
HETATM   33  H   UNL     2      -7.407  13.670  69.280  1.00  0.00     0.000 HD 
HETATM   34  O   UNL     2      -7.616  13.017  68.623  1.00  0.00    -0.129 OA 
BRANCH  32  35
HETATM   35  C   UNL     2      -9.659  14.260  68.316  1.00  0.00    -0.221 C  
HETATM   36  C   UNL     2     -10.463  16.010  69.953  1.00  0.00    -0.287 C  
HETATM   37  C   UNL     2     -11.112  16.686  68.733  1.00  0.00    -0.270 C  
HETATM   38  C   UNL     2     -11.576  15.615  67.734  1.00  0.00    -0.136 C  
HETATM   39  C   UNL     2      -9.231  15.245  69.436  1.00  0.00    -0.233 C  
HETATM   40  N   UNL     2     -11.155  14.259  68.159  1.00  0.00    -0.250 NA 
HETATM   41  C   UNL     2     -11.852  13.979  69.443  1.00  0.00    -0.333 C  
HETATM   42  C   UNL     2     -11.426  14.961  70.565  1.00  0.00    -0.310 C  
BRANCH  42  43
HETATM   43  C   UNL     2     -12.625  15.601  71.226  1.00  0.00    -0.523 C  
HETATM   44  C   UNL     2     -13.889  15.185  71.072  1.00  0.00    -0.423 C  
ENDBRANCH  42  43
ENDBRANCH  32  35
ENDBRANCH  29  32
ENDBRANCH   4  22
TORSDOF 6
ENDMDL
MODEL       71
REMARK 921   NORMALIZED FREE ENERGY PREDICTED BY IDOCK:   -4.86 KCAL/MOL
REMARK 922        TOTAL FREE ENERGY PREDICTED BY IDOCK:   -9.64 KCAL/MOL
REMARK 923 INTER-LIGAND FREE ENERGY PREDICTED BY IDOCK:   -8.60 KCAL/MOL
REMARK 924 INTRA-LIGAND FREE ENERGY PREDICTED BY IDOCK:   -1.04 KCAL/MOL
REMARK 927      BINDING AFFINITY PREDICTED BY RF-SCORE:    0.00 PKD
ROOT
HETATM    1  C   UNL     1     -11.705  14.681  69.594  1.00  0.00    -0.358 C  
HETATM    2  C   UNL     1     -10.195  14.676  69.367  1.00  0.00    -0.099 C  
HETATM    3  C   UNL     2     -12.525  11.324  69.294  1.00  0.00     0.065 C  
HETATM    4  O   UNL     2     -11.160  11.677  69.446  1.00  0.00    -0.244 OA 
ENDROOT
BRANCH   2   5
HETATM    5  C   UNL     1      -9.688  15.073  67.939  1.00  0.00    -0.212 C  
HETATM    6  O   UNL     1      -7.784  13.513  67.797  1.00  0.00    -0.131 OA 
HETATM    7  C   UNL     1      -9.817  16.606  67.930  1.00  0.00    -0.248 C  
HETATM    8  C   UNL     1      -8.197  14.675  67.804  1.00  0.00    -0.162 C  
HETATM    9  H   UNL     1      -6.401  15.469  67.212  1.00  0.00     0.000 HD 
HETATM   10  N   UNL     1      -8.751  17.292  68.441  1.00  0.00    -0.254 N  
HETATM   11  O   UNL     1     -10.821  17.216  67.582  1.00  0.00    -0.332 OA 
HETATM   12  O   UNL     1      -6.649  17.855  67.869  1.00  0.00    -0.182 OA 
HETATM   13  N   UNL     1      -7.300  15.699  67.635  1.00  0.00    -0.150 N  
HETATM   14  C   UNL     1      -7.513  16.990  67.987  1.00  0.00    -0.182 C  
HETATM   15  H   UNL     1      -8.886  18.014  69.149  1.00  0.00     0.000 HD 
BRANCH   5  16
HETATM   16  C   UNL     1     -10.541  14.411  66.836  1.00  0.00    -0.278 A  
HETATM   17  C   UNL     1     -12.726  13.871  65.897  1.00  0.00    -0.466 A  
HETATM   18  C   UNL     1     -11.925  14.206  66.992  1.00  0.00    -0.471 A  
HETATM   19  C   UNL     1      -9.976  14.097  65.589  1.00  0.00    -0.331 A  
HETATM   20  C   UNL     1     -12.158  13.702  64.640  1.00  0.00    -0.449 A  
HETATM   21  C   UNL     1     -10.778  13.781  64.492  1.00  0.00    -0.405 A  
ENDBRANCH   5  16
ENDBRANCH   2   5
BRANCH   4  22
HETATM   22  C   UNL     2     -10.268  11.019  68.657  1.00  0.00    -0.199 A  
HETATM   23  C   UNL     2     -10.131  11.140  67.289  1.00  0.00    -0.218 A  
HETATM   24  C   UNL     2      -8.414   9.395  68.729  1.00  0.00    -0.122 A  
HETATM   25  C   UNL     2      -6.604   7.794  68.612  1.00  0.00    -0.057 A  
HETATM   26  C   UNL     2      -9.145  10.392  66.640  1.00  0.00    -0.169 A  
HETATM   27  C   UNL     2      -6.596   7.985  67.241  1.00  0.00    -0.058 A  
HETATM   28  C   UNL     2      -9.374  10.217  69.359  1.00  0.00    -0.217 A  
HETATM   29  C   UNL     2      -7.533   8.487  69.404  1.00  0.00    -0.088 A  
HETATM   30  C   UNL     2      -8.317   9.503  67.319  1.00  0.00    -0.125 A  
HETATM   31  N   UNL     2      -7.436   8.809  66.592  1.00  0.00    -0.085 NA 
BRANCH  29  32
HETATM   32  C   UNL     2      -7.495   8.326  70.937  1.00  0.00    -0.064 C  
HETATM   33  H   UNL     2      -6.756   9.298  72.500  1.00  0.00     0.000 HD 
HETATM   34  O   UNL     2      -6.779   9.398  71.555  1.00  0.00    -0.277 OA 
BRANCH  32  35
HETATM   35  C   UNL     2      -8.878   8.217  71.679  1.00  0.00    -0.172 C  
HETATM   36  C   UNL     2      -9.633   6.936  73.723  1.00  0.00    -0.256 C  
HETATM   37  C   UNL     2     -11.062   7.292  73.275  1.00  0.00    -0.281 C  
HETATM   38  C   UNL     2     -11.129   7.333  71.741  1.00  0.00    -0.235 C  
HETATM   39  C   UNL     2      -8.713   8.061  73.213  1.00  0.00    -0.308 C  
HETATM   40  N   UNL     2      -9.788   7.150  71.136  1.00  0.00    -0.179 NA 
HETATM   41  C   UNL     2      -9.334   5.784  71.510  1.00  0.00    -0.146 C  
HETATM   42  C   UNL     2      -9.167   5.623  73.044  1.00  0.00    -0.137 C  
BRANCH  42  43
HETATM   43  C   UNL     2      -9.913   4.415  73.559  1.00  0.00    -0.178 C  
HETATM   44  C   UNL     2     -10.688   3.622  72.806  1.00  0.00    -0.139 C  
ENDBRANCH  42  43
ENDBRANCH  32  35
ENDBRANCH  29  32
ENDBRANCH   4  22
TORSDOF 6
ENDMDL
MODEL       72
REMARK 921   NORMALIZED FREE ENERGY PREDICTED BY IDOCK:   -4.84 KCAL/MOL
REMARK 922        TOTAL FREE ENERGY PREDICTED BY IDOCK:   -9.62 KCAL/MOL
REMARK 923 INTER-LIGAND FREE ENERGY PREDICTED BY IDOCK:   -8.24 KCAL/MOL
REMARK 924 INTRA-LIGAND FREE ENERGY PREDICTED BY IDOCK:   -1.38 KCAL/MOL
REMARK 927      BINDING AFFINITY PREDICTED BY RF-SCORE:    0.00 PKD
ROOT
HETATM    1  C   UNL     1      -7.230   9.020  70.993  1.00  0.00    -0.114 C  
HETATM    2  C   UNL     1      -8.720   9.204  70.714  1.00  0.00    -0.285 C  
HETATM    3  C   UNL     2      -5.753  10.791  68.402  1.00  0.00    -0.043 C  
HETATM    4  O   UNL     2      -7.135  10.985  68.653  1.00  0.00    -0.068 OA 
ENDROOT
BRANCH   2   5
HETATM    5  C   UNL     1      -9.461   8.026  69.996  1.00  0.00    -0.160 C  
HETATM    6  O   UNL     1     -11.512   9.237  69.360  1.00  0.00     0.060 OA 
HETATM    7  C   UNL     1      -9.171   6.817  70.903  1.00  0.00    -0.157 C  
HETATM    8  C   UNL     1     -10.983   8.316  69.988  1.00  0.00    -0.197 C  
HETATM    9  H   UNL     1     -12.765   7.405  70.438  1.00  0.00     0.000 HD 
HETATM   10  N   UNL     1     -10.029   6.647  71.953  1.00  0.00    -0.177 N  
HETATM   11  O   UNL     1      -8.199   6.080  70.788  1.00  0.00    -0.120 OA 
HETATM   12  O   UNL     1     -12.130   5.942  72.346  1.00  0.00    -0.270 OA 
HETATM   13  N   UNL     1     -11.779   7.451  70.694  1.00  0.00    -0.274 N  
HETATM   14  C   UNL     1     -11.359   6.653  71.706  1.00  0.00    -0.279 C  
HETATM   15  H   UNL     1      -9.675   6.518  72.901  1.00  0.00     0.000 HD 
BRANCH   5  16
HETATM   16  C   UNL     1      -8.928   7.818  68.563  1.00  0.00    -0.133 A  
HETATM   17  C   UNL     1      -7.200   6.992  67.053  1.00  0.00    -0.081 A  
HETATM   18  C   UNL     1      -7.594   7.446  68.314  1.00  0.00    -0.114 A  
HETATM   19  C   UNL     1      -9.798   7.882  67.461  1.00  0.00    -0.221 A  
HETATM   20  C   UNL     1      -8.120   6.934  66.012  1.00  0.00    -0.119 A  
HETATM   21  C   UNL     1      -9.411   7.411  66.207  1.00  0.00    -0.166 A  
ENDBRANCH   5  16
ENDBRANCH   2   5
BRANCH   4  22
HETATM   22  C   UNL     2      -7.951  11.042  67.566  1.00  0.00    -0.116 A  
HETATM   23  C   UNL     2      -7.696  10.520  66.314  1.00  0.00    -0.135 A  
HETATM   24  C   UNL     2     -10.156  11.848  66.812  1.00  0.00    -0.225 A  
HETATM   25  C   UNL     2     -12.266  12.600  65.897  1.00  0.00    -0.375 A  
HETATM   26  C   UNL     2      -8.660  10.662  65.314  1.00  0.00    -0.175 A  
HETATM   27  C   UNL     2     -11.870  12.060  64.685  1.00  0.00    -0.268 A  
HETATM   28  C   UNL     2      -9.188  11.626  67.817  1.00  0.00    -0.178 A  
HETATM   29  C   UNL     2     -11.406  12.525  67.004  1.00  0.00    -0.386 A  
HETATM   30  C   UNL     2      -9.857  11.341  65.523  1.00  0.00    -0.231 A  
HETATM   31  N   UNL     2     -10.689  11.451  64.483  1.00  0.00    -0.326 NA 
BRANCH  29  32
HETATM   32  C   UNL     2     -11.877  13.063  68.370  1.00  0.00    -0.334 C  
HETATM   33  H   UNL     2     -11.499  12.736  70.289  1.00  0.00     0.000 HD 
HETATM   34  O   UNL     2     -11.209  12.404  69.448  1.00  0.00    -0.229 OA 
BRANCH  32  35
HETATM   35  C   UNL     2     -11.723  14.609  68.619  1.00  0.00    -0.329 C  
HETATM   36  C   UNL     2     -10.382  16.410  67.459  1.00  0.00    -0.288 C  
HETATM   37  C   UNL     2     -10.719  17.285  68.679  1.00  0.00    -0.280 C  
HETATM   38  C   UNL     2     -10.793  16.410  69.940  1.00  0.00    -0.333 C  
HETATM   39  C   UNL     2     -11.536  15.403  67.300  1.00  0.00    -0.166 C  
HETATM   40  N   UNL     2     -10.650  14.972  69.609  1.00  0.00    -0.251 NA 
HETATM   41  C   UNL     2      -9.285  14.797  69.044  1.00  0.00    -0.145 C  
HETATM   42  C   UNL     2      -9.094  15.589  67.724  1.00  0.00    -0.178 C  
BRANCH  42  43
HETATM   43  C   UNL     2      -7.859  16.459  67.774  1.00  0.00    -0.164 C  
HETATM   44  C   UNL     2      -7.148  16.706  68.882  1.00  0.00    -0.205 C  
ENDBRANCH  42  43
ENDBRANCH  32  35
ENDBRANCH  29  32
ENDBRANCH   4  22
TORSDOF 6
ENDMDL
MODEL       73
REMARK 921   NORMALIZED FREE ENERGY PREDICTED BY IDOCK:   -4.81 KCAL/MOL
REMARK 922        TOTAL FREE ENERGY PREDICTED BY IDOCK:   -9.58 KCAL/MOL
REMARK 923 INTER-LIGAND FREE ENERGY PREDICTED BY IDOCK:   -8.43 KCAL/MOL
REMARK 924 INTRA-LIGAND FREE ENERGY PREDICTED BY IDOCK:   -1.14 KCAL/MOL
REMARK 927      BINDING AFFINITY PREDICTED BY RF-SCORE:    0.00 PKD
ROOT
HETATM    1  C   UNL     1      -6.447   7.889  68.350  1.00  0.00    -0.053 C  
HETATM    2  C   UNL     1      -7.534   8.860  68.806  1.00  0.00    -0.083 C  
HETATM    3  C   UNL     2      -6.172   8.599  64.966  1.00  0.00    -0.060 C  
HETATM    4  O   UNL     2      -6.871   9.512  65.795  1.00  0.00    -0.082 OA 
ENDROOT
BRANCH   2   5
HETATM    5  C   UNL     1      -8.984   8.287  68.957  1.00  0.00    -0.147 C  
HETATM    6  O   UNL     1      -9.231   7.355  66.688  1.00  0.00    -0.145 OA 
HETATM    7  C   UNL     1      -9.718   9.382  69.749  1.00  0.00    -0.199 C  
HETATM    8  C   UNL     1      -9.620   8.145  67.552  1.00  0.00    -0.157 C  
HETATM    9  H   UNL     1     -11.343   8.622  66.546  1.00  0.00     0.000 HD 
HETATM   10  N   UNL     1     -10.253  10.393  69.002  1.00  0.00    -0.204 N  
HETATM   11  O   UNL     1      -9.771   9.438  70.972  1.00  0.00    -0.275 OA 
HETATM   12  O   UNL     1     -11.996  10.764  67.627  1.00  0.00    -0.411 OA 
HETATM   13  N   UNL     1     -10.717   8.926  67.291  1.00  0.00    -0.228 N  
HETATM   14  C   UNL     1     -11.034  10.070  67.945  1.00  0.00    -0.252 C  
HETATM   15  H   UNL     1     -10.069  11.369  69.235  1.00  0.00     0.000 HD 
BRANCH   5  16
HETATM   16  C   UNL     1      -8.978   6.935  69.703  1.00  0.00    -0.144 A  
HETATM   17  C   UNL     1      -8.114   5.512  71.485  1.00  0.00    -0.118 A  
HETATM   18  C   UNL     1      -7.964   6.597  70.618  1.00  0.00    -0.111 A  
HETATM   19  C   UNL     1     -10.057   6.044  69.573  1.00  0.00    -0.246 A  
HETATM   20  C   UNL     1      -9.260   4.726  71.430  1.00  0.00    -0.188 A  
HETATM   21  C   UNL     1     -10.216   4.972  70.451  1.00  0.00    -0.324 A  
ENDBRANCH   5  16
ENDBRANCH   2   5
BRANCH   4  22
HETATM   22  C   UNL     2      -8.032  10.020  65.300  1.00  0.00    -0.143 A  
HETATM   23  C   UNL     2      -8.836   9.450  64.334  1.00  0.00    -0.225 A  
HETATM   24  C   UNL     2      -9.588  11.921  65.516  1.00  0.00    -0.200 A  
HETATM   25  C   UNL     2     -11.200  13.724  65.573  1.00  0.00    -0.303 A  
HETATM   26  C   UNL     2     -10.007  10.111  63.955  1.00  0.00     0.017 A  
HETATM   27  C   UNL     2     -11.894  13.062  64.574  1.00  0.00    -0.377 A  
HETATM   28  C   UNL     2      -8.448  11.192  65.923  1.00  0.00    -0.105 A  
HETATM   29  C   UNL     2     -10.006  13.177  66.067  1.00  0.00    -0.283 A  
HETATM   30  C   UNL     2     -10.378  11.340  64.493  1.00  0.00    -0.322 A  
HETATM   31  N   UNL     2     -11.498  11.900  64.027  1.00  0.00    -0.389 NA 
BRANCH  29  32
HETATM   32  C   UNL     2      -9.271  13.879  67.227  1.00  0.00    -0.235 C  
HETATM   33  H   UNL     2      -7.448  14.554  67.619  1.00  0.00     0.000 HD 
HETATM   34  O   UNL     2      -7.900  14.122  66.904  1.00  0.00     0.000 OA 
BRANCH  32  35
HETATM   35  C   UNL     2      -9.868  15.247  67.727  1.00  0.00    -0.220 C  
HETATM   36  C   UNL     2      -8.984  17.615  67.706  1.00  0.00    -0.247 C  
HETATM   37  C   UNL     2     -10.141  17.932  68.670  1.00  0.00    -0.394 C  
HETATM   38  C   UNL     2     -10.413  16.716  69.569  1.00  0.00    -0.281 C  
HETATM   39  C   UNL     2      -9.446  16.438  66.827  1.00  0.00    -0.265 C  
HETATM   40  N   UNL     2      -9.585  15.553  69.172  1.00  0.00    -0.235 NA 
HETATM   41  C   UNL     2      -8.167  15.943  69.394  1.00  0.00    -0.174 C  
HETATM   42  C   UNL     2      -7.741  17.133  68.496  1.00  0.00    -0.248 C  
BRANCH  42  43
HETATM   43  C   UNL     2      -7.111  18.242  69.307  1.00  0.00    -0.139 C  
HETATM   44  C   UNL     2      -5.828  18.616  69.216  1.00  0.00    -0.239 C  
ENDBRANCH  42  43
ENDBRANCH  32  35
ENDBRANCH  29  32
ENDBRANCH   4  22
TORSDOF 6
ENDMDL
MODEL       74
REMARK 921   NORMALIZED FREE ENERGY PREDICTED BY IDOCK:   -4.80 KCAL/MOL
REMARK 922        TOTAL FREE ENERGY PREDICTED BY IDOCK:   -9.56 KCAL/MOL
REMARK 923 INTER-LIGAND FREE ENERGY PREDICTED BY IDOCK:   -8.95 KCAL/MOL
REMARK 924 INTRA-LIGAND FREE ENERGY PREDICTED BY IDOCK:   -0.62 KCAL/MOL
REMARK 927      BINDING AFFINITY PREDICTED BY RF-SCORE:    0.00 PKD
ROOT
HETATM    1  C   UNL     1     -10.125  16.041  64.966  1.00  0.00     0.137 C  
HETATM    2  C   UNL     1     -10.644  16.346  66.369  1.00  0.00    -0.236 C  
HETATM    3  C   UNL     2     -10.708  12.635  64.670  1.00  0.00    -0.326 C  
HETATM    4  O   UNL     2     -11.338  13.340  65.727  1.00  0.00    -0.300 OA 
ENDROOT
BRANCH   2   5
HETATM    5  C   UNL     1      -9.581  16.452  67.515  1.00  0.00    -0.227 C  
HETATM    6  O   UNL     1      -8.632  14.185  67.322  1.00  0.00    -0.196 OA 
HETATM    7  C   UNL     1     -10.330  17.207  68.627  1.00  0.00    -0.359 C  
HETATM    8  C   UNL     1      -9.222  15.027  68.004  1.00  0.00    -0.183 C  
HETATM    9  H   UNL     1      -9.042  13.955  69.744  1.00  0.00     0.000 HD 
HETATM   10  N   UNL     1     -11.079  16.431  69.466  1.00  0.00    -0.314 N  
HETATM   11  O   UNL     1     -10.358  18.427  68.741  1.00  0.00    -0.349 OA 
HETATM   12  O   UNL     1     -10.794  14.992  71.172  1.00  0.00    -0.171 OA 
HETATM   13  N   UNL     1      -9.550  14.719  69.299  1.00  0.00    -0.131 N  
HETATM   14  C   UNL     1     -10.498  15.350  70.035  1.00  0.00    -0.285 C  
HETATM   15  H   UNL     1     -12.055  16.661  69.659  1.00  0.00     0.000 HD 
BRANCH   5  16
HETATM   16  C   UNL     1      -8.322  17.211  67.044  1.00  0.00    -0.232 A  
HETATM   17  C   UNL     1      -7.308  19.105  65.891  1.00  0.00    -0.278 A  
HETATM   18  C   UNL     1      -8.393  18.250  66.097  1.00  0.00    -0.159 A  
HETATM   19  C   UNL     1      -7.073  16.960  67.639  1.00  0.00    -0.158 A  
HETATM   20  C   UNL     1      -6.125  18.919  66.599  1.00  0.00    -0.182 A  
HETATM   21  C   UNL     1      -5.997  17.826  67.447  1.00  0.00    -0.163 A  
ENDBRANCH   5  16
ENDBRANCH   2   5
BRANCH   4  22
HETATM   22  C   UNL     2     -11.350  12.734  66.944  1.00  0.00    -0.321 A  
HETATM   23  C   UNL     2     -12.113  13.093  68.037  1.00  0.00    -0.240 A  
HETATM   24  C   UNL     2     -10.373  10.854  68.206  1.00  0.00    -0.194 A  
HETATM   25  C   UNL     2      -9.491   9.083  69.599  1.00  0.00    -0.174 A  
HETATM   26  C   UNL     2     -12.006  12.342  69.211  1.00  0.00    -0.308 A  
HETATM   27  C   UNL     2     -10.283   9.570  70.625  1.00  0.00    -0.297 A  
HETATM   28  C   UNL     2     -10.558  11.593  67.016  1.00  0.00    -0.272 A  
HETATM   29  C   UNL     2      -9.499   9.727  68.351  1.00  0.00    -0.146 A  
HETATM   30  C   UNL     2     -11.133  11.265  69.329  1.00  0.00    -0.255 A  
HETATM   31  N   UNL     2     -11.084  10.644  70.512  1.00  0.00    -0.211 NA 
BRANCH  29  32
HETATM   32  C   UNL     2      -8.669   9.143  67.190  1.00  0.00    -0.123 C  
HETATM   33  H   UNL     2      -6.793   8.594  66.853  1.00  0.00     0.000 HD 
HETATM   34  O   UNL     2      -7.304   8.953  67.569  1.00  0.00    -0.080 OA 
BRANCH  32  35
HETATM   35  C   UNL     2      -9.162   7.782  66.574  1.00  0.00    -0.184 C  
HETATM   36  C   UNL     2     -10.637   5.931  67.461  1.00  0.00    -0.347 C  
HETATM   37  C   UNL     2     -10.129   5.109  66.263  1.00  0.00    -0.259 C  
HETATM   38  C   UNL     2      -8.675   5.496  65.950  1.00  0.00    -0.145 C  
HETATM   39  C   UNL     2     -10.595   7.411  67.036  1.00  0.00    -0.414 C  
HETATM   40  N   UNL     2      -8.222   6.628  66.794  1.00  0.00    -0.112 NA 
HETATM   41  C   UNL     2      -8.246   6.148  68.201  1.00  0.00    -0.114 C  
HETATM   42  C   UNL     2      -9.678   5.776  68.668  1.00  0.00    -0.165 C  
BRANCH  42  43
HETATM   43  C   UNL     2      -9.724   4.387  69.263  1.00  0.00    -0.252 C  
HETATM   44  C   UNL     2      -9.321   4.078  70.503  1.00  0.00    -0.220 C  
ENDBRANCH  42  43
ENDBRANCH  32  35
ENDBRANCH  29  32
ENDBRANCH   4  22
TORSDOF 6
ENDMDL
MODEL       75
REMARK 921   NORMALIZED FREE ENERGY PREDICTED BY IDOCK:   -4.79 KCAL/MOL
REMARK 922        TOTAL FREE ENERGY PREDICTED BY IDOCK:   -9.55 KCAL/MOL
REMARK 923 INTER-LIGAND FREE ENERGY PREDICTED BY IDOCK:   -7.52 KCAL/MOL
REMARK 924 INTRA-LIGAND FREE ENERGY PREDICTED BY IDOCK:   -2.04 KCAL/MOL
REMARK 927      BINDING AFFINITY PREDICTED BY RF-SCORE:    0.00 PKD
ROOT
HETATM    1  C   UNL     1     -12.324   8.647  72.096  1.00  0.00    -0.452 C  
HETATM    2  C   UNL     1     -12.002   7.463  71.187  1.00  0.00    -0.351 C  
HETATM    3  C   UNL     2     -11.814  11.366  70.004  1.00  0.00    -0.359 C  
HETATM    4  O   UNL     2     -11.906  10.074  69.426  1.00  0.00    -0.043 OA 
ENDROOT
BRANCH   2   5
HETATM    5  C   UNL     1     -10.580   6.821  71.331  1.00  0.00    -0.247 C  
HETATM    6  O   UNL     1     -10.719   5.238  69.445  1.00  0.00    -0.233 OA 
HETATM    7  C   UNL     1     -10.415   6.660  72.851  1.00  0.00    -0.229 C  
HETATM    8  C   UNL     1     -10.586   5.426  70.657  1.00  0.00    -0.232 C  
HETATM    9  H   UNL     1     -10.045   3.486  71.044  1.00  0.00     0.000 HD 
HETATM   10  N   UNL     1     -10.929   5.511  73.384  1.00  0.00    -0.361 N  
HETATM   11  O   UNL     1      -9.942   7.513  73.593  1.00  0.00    -0.312 OA 
HETATM   12  O   UNL     1     -10.451   3.314  73.492  1.00  0.00    -0.137 OA 
HETATM   13  N   UNL     1     -10.382   4.345  71.477  1.00  0.00    -0.091 N  
HETATM   14  C   UNL     1     -10.592   4.330  72.816  1.00  0.00    -0.165 C  
HETATM   15  H   UNL     1     -11.553   5.542  74.190  1.00  0.00     0.000 HD 
BRANCH   5  16
HETATM   16  C   UNL     1      -9.491   7.727  70.720  1.00  0.00    -0.163 A  
HETATM   17  C   UNL     1      -8.074   9.708  70.855  1.00  0.00     0.174 A  
HETATM   18  C   UNL     1      -9.230   9.016  71.222  1.00  0.00    -0.314 A  
HETATM   19  C   UNL     1      -8.642   7.242  69.710  1.00  0.00    -0.141 A  
HETATM   20  C   UNL     1      -7.176   9.142  69.956  1.00  0.00    -0.066 A  
HETATM   21  C   UNL     1      -7.478   7.924  69.358  1.00  0.00    -0.091 A  
ENDBRANCH   5  16
ENDBRANCH   2   5
BRANCH   4  22
HETATM   22  C   UNL     2     -11.012   9.780  68.443  1.00  0.00    -0.152 A  
HETATM   23  C   UNL     2     -10.970   8.628  67.685  1.00  0.00     0.086 A  
HETATM   24  C   UNL     2      -9.073  10.691  67.222  1.00  0.00    -0.151 A  
HETATM   25  C   UNL     2      -7.146  11.413  65.950  1.00  0.00     0.338 A  
HETATM   26  C   UNL     2      -9.984   8.502  66.703  1.00  0.00    -0.363 A  
HETATM   27  C   UNL     2      -7.196  10.198  65.287  1.00  0.00    -0.141 A  
HETATM   28  C   UNL     2     -10.125  10.812  68.157  1.00  0.00    -0.183 A  
HETATM   29  C   UNL     2      -8.081  11.692  66.959  1.00  0.00    -0.164 A  
HETATM   30  C   UNL     2      -9.021   9.482  66.483  1.00  0.00    -0.148 A  
HETATM   31  N   UNL     2      -8.101   9.238  65.545  1.00  0.00    -0.110 NA 
BRANCH  29  32
HETATM   32  C   UNL     2      -8.067  13.072  67.647  1.00  0.00    -0.172 C  
HETATM   33  H   UNL     2      -6.750  14.497  68.058  1.00  0.00     0.000 HD 
HETATM   34  O   UNL     2      -6.759  13.647  67.633  1.00  0.00    -0.161 OA 
BRANCH  32  35
HETATM   35  C   UNL     2      -9.048  14.163  67.081  1.00  0.00    -0.232 C  
HETATM   36  C   UNL     2      -8.920  16.684  66.948  1.00  0.00    -0.244 C  
HETATM   37  C   UNL     2     -10.417  16.626  66.595  1.00  0.00    -0.258 C  
HETATM   38  C   UNL     2     -11.078  15.453  67.336  1.00  0.00    -0.311 C  
HETATM   39  C   UNL     2      -8.294  15.366  66.456  1.00  0.00    -0.184 C  
HETATM   40  N   UNL     2     -10.077  14.642  68.068  1.00  0.00    -0.225 NA 
HETATM   41  C   UNL     2      -9.486  15.528  69.106  1.00  0.00    -0.246 C  
HETATM   42  C   UNL     2      -8.730  16.731  68.486  1.00  0.00    -0.245 C  
BRANCH  42  43
HETATM   43  C   UNL     2      -9.192  18.042  69.080  1.00  0.00    -0.057 C  
HETATM   44  C   UNL     2      -8.692  19.242  68.754  1.00  0.00    -0.383 C  
ENDBRANCH  42  43
ENDBRANCH  32  35
ENDBRANCH  29  32
ENDBRANCH   4  22
TORSDOF 6
ENDMDL
MODEL       76
REMARK 921   NORMALIZED FREE ENERGY PREDICTED BY IDOCK:   -4.76 KCAL/MOL
REMARK 922        TOTAL FREE ENERGY PREDICTED BY IDOCK:   -9.50 KCAL/MOL
REMARK 923 INTER-LIGAND FREE ENERGY PREDICTED BY IDOCK:   -8.65 KCAL/MOL
REMARK 924 INTRA-LIGAND FREE ENERGY PREDICTED BY IDOCK:   -0.85 KCAL/MOL
REMARK 927      BINDING AFFINITY PREDICTED BY RF-SCORE:    0.00 PKD
ROOT
HETATM    1  C   UNL     1      -9.636  10.540  63.325  1.00  0.00    -0.373 C  
HETATM    2  C   UNL     1      -8.702  11.287  64.274  1.00  0.00     0.292 C  
HETATM    3  C   UNL     2     -12.684  12.098  63.883  1.00  0.00    -0.377 C  
HETATM    4  O   UNL     2     -11.506  12.723  64.365  1.00  0.00    -0.319 OA 
ENDROOT
BRANCH   2   5
HETATM    5  C   UNL     1      -8.373  10.596  65.640  1.00  0.00    -0.162 C  
HETATM    6  O   UNL     1     -10.685  10.177  66.388  1.00  0.00    -0.125 OA 
HETATM    7  C   UNL     1      -7.206  11.434  66.191  1.00  0.00     0.149 C  
HETATM    8  C   UNL     1      -9.597  10.726  66.580  1.00  0.00    -0.178 C  
HETATM    9  H   UNL     1     -10.060  11.295  68.496  1.00  0.00     0.000 HD 
HETATM   10  N   UNL     1      -7.562  12.547  66.900  1.00  0.00    -0.384 N  
HETATM   11  O   UNL     1      -6.023  11.213  65.962  1.00  0.00    -0.135 OA 
HETATM   12  O   UNL     1      -8.394  13.093  68.918  1.00  0.00     0.055 OA 
HETATM   13  N   UNL     1      -9.421  11.468  67.720  1.00  0.00    -0.164 N  
HETATM   14  C   UNL     1      -8.466  12.414  67.897  1.00  0.00    -0.166 C  
HETATM   15  H   UNL     1      -7.155  13.457  66.683  1.00  0.00     0.000 HD 
BRANCH   5  16
HETATM   16  C   UNL     1      -7.981   9.116  65.441  1.00  0.00    -0.106 A  
HETATM   17  C   UNL     1      -8.090   6.789  66.161  1.00  0.00    -0.115 A  
HETATM   18  C   UNL     1      -8.183   8.153  66.447  1.00  0.00    -0.108 A  
HETATM   19  C   UNL     1      -7.513   8.663  64.195  1.00  0.00    -0.110 A  
HETATM   20  C   UNL     1      -7.760   6.364  64.879  1.00  0.00    -0.104 A  
HETATM   21  C   UNL     1      -7.439   7.301  63.905  1.00  0.00    -0.100 A  
ENDBRANCH   5  16
ENDBRANCH   2   5
BRANCH   4  22
HETATM   22  C   UNL     2     -11.566  13.258  65.614  1.00  0.00    -0.335 A  
HETATM   23  C   UNL     2     -12.142  12.685  66.730  1.00  0.00    -0.236 A  
HETATM   24  C   UNL     2     -10.890  15.226  66.937  1.00  0.00    -0.317 A  
HETATM   25  C   UNL     2     -10.337  17.094  68.373  1.00  0.00    -0.362 A  
HETATM   26  C   UNL     2     -12.098  13.377  67.943  1.00  0.00    -0.289 A  
HETATM   27  C   UNL     2     -10.979  16.423  69.400  1.00  0.00    -0.325 A  
HETATM   28  C   UNL     2     -10.893  14.468  65.745  1.00  0.00    -0.317 A  
HETATM   29  C   UNL     2     -10.287  16.518  67.093  1.00  0.00    -0.298 A  
HETATM   30  C   UNL     2     -11.523  14.640  68.060  1.00  0.00    -0.324 A  
HETATM   31  N   UNL     2     -11.574  15.226  69.260  1.00  0.00    -0.311 NA 
BRANCH  29  32
HETATM   32  C   UNL     2      -9.513  17.233  65.968  1.00  0.00    -0.115 C  
HETATM   33  H   UNL     2      -9.472  19.026  65.121  1.00  0.00     0.000 HD 
HETATM   34  O   UNL     2      -9.949  18.586  65.814  1.00  0.00    -0.515 OA 
BRANCH  32  35
HETATM   35  C   UNL     2      -7.946  17.273  66.093  1.00  0.00    -0.257 C  
HETATM   36  C   UNL     2      -6.371  16.964  68.046  1.00  0.00    -0.151 C  
HETATM   37  C   UNL     2      -5.287  17.531  67.113  1.00  0.00    -0.164 C  
HETATM   38  C   UNL     2      -5.909  18.576  66.173  1.00  0.00    -0.167 C  
HETATM   39  C   UNL     2      -7.413  16.270  67.149  1.00  0.00    -0.238 C  
HETATM   40  N   UNL     2      -7.380  18.645  66.338  1.00  0.00    -0.234 NA 
HETATM   41  C   UNL     2      -7.632  19.114  67.727  1.00  0.00    -0.253 C  
HETATM   42  C   UNL     2      -7.101  18.113  68.787  1.00  0.00    -0.287 C  
BRANCH  42  43
HETATM   43  C   UNL     2      -6.213  18.797  69.800  1.00  0.00    -0.237 C  
HETATM   44  C   UNL     2      -6.000  20.118  69.854  1.00  0.00    -0.386 C  
ENDBRANCH  42  43
ENDBRANCH  32  35
ENDBRANCH  29  32
ENDBRANCH   4  22
TORSDOF 6
ENDMDL
MODEL       77
REMARK 921   NORMALIZED FREE ENERGY PREDICTED BY IDOCK:   -4.75 KCAL/MOL
REMARK 922        TOTAL FREE ENERGY PREDICTED BY IDOCK:   -9.50 KCAL/MOL
REMARK 923 INTER-LIGAND FREE ENERGY PREDICTED BY IDOCK:   -9.70 KCAL/MOL
REMARK 924 INTRA-LIGAND FREE ENERGY PREDICTED BY IDOCK:    0.21 KCAL/MOL
REMARK 927      BINDING AFFINITY PREDICTED BY RF-SCORE:    0.00 PKD
ROOT
HETATM    1  C   UNL     1      -8.444   8.944  70.736  1.00  0.00    -0.216 C  
HETATM    2  C   UNL     1      -9.803   9.587  71.004  1.00  0.00    -0.236 C  
HETATM    3  C   UNL     2      -7.394  10.569  67.857  1.00  0.00    -0.089 C  
HETATM    4  O   UNL     2      -8.484  11.114  68.584  1.00  0.00    -0.149 OA 
ENDROOT
BRANCH   2   5
HETATM    5  C   UNL     1     -11.071   8.787  70.549  1.00  0.00    -0.278 C  
HETATM    6  O   UNL     1     -12.282  10.641  69.463  1.00  0.00    -0.271 OA 
HETATM    7  C   UNL     1     -11.368   7.876  71.752  1.00  0.00    -0.264 C  
HETATM    8  C   UNL     1     -12.245   9.777  70.343  1.00  0.00    -0.057 C  
HETATM    9  H   UNL     1     -14.215  10.017  70.862  1.00  0.00     0.000 HD 
HETATM   10  N   UNL     1     -12.136   8.430  72.738  1.00  0.00    -0.499 N  
HETATM   11  O   UNL     1     -10.899   6.755  71.907  1.00  0.00    -0.225 OA 
HETATM   12  O   UNL     1     -14.283   8.983  73.123  1.00  0.00    -0.334 OA 
HETATM   13  N   UNL     1     -13.324   9.635  71.178  1.00  0.00    -0.335 N  
HETATM   14  C   UNL     1     -13.299   9.027  72.390  1.00  0.00    -0.460 C  
HETATM   15  H   UNL     1     -11.840   8.395  73.713  1.00  0.00     0.000 HD 
BRANCH   5  16
HETATM   16  C   UNL     1     -10.794   7.980  69.263  1.00  0.00    -0.072 A  
HETATM   17  C   UNL     1     -10.747   5.849  68.078  1.00  0.00    -0.332 A  
HETATM   18  C   UNL     1     -10.716   6.575  69.271  1.00  0.00    -0.329 A  
HETATM   19  C   UNL     1     -10.726   8.625  68.016  1.00  0.00    -0.137 A  
HETATM   20  C   UNL     1     -10.821   6.512  66.858  1.00  0.00    -0.427 A  
HETATM   21  C   UNL     1     -10.776   7.900  66.826  1.00  0.00    -0.097 A  
ENDBRANCH   5  16
ENDBRANCH   2   5
BRANCH   4  22
HETATM   22  C   UNL     2      -9.542  11.560  67.855  1.00  0.00    -0.177 A  
HETATM   23  C   UNL     2     -10.607  12.306  68.318  1.00  0.00    -0.243 A  
HETATM   24  C   UNL     2     -10.475  11.590  65.573  1.00  0.00    -0.327 A  
HETATM   25  C   UNL     2     -11.549  11.689  63.407  1.00  0.00    -0.340 A  
HETATM   26  C   UNL     2     -11.604  12.690  67.418  1.00  0.00    -0.421 A  
HETATM   27  C   UNL     2     -12.572  12.402  64.007  1.00  0.00    -0.412 A  
HETATM   28  C   UNL     2      -9.452  11.279  66.496  1.00  0.00    -0.213 A  
HETATM   29  C   UNL     2     -10.467  11.242  64.182  1.00  0.00    -0.431 A  
HETATM   30  C   UNL     2     -11.580  12.320  66.077  1.00  0.00    -0.393 A  
HETATM   31  N   UNL     2     -12.608  12.709  65.316  1.00  0.00    -0.663 NA 
BRANCH  29  32
HETATM   32  C   UNL     2      -9.295  10.508  63.499  1.00  0.00    -0.293 C  
HETATM   33  H   UNL     2      -7.815  10.941  62.252  1.00  0.00     0.000 HD 
HETATM   34  O   UNL     2      -8.537  11.394  62.672  1.00  0.00    -0.182 OA 
BRANCH  32  35
HETATM   35  C   UNL     2      -8.269   9.773  64.438  1.00  0.00    -0.162 C  
HETATM   36  C   UNL     2      -5.866   9.054  64.124  1.00  0.00    -0.070 C  
HETATM   37  C   UNL     2      -6.066   8.230  65.407  1.00  0.00    -0.045 C  
HETATM   38  C   UNL     2      -7.515   7.722  65.476  1.00  0.00    -0.076 C  
HETATM   39  C   UNL     2      -6.814  10.264  64.218  1.00  0.00    -0.057 C  
HETATM   40  N   UNL     2      -8.334   8.272  64.369  1.00  0.00    -0.121 NA 
HETATM   41  C   UNL     2      -7.753   7.744  63.106  1.00  0.00    -0.135 C  
HETATM   42  C   UNL     2      -6.298   8.233  62.882  1.00  0.00    -0.086 C  
BRANCH  42  43
HETATM   43  C   UNL     2      -5.362   7.080  62.603  1.00  0.00    -0.033 C  
HETATM   44  C   UNL     2      -5.565   5.821  63.012  1.00  0.00    -0.017 C  
ENDBRANCH  42  43
ENDBRANCH  32  35
ENDBRANCH  29  32
ENDBRANCH   4  22
TORSDOF 6
ENDMDL
MODEL       78
REMARK 921   NORMALIZED FREE ENERGY PREDICTED BY IDOCK:   -4.72 KCAL/MOL
REMARK 922        TOTAL FREE ENERGY PREDICTED BY IDOCK:   -9.45 KCAL/MOL
REMARK 923 INTER-LIGAND FREE ENERGY PREDICTED BY IDOCK:   -7.59 KCAL/MOL
REMARK 924 INTRA-LIGAND FREE ENERGY PREDICTED BY IDOCK:   -1.85 KCAL/MOL
REMARK 927      BINDING AFFINITY PREDICTED BY RF-SCORE:    0.00 PKD
ROOT
HETATM    1  C   UNL     1      -8.560   8.710  71.451  1.00  0.00    -0.247 C  
HETATM    2  C   UNL     1      -9.029   8.795  70.000  1.00  0.00    -0.162 C  
HETATM    3  C   UNL     2      -7.078   5.577  71.584  1.00  0.00    -0.076 C  
HETATM    4  O   UNL     2      -7.364   6.138  70.313  1.00  0.00    -0.083 OA 
ENDROOT
BRANCH   2   5
HETATM    5  C   UNL     1     -10.540   8.490  69.721  1.00  0.00    -0.224 C  
HETATM    6  O   UNL     1     -10.722   6.402  71.020  1.00  0.00    -0.232 OA 
HETATM    7  C   UNL     1     -10.705   8.840  68.232  1.00  0.00    -0.067 C  
HETATM    8  C   UNL     1     -10.797   6.976  69.931  1.00  0.00    -0.251 C  
HETATM    9  H   UNL     1     -11.670   5.379  68.986  1.00  0.00     0.000 HD 
HETATM   10  N   UNL     1     -10.395   7.841  67.352  1.00  0.00    -0.257 N  
HETATM   11  O   UNL     1     -11.003   9.950  67.808  1.00  0.00    -0.282 OA 
HETATM   12  O   UNL     1     -11.257   5.906  66.591  1.00  0.00    -0.172 OA 
HETATM   13  N   UNL     1     -11.177   6.257  68.827  1.00  0.00    -0.354 N  
HETATM   14  C   UNL     1     -10.949   6.621  67.541  1.00  0.00    -0.338 C  
HETATM   15  H   UNL     1      -9.761   8.010  66.571  1.00  0.00     0.000 HD 
BRANCH   5  16
HETATM   16  C   UNL     1     -11.461   9.339  70.623  1.00  0.00    -0.327 A  
HETATM   17  C   UNL     1     -12.617  11.438  71.078  1.00  0.00    -0.487 A  
HETATM   18  C   UNL     1     -11.586  10.730  70.454  1.00  0.00    -0.431 A  
HETATM   19  C   UNL     1     -12.295   8.724  71.572  1.00  0.00    -0.380 A  
HETATM   20  C   UNL     1     -13.517  10.776  71.906  1.00  0.00    -0.327 A  
HETATM   21  C   UNL     1     -13.335   9.426  72.180  1.00  0.00    -0.545 A  
ENDBRANCH   5  16
ENDBRANCH   2   5
BRANCH   4  22
HETATM   22  C   UNL     2      -7.895   5.300  69.382  1.00  0.00    -0.088 A  
HETATM   23  C   UNL     2      -8.796   4.279  69.609  1.00  0.00    -0.134 A  
HETATM   24  C   UNL     2      -7.903   4.811  66.965  1.00  0.00    -0.098 A  
HETATM   25  C   UNL     2      -8.004   4.173  64.633  1.00  0.00    -0.089 A  
HETATM   26  C   UNL     2      -9.247   3.524  68.523  1.00  0.00    -0.225 A  
HETATM   27  C   UNL     2      -8.876   3.163  65.004  1.00  0.00    -0.126 A  
HETATM   28  C   UNL     2      -7.522   5.598  68.075  1.00  0.00    -0.074 A  
HETATM   29  C   UNL     2      -7.472   5.025  65.614  1.00  0.00    -0.081 A  
HETATM   30  C   UNL     2      -8.796   3.742  67.225  1.00  0.00    -0.123 A  
HETATM   31  N   UNL     2      -9.264   2.932  66.270  1.00  0.00    -0.130 NA 
BRANCH  29  32
HETATM   32  C   UNL     2      -6.556   6.192  65.192  1.00  0.00    -0.043 C  
HETATM   33  H   UNL     2      -5.014   6.486  63.980  1.00  0.00     0.000 HD 
HETATM   34  O   UNL     2      -5.579   5.767  64.240  1.00  0.00    -0.016 OA 
BRANCH  32  35
HETATM   35  C   UNL     2      -7.254   7.466  64.589  1.00  0.00    -0.069 C  
HETATM   36  C   UNL     2      -6.518   9.871  64.341  1.00  0.00    -0.125 C  
HETATM   37  C   UNL     2      -7.991  10.167  64.009  1.00  0.00    -0.154 C  
HETATM   38  C   UNL     2      -8.901   9.223  64.811  1.00  0.00    -0.185 C  
HETATM   39  C   UNL     2      -6.244   8.421  63.901  1.00  0.00    -0.072 C  
HETATM   40  N   UNL     2      -8.112   8.222  65.566  1.00  0.00    -0.120 NA 
HETATM   41  C   UNL     2      -7.299   8.978  66.556  1.00  0.00    -0.085 C  
HETATM   42  C   UNL     2      -6.287   9.933  65.873  1.00  0.00    -0.085 C  
BRANCH  42  43
HETATM   43  C   UNL     2      -6.401  11.340  66.413  1.00  0.00    -0.091 C  
HETATM   44  C   UNL     2      -7.351  11.752  67.264  1.00  0.00    -0.141 C  
ENDBRANCH  42  43
ENDBRANCH  32  35
ENDBRANCH  29  32
ENDBRANCH   4  22
TORSDOF 6
ENDMDL
MODEL       79
REMARK 921   NORMALIZED FREE ENERGY PREDICTED BY IDOCK:   -4.71 KCAL/MOL
REMARK 922        TOTAL FREE ENERGY PREDICTED BY IDOCK:   -9.43 KCAL/MOL
REMARK 923 INTER-LIGAND FREE ENERGY PREDICTED BY IDOCK:   -8.35 KCAL/MOL
REMARK 924 INTRA-LIGAND FREE ENERGY PREDICTED BY IDOCK:   -1.09 KCAL/MOL
REMARK 927      BINDING AFFINITY PREDICTED BY RF-SCORE:    0.00 PKD
ROOT
HETATM    1  C   UNL     1     -11.708  13.938  68.983  1.00  0.00    -0.378 C  
HETATM    2  C   UNL     1     -10.211  14.161  68.783  1.00  0.00    -0.216 C  
HETATM    3  C   UNL     2     -11.860  10.594  69.891  1.00  0.00    -0.315 C  
HETATM    4  O   UNL     2     -10.601  11.246  69.917  1.00  0.00     0.023 OA 
ENDROOT
BRANCH   2   5
HETATM    5  C   UNL     1      -9.677  14.131  67.310  1.00  0.00    -0.236 C  
HETATM    6  O   UNL     1      -7.267  14.000  67.814  1.00  0.00    -0.132 OA 
HETATM    7  C   UNL     1     -10.564  15.161  66.590  1.00  0.00    -0.304 C  
HETATM    8  C   UNL     1      -8.204  14.613  67.297  1.00  0.00    -0.212 C  
HETATM    9  H   UNL     1      -6.986  15.932  66.306  1.00  0.00     0.000 HD 
HETATM   10  N   UNL     1     -10.141  16.458  66.661  1.00  0.00    -0.273 N  
HETATM   11  O   UNL     1     -11.633  14.900  66.051  1.00  0.00    -0.323 OA 
HETATM   12  O   UNL     1      -8.554  17.789  65.780  1.00  0.00    -0.510 OA 
HETATM   13  N   UNL     1      -7.944  15.777  66.620  1.00  0.00    -0.235 N  
HETATM   14  C   UNL     1      -8.858  16.736  66.335  1.00  0.00    -0.296 C  
HETATM   15  H   UNL     1     -10.777  17.200  66.953  1.00  0.00     0.000 HD 
BRANCH   5  16
HETATM   16  C   UNL     1      -9.805  12.722  66.694  1.00  0.00    -0.250 A  
HETATM   17  C   UNL     1     -11.192  10.937  65.778  1.00  0.00     0.181 A  
HETATM   18  C   UNL     1     -11.048  12.073  66.579  1.00  0.00    -0.362 A  
HETATM   19  C   UNL     1      -8.688  12.089  66.121  1.00  0.00     0.042 A  
HETATM   20  C   UNL     1     -10.093  10.411  65.108  1.00  0.00    -0.379 A  
HETATM   21  C   UNL     1      -8.835  10.967  65.306  1.00  0.00    -0.179 A  
ENDBRANCH   5  16
ENDBRANCH   2   5
BRANCH   4  22
HETATM   22  C   UNL     2      -9.543  10.551  69.419  1.00  0.00    -0.148 A  
HETATM   23  C   UNL     2      -8.242  10.999  69.304  1.00  0.00     0.010 A  
HETATM   24  C   UNL     2      -8.903   8.361  68.484  1.00  0.00    -0.136 A  
HETATM   25  C   UNL     2      -8.111   6.288  67.519  1.00  0.00    -0.113 A  
HETATM   26  C   UNL     2      -7.276  10.137  68.779  1.00  0.00    -0.081 A  
HETATM   27  C   UNL     2      -6.859   6.873  67.429  1.00  0.00    -0.076 A  
HETATM   28  C   UNL     2      -9.838   9.234  69.083  1.00  0.00    -0.167 A  
HETATM   29  C   UNL     2      -9.185   7.027  68.039  1.00  0.00    -0.129 A  
HETATM   30  C   UNL     2      -7.583   8.854  68.336  1.00  0.00    -0.091 A  
HETATM   31  N   UNL     2      -6.587   8.132  67.814  1.00  0.00    -0.056 NA 
BRANCH  29  32
HETATM   32  C   UNL     2     -10.562   6.353  68.203  1.00  0.00    -0.255 C  
HETATM   33  H   UNL     2     -11.606   4.910  67.331  1.00  0.00     0.000 HD 
HETATM   34  O   UNL     2     -10.758   5.325  67.230  1.00  0.00    -0.183 OA 
BRANCH  32  35
HETATM   35  C   UNL     2     -10.884   5.717  69.605  1.00  0.00    -0.348 C  
HETATM   36  C   UNL     2     -11.522   6.717  71.837  1.00  0.00    -0.332 C  
HETATM   37  C   UNL     2     -11.233   5.320  72.415  1.00  0.00    -0.229 C  
HETATM   38  C   UNL     2     -10.086   4.663  71.631  1.00  0.00    -0.188 C  
HETATM   39  C   UNL     2     -11.968   6.512  70.378  1.00  0.00    -0.295 C  
HETATM   40  N   UNL     2      -9.676   5.493  70.474  1.00  0.00    -0.175 NA 
HETATM   41  C   UNL     2      -9.143   6.766  71.029  1.00  0.00    -0.156 C  
HETATM   42  C   UNL     2     -10.225   7.565  71.802  1.00  0.00    -0.216 C  
BRANCH  42  43
HETATM   43  C   UNL     2      -9.750   7.945  73.186  1.00  0.00    -0.353 C  
HETATM   44  C   UNL     2      -8.508   7.741  73.645  1.00  0.00    -0.275 C  
ENDBRANCH  42  43
ENDBRANCH  32  35
ENDBRANCH  29  32
ENDBRANCH   4  22
TORSDOF 6
ENDMDL
MODEL       80
REMARK 921   NORMALIZED FREE ENERGY PREDICTED BY IDOCK:   -4.67 KCAL/MOL
REMARK 922        TOTAL FREE ENERGY PREDICTED BY IDOCK:   -9.39 KCAL/MOL
REMARK 923 INTER-LIGAND FREE ENERGY PREDICTED BY IDOCK:   -7.60 KCAL/MOL
REMARK 924 INTRA-LIGAND FREE ENERGY PREDICTED BY IDOCK:   -1.79 KCAL/MOL
REMARK 927      BINDING AFFINITY PREDICTED BY RF-SCORE:    0.00 PKD
ROOT
HETATM    1  C   UNL     1      -8.236   7.922  73.303  1.00  0.00    -0.234 C  
HETATM    2  C   UNL     1      -9.332   7.626  72.282  1.00  0.00    -0.199 C  
HETATM    3  C   UNL     2      -5.923   9.706  71.432  1.00  0.00    -0.025 C  
HETATM    4  O   UNL     2      -7.224   9.517  70.899  1.00  0.00    -0.223 OA 
ENDROOT
BRANCH   2   5
HETATM    5  C   UNL     1      -9.332   6.201  71.631  1.00  0.00    -0.157 C  
HETATM    6  O   UNL     1     -11.583   5.490  72.342  1.00  0.00    -0.255 OA 
HETATM    7  C   UNL     1      -7.910   5.684  71.908  1.00  0.00    -0.106 C  
HETATM    8  C   UNL     1     -10.363   5.309  72.366  1.00  0.00    -0.209 C  
HETATM    9  H   UNL     1     -10.509   3.457  73.236  1.00  0.00     0.000 HD 
HETATM   10  N   UNL     1      -7.728   5.073  73.117  1.00  0.00    -0.092 N  
HETATM   11  O   UNL     1      -6.949   5.860  71.167  1.00  0.00    -0.063 OA 
HETATM   12  O   UNL     1      -8.215   3.127  74.138  1.00  0.00    -0.069 OA 
HETATM   13  N   UNL     1      -9.866   4.225  73.044  1.00  0.00    -0.131 N  
HETATM   14  C   UNL     1      -8.589   4.095  73.480  1.00  0.00    -0.092 C  
HETATM   15  H   UNL     1      -6.962   5.347  73.731  1.00  0.00     0.000 HD 
BRANCH   5  16
HETATM   16  C   UNL     1      -9.639   6.274  70.120  1.00  0.00    -0.181 A  
HETATM   17  C   UNL     1      -9.569   5.266  67.901  1.00  0.00    -0.161 A  
HETATM   18  C   UNL     1      -9.074   5.369  69.203  1.00  0.00    -0.131 A  
HETATM   19  C   UNL     1     -10.591   7.185  69.628  1.00  0.00    -0.249 A  
HETATM   20  C   UNL     1     -10.610   6.087  67.481  1.00  0.00    -0.345 A  
HETATM   21  C   UNL     1     -11.098   7.069  68.335  1.00  0.00    -0.069 A  
ENDBRANCH   5  16
ENDBRANCH   2   5
BRANCH   4  22
HETATM   22  C   UNL     2      -7.304   9.196  69.580  1.00  0.00    -0.068 A  
HETATM   23  C   UNL     2      -6.473   8.336  68.889  1.00  0.00    -0.052 A  
HETATM   24  C   UNL     2      -8.628   9.604  67.541  1.00  0.00    -0.126 A  
HETATM   25  C   UNL     2      -9.792   9.918  65.443  1.00  0.00    -0.384 A  
HETATM   26  C   UNL     2      -6.713   8.113  67.531  1.00  0.00    -0.062 A  
HETATM   27  C   UNL     2      -8.868   9.063  64.865  1.00  0.00    -0.148 A  
HETATM   28  C   UNL     2      -8.398   9.753  68.927  1.00  0.00    -0.120 A  
HETATM   29  C   UNL     2      -9.689  10.231  66.807  1.00  0.00    -0.231 A  
HETATM   30  C   UNL     2      -7.739   8.751  66.840  1.00  0.00    -0.094 A  
HETATM   31  N   UNL     2      -7.850   8.493  65.533  1.00  0.00    -0.099 NA 
BRANCH  29  32
HETATM   32  C   UNL     2     -10.758  11.127  67.464  1.00  0.00    -0.236 C  
HETATM   33  H   UNL     2     -11.400  11.551  69.292  1.00  0.00     0.000 HD 
HETATM   34  O   UNL     2     -10.742  10.999  68.888  1.00  0.00    -0.188 OA 
BRANCH  32  35
HETATM   35  C   UNL     2     -10.693  12.666  67.146  1.00  0.00    -0.241 C  
HETATM   36  C   UNL     2      -9.878  14.659  68.470  1.00  0.00    -0.228 C  
HETATM   37  C   UNL     2     -10.587  15.512  67.404  1.00  0.00    -0.292 C  
HETATM   38  C   UNL     2     -11.844  14.780  66.908  1.00  0.00    -0.262 C  
HETATM   39  C   UNL     2      -9.454  13.348  67.784  1.00  0.00    -0.210 C  
HETATM   40  N   UNL     2     -11.946  13.422  67.493  1.00  0.00    -0.359 NA 
HETATM   41  C   UNL     2     -12.103  13.601  68.962  1.00  0.00    -0.309 C  
HETATM   42  C   UNL     2     -10.866  14.281  69.603  1.00  0.00    -0.101 C  
BRANCH  42  43
HETATM   43  C   UNL     2     -11.262  15.476  70.441  1.00  0.00    -0.356 C  
HETATM   44  C   UNL     2     -11.987  15.408  71.565  1.00  0.00    -0.443 C  
ENDBRANCH  42  43
ENDBRANCH  32  35
ENDBRANCH  29  32
ENDBRANCH   4  22
TORSDOF 6
ENDMDL
MODEL       81
REMARK 921   NORMALIZED FREE ENERGY PREDICTED BY IDOCK:   -4.66 KCAL/MOL
REMARK 922        TOTAL FREE ENERGY PREDICTED BY IDOCK:   -9.37 KCAL/MOL
REMARK 923 INTER-LIGAND FREE ENERGY PREDICTED BY IDOCK:   -7.78 KCAL/MOL
REMARK 924 INTRA-LIGAND FREE ENERGY PREDICTED BY IDOCK:   -1.59 KCAL/MOL
REMARK 927      BINDING AFFINITY PREDICTED BY RF-SCORE:    0.00 PKD
ROOT
HETATM    1  C   UNL     1      -7.780  12.567  68.517  1.00  0.00    -0.113 C  
HETATM    2  C   UNL     1      -8.308  12.740  67.095  1.00  0.00    -0.164 C  
HETATM    3  C   UNL     2      -5.641   9.855  68.204  1.00  0.00    -0.039 C  
HETATM    4  O   UNL     2      -6.089  10.504  67.025  1.00  0.00    -0.053 OA 
ENDROOT
BRANCH   2   5
HETATM    5  C   UNL     1      -9.724  12.146  66.784  1.00  0.00    -0.215 C  
HETATM    6  O   UNL     1      -9.344   9.867  67.643  1.00  0.00    -0.139 OA 
HETATM    7  C   UNL     1     -10.056  12.725  65.398  1.00  0.00    -0.259 C  
HETATM    8  C   UNL     1      -9.616  10.604  66.692  1.00  0.00    -0.175 C  
HETATM    9  H   UNL     1     -10.158   9.056  65.460  1.00  0.00     0.000 HD 
HETATM   10  N   UNL     1      -9.581  12.014  64.331  1.00  0.00    -0.470 N  
HETATM   11  O   UNL     1     -10.625  13.794  65.209  1.00  0.00    -0.317 OA 
HETATM   12  O   UNL     1     -10.025  10.112  63.213  1.00  0.00    -0.083 OA 
HETATM   13  N   UNL     1      -9.889  10.039  65.472  1.00  0.00    -0.288 N  
HETATM   14  C   UNL     1      -9.829  10.685  64.282  1.00  0.00    -0.330 C  
HETATM   15  H   UNL     1      -9.052  12.473  63.590  1.00  0.00     0.000 HD 
BRANCH   5  16
HETATM   16  C   UNL     1     -10.757  12.567  67.851  1.00  0.00    -0.239 A  
HETATM   17  C   UNL     1     -12.155  12.011  69.770  1.00  0.00    -0.317 A  
HETATM   18  C   UNL     1     -11.445  11.620  68.632  1.00  0.00    -0.349 A  
HETATM   19  C   UNL     1     -10.956  13.925  68.155  1.00  0.00    -0.267 A  
HETATM   20  C   UNL     1     -12.220  13.353  70.128  1.00  0.00    -0.385 A  
HETATM   21  C   UNL     1     -11.649  14.313  69.301  1.00  0.00    -0.350 A  
ENDBRANCH   5  16
ENDBRANCH   2   5
BRANCH   4  22
HETATM   22  C   UNL     2      -6.456   9.703  65.989  1.00  0.00    -0.078 A  
HETATM   23  C   UNL     2      -6.351   9.995  64.644  1.00  0.00    -0.125 A  
HETATM   24  C   UNL     2      -7.393   7.483  65.465  1.00  0.00    -0.071 A  
HETATM   25  C   UNL     2      -8.331   5.363  64.772  1.00  0.00    -0.145 A  
HETATM   26  C   UNL     2      -6.768   9.041  63.712  1.00  0.00    -0.089 A  
HETATM   27  C   UNL     2      -8.202   5.795  63.463  1.00  0.00    -0.072 A  
HETATM   28  C   UNL     2      -6.899   8.443  66.376  1.00  0.00    -0.070 A  
HETATM   29  C   UNL     2      -7.942   6.208  65.824  1.00  0.00    -0.115 A  
HETATM   30  C   UNL     2      -7.316   7.819  64.090  1.00  0.00    -0.090 A  
HETATM   31  N   UNL     2      -7.718   7.000  63.113  1.00  0.00    -0.111 NA 
BRANCH  29  32
HETATM   32  C   UNL     2      -8.021   5.699  67.277  1.00  0.00    -0.102 C  
HETATM   33  H   UNL     2      -6.807   5.497  68.832  1.00  0.00     0.000 HD 
HETATM   34  O   UNL     2      -6.758   5.810  67.937  1.00  0.00    -0.054 OA 
BRANCH  32  35
HETATM   35  C   UNL     2      -9.085   6.379  68.216  1.00  0.00    -0.114 C  
HETATM   36  C   UNL     2      -9.259   6.612  70.726  1.00  0.00    -0.155 C  
HETATM   37  C   UNL     2     -10.707   7.065  70.468  1.00  0.00    -0.262 C  
HETATM   38  C   UNL     2     -11.272   6.321  69.248  1.00  0.00    -0.389 C  
HETATM   39  C   UNL     2      -8.441   7.002  69.482  1.00  0.00    -0.134 C  
HETATM   40  N   UNL     2     -10.235   5.487  68.595  1.00  0.00    -0.188 NA 
HETATM   41  C   UNL     2      -9.836   4.450  69.584  1.00  0.00    -0.202 C  
HETATM   42  C   UNL     2      -9.191   5.069  70.851  1.00  0.00    -0.192 C  
BRANCH  42  43
HETATM   43  C   UNL     2      -9.853   4.566  72.113  1.00  0.00    -0.237 C  
HETATM   44  C   UNL     2     -10.009   3.272  72.425  1.00  0.00    -0.233 C  
ENDBRANCH  42  43
ENDBRANCH  32  35
ENDBRANCH  29  32
ENDBRANCH   4  22
TORSDOF 6
ENDMDL
MODEL       82
REMARK 921   NORMALIZED FREE ENERGY PREDICTED BY IDOCK:   -4.62 KCAL/MOL
REMARK 922        TOTAL FREE ENERGY PREDICTED BY IDOCK:   -9.32 KCAL/MOL
REMARK 923 INTER-LIGAND FREE ENERGY PREDICTED BY IDOCK:   -8.79 KCAL/MOL
REMARK 924 INTRA-LIGAND FREE ENERGY PREDICTED BY IDOCK:   -0.54 KCAL/MOL
REMARK 927      BINDING AFFINITY PREDICTED BY RF-SCORE:    0.00 PKD
ROOT
HETATM    1  C   UNL     1      -8.319   9.562  64.323  1.00  0.00    -0.172 C  
HETATM    2  C   UNL     1      -7.724  10.058  65.638  1.00  0.00    -0.136 C  
HETATM    3  C   UNL     2     -10.946  11.766  63.803  1.00  0.00    -0.429 C  
HETATM    4  O   UNL     2      -9.968  12.096  64.776  1.00  0.00    -0.255 OA 
ENDROOT
BRANCH   2   5
HETATM    5  C   UNL     1      -8.127   9.285  66.939  1.00  0.00    -0.108 C  
HETATM    6  O   UNL     1      -6.292   7.638  66.951  1.00  0.00    -0.050 OA 
HETATM    7  C   UNL     1      -9.658   9.179  66.830  1.00  0.00    -0.195 C  
HETATM    8  C   UNL     1      -7.503   7.867  66.898  1.00  0.00    -0.091 C  
HETATM    9  H   UNL     1      -8.034   5.903  67.158  1.00  0.00     0.000 HD 
HETATM   10  N   UNL     1     -10.127   8.113  66.114  1.00  0.00    -0.447 N  
HETATM   11  O   UNL     1     -10.445  10.014  67.260  1.00  0.00    -0.225 OA 
HETATM   12  O   UNL     1     -10.379   5.887  66.331  1.00  0.00    -0.177 OA 
HETATM   13  N   UNL     1      -8.377   6.811  66.847  1.00  0.00    -0.113 N  
HETATM   14  C   UNL     1      -9.660   6.880  66.414  1.00  0.00    -0.095 C  
HETATM   15  H   UNL     1     -10.814   8.244  65.371  1.00  0.00     0.000 HD 
BRANCH   5  16
HETATM   16  C   UNL     1      -7.687  10.048  68.206  1.00  0.00    -0.084 A  
HETATM   17  C   UNL     1      -7.119  10.052  70.578  1.00  0.00    -0.080 A  
HETATM   18  C   UNL     1      -7.771   9.472  69.487  1.00  0.00    -0.100 A  
HETATM   19  C   UNL     1      -7.077  11.310  68.103  1.00  0.00    -0.071 A  
HETATM   20  C   UNL     1      -6.403  11.233  70.417  1.00  0.00     0.006 A  
HETATM   21  C   UNL     1      -6.410  11.880  69.187  1.00  0.00    -0.092 A  
ENDBRANCH   5  16
ENDBRANCH   2   5
BRANCH   4  22
HETATM   22  C   UNL     2     -10.423  12.607  65.951  1.00  0.00    -0.274 A  
HETATM   23  C   UNL     2     -11.643  12.351  66.545  1.00  0.00    -0.447 A  
HETATM   24  C   UNL     2      -9.788  14.082  67.823  1.00  0.00    -0.232 A  
HETATM   25  C   UNL     2      -9.344  15.520  69.717  1.00  0.00    -0.136 A  
HETATM   26  C   UNL     2     -11.939  12.958  67.768  1.00  0.00    -0.336 A  
HETATM   27  C   UNL     2     -10.608  15.204  70.184  1.00  0.00    -0.202 A  
HETATM   28  C   UNL     2      -9.496  13.397  66.622  1.00  0.00    -0.264 A  
HETATM   29  C   UNL     2      -8.897  14.976  68.502  1.00  0.00    -0.181 A  
HETATM   30  C   UNL     2     -11.062  13.838  68.395  1.00  0.00    -0.263 A  
HETATM   31  N   UNL     2     -11.466  14.392  69.542  1.00  0.00    -0.274 NA 
BRANCH  29  32
HETATM   32  C   UNL     2      -7.463  15.273  68.018  1.00  0.00    -0.121 C  
HETATM   33  H   UNL     2      -6.242  14.666  66.578  1.00  0.00     0.000 HD 
HETATM   34  O   UNL     2      -7.125  14.483  66.876  1.00  0.00     0.041 OA 
BRANCH  32  35
HETATM   35  C   UNL     2      -7.127  16.766  67.652  1.00  0.00    -0.134 C  
HETATM   36  C   UNL     2      -8.265  18.960  68.180  1.00  0.00    -0.343 C  
HETATM   37  C   UNL     2      -7.339  19.565  67.111  1.00  0.00    -0.242 C  
HETATM   38  C   UNL     2      -7.087  18.533  66.001  1.00  0.00    -0.271 C  
HETATM   39  C   UNL     2      -7.523  17.753  68.782  1.00  0.00    -0.263 C  
HETATM   40  N   UNL     2      -7.691  17.221  66.334  1.00  0.00    -0.285 NA 
HETATM   41  C   UNL     2      -9.162  17.433  66.398  1.00  0.00    -0.249 C  
HETATM   42  C   UNL     2      -9.562  18.418  67.526  1.00  0.00    -0.293 C  
BRANCH  42  43
HETATM   43  C   UNL     2     -10.449  19.526  67.006  1.00  0.00    -0.587 C  
HETATM   44  C   UNL     2     -10.630  19.808  65.709  1.00  0.00    -0.522 C  
ENDBRANCH  42  43
ENDBRANCH  32  35
ENDBRANCH  29  32
ENDBRANCH   4  22
TORSDOF 6
ENDMDL
MODEL       83
REMARK 921   NORMALIZED FREE ENERGY PREDICTED BY IDOCK:   -4.62 KCAL/MOL
REMARK 922        TOTAL FREE ENERGY PREDICTED BY IDOCK:   -9.31 KCAL/MOL
REMARK 923 INTER-LIGAND FREE ENERGY PREDICTED BY IDOCK:   -8.50 KCAL/MOL
REMARK 924 INTRA-LIGAND FREE ENERGY PREDICTED BY IDOCK:   -0.81 KCAL/MOL
REMARK 927      BINDING AFFINITY PREDICTED BY RF-SCORE:    0.00 PKD
ROOT
HETATM    1  C   UNL     1      -8.673  15.966  65.877  1.00  0.00    -0.055 C  
HETATM    2  C   UNL     1      -9.684  16.511  66.882  1.00  0.00    -0.259 C  
HETATM    3  C   UNL     2      -9.547  12.616  65.667  1.00  0.00    -0.066 C  
HETATM    4  O   UNL     2     -10.457  13.517  66.278  1.00  0.00    -0.281 OA 
ENDROOT
BRANCH   2   5
HETATM    5  C   UNL     1      -9.195  16.685  68.361  1.00  0.00    -0.225 C  
HETATM    6  O   UNL     1      -8.684  14.322  68.841  1.00  0.00    -0.134 OA 
HETATM    7  C   UNL     1     -10.188  17.705  68.946  1.00  0.00    -0.354 C  
HETATM    8  C   UNL     1      -9.340  15.333  69.103  1.00  0.00    -0.236 C  
HETATM    9  H   UNL     1     -10.100  14.564  70.846  1.00  0.00     0.000 HD 
HETATM   10  N   UNL     1     -11.347  17.180  69.446  1.00  0.00     0.005 N  
HETATM   11  O   UNL     1     -10.038  18.920  68.909  1.00  0.00    -0.391 OA 
HETATM   12  O   UNL     1     -12.067  16.033  71.244  1.00  0.00    -0.417 OA 
HETATM   13  N   UNL     1     -10.228  15.295  70.146  1.00  0.00    -0.213 N  
HETATM   14  C   UNL     1     -11.264  16.153  70.322  1.00  0.00    -0.381 C  
HETATM   15  H   UNL     1     -12.254  17.555  69.166  1.00  0.00     0.000 HD 
BRANCH   5  16
HETATM   16  C   UNL     1      -7.740  17.195  68.415  1.00  0.00    -0.237 A  
HETATM   17  C   UNL     1      -6.100  18.949  67.984  1.00  0.00    -0.218 A  
HETATM   18  C   UNL     1      -7.329  18.342  67.710  1.00  0.00    -0.218 A  
HETATM   19  C   UNL     1      -6.802  16.590  69.269  1.00  0.00    -0.224 A  
HETATM   20  C   UNL     1      -5.249  18.404  68.939  1.00  0.00    -0.188 A  
HETATM   21  C   UNL     1      -5.585  17.206  69.557  1.00  0.00    -0.199 A  
ENDBRANCH   5  16
ENDBRANCH   2   5
BRANCH   4  22
HETATM   22  C   UNL     2     -11.063  13.092  67.420  1.00  0.00    -0.275 A  
HETATM   23  C   UNL     2     -12.145  13.677  68.045  1.00  0.00    -0.309 A  
HETATM   24  C   UNL     2     -10.990  11.321  69.134  1.00  0.00    -0.292 A  
HETATM   25  C   UNL     2     -11.041   9.686  70.916  1.00  0.00    -0.422 A  
HETATM   26  C   UNL     2     -12.648  13.092  69.211  1.00  0.00     0.405 A  
HETATM   27  C   UNL     2     -12.104  10.389  71.458  1.00  0.00    -0.270 A  
HETATM   28  C   UNL     2     -10.553  11.899  67.921  1.00  0.00    -0.229 A  
HETATM   29  C   UNL     2     -10.435  10.144  69.736  1.00  0.00    -0.301 A  
HETATM   30  C   UNL     2     -12.076  11.960  69.783  1.00  0.00    -0.252 A  
HETATM   31  N   UNL     2     -12.615  11.511  70.921  1.00  0.00    -0.366 NA 
BRANCH  29  32
HETATM   32  C   UNL     2      -9.298   9.322  69.097  1.00  0.00    -0.157 C  
HETATM   33  H   UNL     2      -7.513   8.630  69.615  1.00  0.00     0.000 HD 
HETATM   34  O   UNL     2      -8.214   9.136  70.009  1.00  0.00    -0.113 OA 
BRANCH  32  35
HETATM   35  C   UNL     2      -9.671   7.899  68.540  1.00  0.00    -0.161 C  
HETATM   36  C   UNL     2      -8.459   6.275  67.029  1.00  0.00    -0.108 C  
HETATM   37  C   UNL     2      -9.806   5.537  66.934  1.00  0.00    -0.181 C  
HETATM   38  C   UNL     2     -10.958   6.553  66.996  1.00  0.00    -0.396 C  
HETATM   39  C   UNL     2      -8.431   6.977  68.399  1.00  0.00    -0.123 C  
HETATM   40  N   UNL     2     -10.457   7.923  67.258  1.00  0.00    -0.304 NA 
HETATM   41  C   UNL     2      -9.614   8.300  66.092  1.00  0.00    -0.147 C  
HETATM   42  C   UNL     2      -8.372   7.382  65.948  1.00  0.00    -0.140 C  
BRANCH  42  43
HETATM   43  C   UNL     2      -8.263   6.812  64.552  1.00  0.00    -0.008 C  
HETATM   44  C   UNL     2      -7.283   5.997  64.139  1.00  0.00    -0.057 C  
ENDBRANCH  42  43
ENDBRANCH  32  35
ENDBRANCH  29  32
ENDBRANCH   4  22
TORSDOF 6
ENDMDL
MODEL       84
REMARK 921   NORMALIZED FREE ENERGY PREDICTED BY IDOCK:   -4.61 KCAL/MOL
REMARK 922        TOTAL FREE ENERGY PREDICTED BY IDOCK:   -9.30 KCAL/MOL
REMARK 923 INTER-LIGAND FREE ENERGY PREDICTED BY IDOCK:   -7.14 KCAL/MOL
REMARK 924 INTRA-LIGAND FREE ENERGY PREDICTED BY IDOCK:   -2.16 KCAL/MOL
REMARK 927      BINDING AFFINITY PREDICTED BY RF-SCORE:    0.00 PKD
ROOT
HETATM    1  C   UNL     1     -11.774  12.161  68.377  1.00  0.00    -0.388 C  
HETATM    2  C   UNL     1     -10.390  12.755  68.122  1.00  0.00    -0.243 C  
HETATM    3  C   UNL     2     -11.032   9.200  70.024  1.00  0.00    -0.220 C  
HETATM    4  O   UNL     2     -10.011  10.175  69.892  1.00  0.00    -0.242 OA 
ENDROOT
BRANCH   2   5
HETATM    5  C   UNL     1      -9.783  12.557  66.692  1.00  0.00    -0.244 C  
HETATM    6  O   UNL     1      -9.166  14.902  66.246  1.00  0.00    -0.287 OA 
HETATM    7  C   UNL     1     -10.751  11.561  66.029  1.00  0.00    -0.281 C  
HETATM    8  C   UNL     1      -9.826  13.907  65.934  1.00  0.00    -0.267 C  
HETATM    9  H   UNL     1     -10.414  14.684  64.129  1.00  0.00     0.000 HD 
HETATM   10  N   UNL     1     -11.848  12.114  65.430  1.00  0.00    -0.352 N  
HETATM   11  O   UNL     1     -10.639  10.342  66.084  1.00  0.00    -0.187 OA 
HETATM   12  O   UNL     1     -12.381  13.267  63.572  1.00  0.00    -0.698 OA 
HETATM   13  N   UNL     1     -10.622  13.962  64.818  1.00  0.00    -0.413 N  
HETATM   14  C   UNL     1     -11.662  13.132  64.559  1.00  0.00    -0.371 C  
HETATM   15  H   UNL     1     -12.785  11.766  65.633  1.00  0.00     0.000 HD 
BRANCH   5  16
HETATM   16  C   UNL     1      -8.343  12.006  66.764  1.00  0.00    -0.135 A  
HETATM   17  C   UNL     1      -6.578  10.589  65.858  1.00  0.00    -0.129 A  
HETATM   18  C   UNL     1      -7.932  10.900  65.998  1.00  0.00    -0.132 A  
HETATM   19  C   UNL     1      -7.361  12.672  67.518  1.00  0.00    -0.151 A  
HETATM   20  C   UNL     1      -5.614  11.354  66.506  1.00  0.00    -0.142 A  
HETATM   21  C   UNL     1      -6.008  12.374  67.363  1.00  0.00    -0.154 A  
ENDBRANCH   5  16
ENDBRANCH   2   5
BRANCH   4  22
HETATM   22  C   UNL     2      -8.773   9.722  69.560  1.00  0.00    -0.185 A  
HETATM   23  C   UNL     2      -7.566  10.193  70.037  1.00  0.00    -0.164 A  
HETATM   24  C   UNL     2      -7.606   8.036  68.189  1.00  0.00    -0.109 A  
HETATM   25  C   UNL     2      -6.301   6.473  66.883  1.00  0.00    -0.041 A  
HETATM   26  C   UNL     2      -6.385   9.594  69.593  1.00  0.00    -0.045 A  
HETATM   27  C   UNL     2      -5.166   7.061  67.414  1.00  0.00    -0.012 A  
HETATM   28  C   UNL     2      -8.782   8.619  68.712  1.00  0.00    -0.135 A  
HETATM   29  C   UNL     2      -7.568   6.958  67.245  1.00  0.00    -0.108 A  
HETATM   30  C   UNL     2      -6.377   8.562  68.660  1.00  0.00    -0.053 A  
HETATM   31  N   UNL     2      -5.186   8.092  68.276  1.00  0.00    -0.032 NA 
BRANCH  29  32
HETATM   32  C   UNL     2      -8.832   6.258  66.707  1.00  0.00    -0.126 C  
HETATM   33  H   UNL     2      -9.465   5.473  64.999  1.00  0.00     0.000 HD 
HETATM   34  O   UNL     2      -8.686   5.905  65.330  1.00  0.00    -0.144 OA 
BRANCH  32  35
HETATM   35  C   UNL     2      -9.305   4.960  67.460  1.00  0.00    -0.133 C  
HETATM   36  C   UNL     2      -8.481   3.788  69.542  1.00  0.00    -0.095 C  
HETATM   37  C   UNL     2      -9.371   2.615  69.095  1.00  0.00    -0.198 C  
HETATM   38  C   UNL     2      -9.402   2.545  67.560  1.00  0.00    -0.129 C  
HETATM   39  C   UNL     2      -9.129   5.074  68.997  1.00  0.00    -0.140 C  
HETATM   40  N   UNL     2      -8.682   3.689  66.951  1.00  0.00    -0.110 NA 
HETATM   41  C   UNL     2      -7.257   3.562  67.359  1.00  0.00    -0.059 C  
HETATM   42  C   UNL     2      -7.077   3.676  68.895  1.00  0.00    -0.050 C  
BRANCH  42  43
HETATM   43  C   UNL     2      -6.282   2.515  69.448  1.00  0.00    -0.025 C  
HETATM   44  C   UNL     2      -5.382   1.810  68.749  1.00  0.00    -0.013 C  
ENDBRANCH  42  43
ENDBRANCH  32  35
ENDBRANCH  29  32
ENDBRANCH   4  22
TORSDOF 6
ENDMDL
MODEL       85
REMARK 921   NORMALIZED FREE ENERGY PREDICTED BY IDOCK:   -4.59 KCAL/MOL
REMARK 922        TOTAL FREE ENERGY PREDICTED BY IDOCK:   -9.27 KCAL/MOL
REMARK 923 INTER-LIGAND FREE ENERGY PREDICTED BY IDOCK:   -7.85 KCAL/MOL
REMARK 924 INTRA-LIGAND FREE ENERGY PREDICTED BY IDOCK:   -1.43 KCAL/MOL
REMARK 927      BINDING AFFINITY PREDICTED BY RF-SCORE:    0.00 PKD
ROOT
HETATM    1  C   UNL     1      -6.360   9.043  67.798  1.00  0.00    -0.056 C  
HETATM    2  C   UNL     1      -7.389   9.764  68.664  1.00  0.00    -0.074 C  
HETATM    3  C   UNL     2      -7.178  10.117  64.603  1.00  0.00    -0.124 C  
HETATM    4  O   UNL     2      -7.724  10.813  65.711  1.00  0.00    -0.152 OA 
ENDROOT
BRANCH   2   5
HETATM    5  C   UNL     1      -8.640   8.940  69.120  1.00  0.00    -0.134 C  
HETATM    6  O   UNL     1      -8.165   8.891  71.539  1.00  0.00    -0.242 OA 
HETATM    7  C   UNL     1      -8.769   7.858  68.034  1.00  0.00    -0.125 C  
HETATM    8  C   UNL     1      -8.336   8.273  70.485  1.00  0.00    -0.124 C  
HETATM    9  H   UNL     1      -8.450   6.444  71.407  1.00  0.00     0.000 HD 
HETATM   10  N   UNL     1      -8.020   6.731  68.231  1.00  0.00    -0.110 N  
HETATM   11  O   UNL     1      -9.414   7.985  67.000  1.00  0.00    -0.153 OA 
HETATM   12  O   UNL     1      -8.017   4.885  69.518  1.00  0.00    -0.069 OA 
HETATM   13  N   UNL     1      -8.305   6.902  70.507  1.00  0.00    -0.127 N  
HETATM   14  C   UNL     1      -8.097   6.108  69.429  1.00  0.00    -0.112 C  
HETATM   15  H   UNL     1      -7.418   6.369  67.491  1.00  0.00     0.000 HD 
BRANCH   5  16
HETATM   16  C   UNL     1      -9.899   9.829  69.206  1.00  0.00    -0.208 A  
HETATM   17  C   UNL     1     -12.145  10.231  70.066  1.00  0.00    -0.230 A  
HETATM   18  C   UNL     1     -11.111   9.351  69.737  1.00  0.00    -0.193 A  
HETATM   19  C   UNL     1      -9.836  11.190  68.858  1.00  0.00    -0.176 A  
HETATM   20  C   UNL     1     -12.002  11.595  69.840  1.00  0.00    -0.414 A  
HETATM   21  C   UNL     1     -10.861  12.070  69.204  1.00  0.00    -0.175 A  
ENDBRANCH   5  16
ENDBRANCH   2   5
BRANCH   4  22
HETATM   22  C   UNL     2      -9.036  11.160  65.628  1.00  0.00    -0.205 A  
HETATM   23  C   UNL     2     -10.118  10.304  65.629  1.00  0.00    -0.341 A  
HETATM   24  C   UNL     2     -10.541  13.108  65.474  1.00  0.00    -0.299 A  
HETATM   25  C   UNL     2     -12.157  14.899  65.287  1.00  0.00    -0.117 A  
HETATM   26  C   UNL     2     -11.405  10.841  65.549  1.00  0.00     0.508 A  
HETATM   27  C   UNL     2     -13.146  13.930  65.265  1.00  0.00    -0.158 A  
HETATM   28  C   UNL     2      -9.259  12.533  65.626  1.00  0.00     0.191 A  
HETATM   29  C   UNL     2     -10.810  14.513  65.376  1.00  0.00    -0.362 A  
HETATM   30  C   UNL     2     -11.636  12.209  65.435  1.00  0.00    -0.330 A  
HETATM   31  N   UNL     2     -12.906  12.609  65.325  1.00  0.00    -0.655 NA 
BRANCH  29  32
HETATM   32  C   UNL     2      -9.714  15.594  65.471  1.00  0.00    -0.251 C  
HETATM   33  H   UNL     2      -9.524  17.532  65.094  1.00  0.00     0.000 HD 
HETATM   34  O   UNL     2     -10.199  16.866  65.035  1.00  0.00    -0.468 OA 
BRANCH  32  35
HETATM   35  C   UNL     2      -9.054  15.819  66.881  1.00  0.00    -0.235 C  
HETATM   36  C   UNL     2      -9.539  14.876  69.175  1.00  0.00    -0.172 C  
HETATM   37  C   UNL     2      -8.609  15.983  69.701  1.00  0.00     0.123 C  
HETATM   38  C   UNL     2      -8.744  17.234  68.819  1.00  0.00    -0.232 C  
HETATM   39  C   UNL     2      -9.066  14.535  67.750  1.00  0.00    -0.190 C  
HETATM   40  N   UNL     2      -9.620  16.981  67.651  1.00  0.00    -0.246 NA 
HETATM   41  C   UNL     2     -10.975  16.687  68.190  1.00  0.00    -0.327 C  
HETATM   42  C   UNL     2     -10.992  15.402  69.058  1.00  0.00    -0.252 C  
BRANCH  42  43
HETATM   43  C   UNL     2     -11.620  15.655  70.410  1.00  0.00    -0.368 C  
HETATM   44  C   UNL     2     -12.773  15.112  70.825  1.00  0.00    -0.463 C  
ENDBRANCH  42  43
ENDBRANCH  32  35
ENDBRANCH  29  32
ENDBRANCH   4  22
TORSDOF 6
ENDMDL
MODEL       86
REMARK 921   NORMALIZED FREE ENERGY PREDICTED BY IDOCK:   -4.58 KCAL/MOL
REMARK 922        TOTAL FREE ENERGY PREDICTED BY IDOCK:   -9.27 KCAL/MOL
REMARK 923 INTER-LIGAND FREE ENERGY PREDICTED BY IDOCK:   -8.21 KCAL/MOL
REMARK 924 INTRA-LIGAND FREE ENERGY PREDICTED BY IDOCK:   -1.06 KCAL/MOL
REMARK 927      BINDING AFFINITY PREDICTED BY RF-SCORE:    0.00 PKD
ROOT
HETATM    1  C   UNL     1     -11.727  12.831  68.690  1.00  0.00    -0.360 C  
HETATM    2  C   UNL     1     -10.277  13.148  68.329  1.00  0.00    -0.250 C  
HETATM    3  C   UNL     2     -11.429   9.889  70.502  1.00  0.00    -0.318 C  
HETATM    4  O   UNL     2     -10.260  10.654  70.255  1.00  0.00     0.080 OA 
ENDROOT
BRANCH   2   5
HETATM    5  C   UNL     1      -9.800  12.758  66.889  1.00  0.00    -0.236 C  
HETATM    6  O   UNL     1      -9.181  15.011  66.102  1.00  0.00    -0.292 OA 
HETATM    7  C   UNL     1     -10.839  11.716  66.440  1.00  0.00    -0.287 C  
HETATM    8  C   UNL     1      -9.884  14.005  65.974  1.00  0.00    -0.297 C  
HETATM    9  H   UNL     1     -10.612  14.570  64.142  1.00  0.00     0.000 HD 
HETATM   10  N   UNL     1     -11.974  12.222  65.870  1.00  0.00    -0.370 N  
HETATM   11  O   UNL     1     -10.745  10.511  66.637  1.00  0.00    -0.224 OA 
HETATM   12  O   UNL     1     -12.645  13.153  63.933  1.00  0.00    -0.656 OA 
HETATM   13  N   UNL     1     -10.772  13.945  64.931  1.00  0.00    -0.386 N  
HETATM   14  C   UNL     1     -11.846  13.120  64.866  1.00  0.00    -0.358 C  
HETATM   15  H   UNL     1     -12.896  11.929  66.193  1.00  0.00     0.000 HD 
BRANCH   5  16
HETATM   16  C   UNL     1      -8.369  12.179  66.909  1.00  0.00    -0.151 A  
HETATM   17  C   UNL     1      -6.680  10.693  65.967  1.00  0.00    -0.128 A  
HETATM   18  C   UNL     1      -8.020  11.038  66.163  1.00  0.00    -0.129 A  
HETATM   19  C   UNL     1      -7.337  12.849  67.589  1.00  0.00    -0.145 A  
HETATM   20  C   UNL     1      -5.670  11.459  66.538  1.00  0.00    -0.142 A  
HETATM   21  C   UNL     1      -6.000  12.517  67.377  1.00  0.00    -0.147 A  
ENDBRANCH   5  16
ENDBRANCH   2   5
BRANCH   4  22
HETATM   22  C   UNL     2      -9.143   9.964  69.897  1.00  0.00    -0.210 A  
HETATM   23  C   UNL     2      -7.855  10.456  69.832  1.00  0.00    -0.050 A  
HETATM   24  C   UNL     2      -8.357   7.730  69.210  1.00  0.00    -0.136 A  
HETATM   25  C   UNL     2      -7.420   5.618  68.493  1.00  0.00    -0.080 A  
HETATM   26  C   UNL     2      -6.822   9.594  69.455  1.00  0.00    -0.056 A  
HETATM   27  C   UNL     2      -6.187   6.246  68.437  1.00  0.00    -0.032 A  
HETATM   28  C   UNL     2      -9.365   8.611  69.661  1.00  0.00    -0.161 A  
HETATM   29  C   UNL     2      -8.556   6.352  68.868  1.00  0.00    -0.123 A  
HETATM   30  C   UNL     2      -7.048   8.265  69.109  1.00  0.00    -0.064 A  
HETATM   31  N   UNL     2      -5.991   7.544  68.725  1.00  0.00    -0.026 NA 
BRANCH  29  32
HETATM   32  C   UNL     2      -9.916   5.636  68.997  1.00  0.00    -0.174 C  
HETATM   33  H   UNL     2     -10.866   4.119  68.141  1.00  0.00     0.000 HD 
HETATM   34  O   UNL     2     -10.028   4.560  68.061  1.00  0.00    -0.122 OA 
BRANCH  32  35
HETATM   35  C   UNL     2     -10.283   5.048  70.409  1.00  0.00    -0.254 C  
HETATM   36  C   UNL     2     -10.997   6.123  72.582  1.00  0.00    -0.291 C  
HETATM   37  C   UNL     2     -10.725   4.748  73.218  1.00  0.00    -0.313 C  
HETATM   38  C   UNL     2      -9.552   4.068  72.496  1.00  0.00    -0.136 C  
HETATM   39  C   UNL     2     -11.394   5.866  71.117  1.00  0.00    -0.230 C  
HETATM   40  N   UNL     2      -9.105   4.858  71.325  1.00  0.00    -0.139 NA 
HETATM   41  C   UNL     2      -8.593   6.151  71.853  1.00  0.00    -0.132 C  
HETATM   42  C   UNL     2      -9.701   6.973  72.560  1.00  0.00    -0.170 C  
BRANCH  42  43
HETATM   43  C   UNL     2      -9.274   7.403  73.945  1.00  0.00    -0.312 C  
HETATM   44  C   UNL     2      -8.003   7.464  74.363  1.00  0.00    -0.199 C  
ENDBRANCH  42  43
ENDBRANCH  32  35
ENDBRANCH  29  32
ENDBRANCH   4  22
TORSDOF 6
ENDMDL
MODEL       87
REMARK 921   NORMALIZED FREE ENERGY PREDICTED BY IDOCK:   -4.58 KCAL/MOL
REMARK 922        TOTAL FREE ENERGY PREDICTED BY IDOCK:   -9.27 KCAL/MOL
REMARK 923 INTER-LIGAND FREE ENERGY PREDICTED BY IDOCK:   -6.95 KCAL/MOL
REMARK 924 INTRA-LIGAND FREE ENERGY PREDICTED BY IDOCK:   -2.32 KCAL/MOL
REMARK 927      BINDING AFFINITY PREDICTED BY RF-SCORE:    0.00 PKD
ROOT
HETATM    1  C   UNL     1     -10.590  10.450  66.749  1.00  0.00    -0.270 C  
HETATM    2  C   UNL     1     -11.523  10.406  67.957  1.00  0.00    -0.161 C  
HETATM    3  C   UNL     2      -9.418   7.190  66.580  1.00  0.00    -0.170 C  
HETATM    4  O   UNL     2     -10.545   7.463  67.396  1.00  0.00    -0.264 OA 
ENDROOT
BRANCH   2   5
HETATM    5  C   UNL     1     -10.956  10.944  69.315  1.00  0.00    -0.295 C  
HETATM    6  O   UNL     1     -12.758  10.137  70.791  1.00  0.00    -0.328 OA 
HETATM    7  C   UNL     1     -10.418  12.338  68.948  1.00  0.00    -0.101 C  
HETATM    8  C   UNL     1     -12.120  11.086  70.327  1.00  0.00    -0.362 C  
HETATM    9  H   UNL     1     -12.909  12.448  71.642  1.00  0.00     0.000 HD 
HETATM   10  N   UNL     1     -11.332  13.354  68.987  1.00  0.00    -0.272 N  
HETATM   11  O   UNL     1      -9.279  12.562  68.554  1.00  0.00    -0.168 OA 
HETATM   12  O   UNL     1     -12.431  14.605  70.500  1.00  0.00    -0.312 OA 
HETATM   13  N   UNL     1     -12.411  12.355  70.757  1.00  0.00    -0.324 N  
HETATM   14  C   UNL     1     -12.090  13.496  70.099  1.00  0.00    -0.354 C  
HETATM   15  H   UNL     1     -11.441  13.990  68.197  1.00  0.00     0.000 HD 
BRANCH   5  16
HETATM   16  C   UNL     1      -9.849  10.021  69.867  1.00  0.00    -0.266 A  
HETATM   17  C   UNL     1      -7.537   9.246  69.835  1.00  0.00    -0.093 A  
HETATM   18  C   UNL     1      -8.624   9.850  69.197  1.00  0.00    -0.157 A  
HETATM   19  C   UNL     1      -9.991   9.410  71.124  1.00  0.00    -0.311 A  
HETATM   20  C   UNL     1      -7.665   8.773  71.136  1.00  0.00    -0.146 A  
HETATM   21  C   UNL     1      -8.902   8.824  71.769  1.00  0.00    -0.256 A  
ENDBRANCH   5  16
ENDBRANCH   2   5
BRANCH   4  22
HETATM   22  C   UNL     2     -10.575   6.864  68.617  1.00  0.00    -0.223 A  
HETATM   23  C   UNL     2     -11.643   6.826  69.491  1.00  0.00    -0.183 A  
HETATM   24  C   UNL     2      -9.210   5.530  70.178  1.00  0.00    -0.173 A  
HETATM   25  C   UNL     2      -8.005   4.249  71.840  1.00  0.00    -0.088 A  
HETATM   26  C   UNL     2     -11.498   6.148  70.704  1.00  0.00    -0.331 A  
HETATM   27  C   UNL     2      -9.137   4.316  72.634  1.00  0.00    -0.110 A  
HETATM   28  C   UNL     2      -9.415   6.164  68.933  1.00  0.00    -0.131 A  
HETATM   29  C   UNL     2      -8.001   4.874  70.583  1.00  0.00    -0.078 A  
HETATM   30  C   UNL     2     -10.304   5.538  71.079  1.00  0.00    -0.239 A  
HETATM   31  N   UNL     2     -10.267   4.953  72.281  1.00  0.00    -0.191 NA 
BRANCH  29  32
HETATM   32  C   UNL     2      -6.765   4.740  69.671  1.00  0.00    -0.047 C  
HETATM   33  H   UNL     2      -4.791   4.804  69.851  1.00  0.00     0.000 HD 
HETATM   34  O   UNL     2      -5.552   4.887  70.413  1.00  0.00    -0.014 OA 
BRANCH  32  35
HETATM   35  C   UNL     2      -6.630   3.410  68.842  1.00  0.00    -0.040 C  
HETATM   36  C   UNL     2      -5.805   2.922  66.503  1.00  0.00    -0.023 C  
HETATM   37  C   UNL     2      -6.434   1.531  66.696  1.00  0.00    -0.023 C  
HETATM   38  C   UNL     2      -7.693   1.649  67.569  1.00  0.00    -0.059 C  
HETATM   39  C   UNL     2      -5.398   3.425  67.900  1.00  0.00    -0.013 C  
HETATM   40  N   UNL     2      -7.870   3.028  68.080  1.00  0.00    -0.059 NA 
HETATM   41  C   UNL     2      -8.087   3.898  66.893  1.00  0.00    -0.096 C  
HETATM   42  C   UNL     2      -6.857   3.917  65.949  1.00  0.00    -0.057 C  
BRANCH  42  43
HETATM   43  C   UNL     2      -7.247   3.604  64.523  1.00  0.00    -0.066 C  
HETATM   44  C   UNL     2      -8.433   3.906  63.977  1.00  0.00    -0.093 C  
ENDBRANCH  42  43
ENDBRANCH  32  35
ENDBRANCH  29  32
ENDBRANCH   4  22
TORSDOF 6
ENDMDL
MODEL       88
REMARK 921   NORMALIZED FREE ENERGY PREDICTED BY IDOCK:   -4.58 KCAL/MOL
REMARK 922        TOTAL FREE ENERGY PREDICTED BY IDOCK:   -9.26 KCAL/MOL
REMARK 923 INTER-LIGAND FREE ENERGY PREDICTED BY IDOCK:   -8.00 KCAL/MOL
REMARK 924 INTRA-LIGAND FREE ENERGY PREDICTED BY IDOCK:   -1.26 KCAL/MOL
REMARK 927      BINDING AFFINITY PREDICTED BY RF-SCORE:    0.00 PKD
ROOT
HETATM    1  C   UNL     1      -7.211   8.486  70.324  1.00  0.00    -0.048 C  
HETATM    2  C   UNL     1      -8.463   9.274  70.698  1.00  0.00    -0.258 C  
HETATM    3  C   UNL     2      -6.012  10.233  67.578  1.00  0.00    -0.053 C  
HETATM    4  O   UNL     2      -7.001  10.844  68.390  1.00  0.00    -0.066 OA 
ENDROOT
BRANCH   2   5
HETATM    5  C   UNL     1      -9.838   8.700  70.213  1.00  0.00    -0.195 C  
HETATM    6  O   UNL     1      -9.254   8.349  67.844  1.00  0.00    -0.136 OA 
HETATM    7  C   UNL     1     -10.868   9.580  70.942  1.00  0.00    -0.337 C  
HETATM    8  C   UNL     1      -9.962   8.910  68.684  1.00  0.00    -0.177 C  
HETATM    9  H   UNL     1     -11.283   9.639  67.295  1.00  0.00     0.000 HD 
HETATM   10  N   UNL     1     -11.195  10.749  70.314  1.00  0.00    -0.430 N  
HETATM   11  O   UNL     1     -11.327   9.339  72.052  1.00  0.00    -0.349 OA 
HETATM   12  O   UNL     1     -12.406  11.464  68.557  1.00  0.00    -0.504 OA 
HETATM   13  N   UNL     1     -10.962   9.746  68.256  1.00  0.00    -0.205 N  
HETATM   14  C   UNL     1     -11.557  10.702  69.012  1.00  0.00    -0.261 C  
HETATM   15  H   UNL     1     -11.167  11.637  70.815  1.00  0.00     0.000 HD 
BRANCH   5  16
HETATM   16  C   UNL     1      -9.985   7.208  70.582  1.00  0.00    -0.195 A  
HETATM   17  C   UNL     1     -10.166   4.874  69.900  1.00  0.00    -0.299 A  
HETATM   18  C   UNL     1     -10.311   6.235  69.619  1.00  0.00    -0.267 A  
HETATM   19  C   UNL     1      -9.681   6.760  71.879  1.00  0.00    -0.160 A  
HETATM   20  C   UNL     1      -9.728   4.461  71.153  1.00  0.00    -0.256 A  
HETATM   21  C   UNL     1      -9.518   5.402  72.153  1.00  0.00    -0.164 A  
ENDBRANCH   5  16
ENDBRANCH   2   5
BRANCH   4  22
HETATM   22  C   UNL     2      -8.004  11.496  67.743  1.00  0.00    -0.128 A  
HETATM   23  C   UNL     2      -8.747  12.554  68.228  1.00  0.00    -0.171 A  
HETATM   24  C   UNL     2      -9.243  11.563  65.612  1.00  0.00    -0.184 A  
HETATM   25  C   UNL     2     -10.581  11.747  63.604  1.00  0.00    -0.496 A  
HETATM   26  C   UNL     2      -9.735  13.114  67.414  1.00  0.00    -0.220 A  
HETATM   27  C   UNL     2     -11.270  12.776  64.223  1.00  0.00    -0.364 A  
HETATM   28  C   UNL     2      -8.207  11.068  66.436  1.00  0.00    -0.166 A  
HETATM   29  C   UNL     2      -9.548  11.092  64.293  1.00  0.00    -0.303 A  
HETATM   30  C   UNL     2     -10.022  12.622  66.144  1.00  0.00    -0.261 A  
HETATM   31  N   UNL     2     -11.016  13.208  65.471  1.00  0.00    -0.276 NA 
BRANCH  29  32
HETATM   32  C   UNL     2      -8.735   9.993  63.578  1.00  0.00    -0.222 C  
HETATM   33  H   UNL     2      -7.530   9.841  62.011  1.00  0.00     0.000 HD 
HETATM   34  O   UNL     2      -8.030  10.518  62.451  1.00  0.00    -0.151 OA 
BRANCH  32  35
HETATM   35  C   UNL     2      -7.685   9.204  64.443  1.00  0.00    -0.119 C  
HETATM   36  C   UNL     2      -5.512   8.046  63.871  1.00  0.00    -0.048 C  
HETATM   37  C   UNL     2      -5.608   7.423  65.274  1.00  0.00    -0.033 C  
HETATM   38  C   UNL     2      -7.083   7.188  65.636  1.00  0.00    -0.068 C  
HETATM   39  C   UNL     2      -6.233   9.405  63.936  1.00  0.00    -0.093 C  
HETATM   40  N   UNL     2      -7.989   7.740  64.601  1.00  0.00    -0.136 NA 
HETATM   41  C   UNL     2      -7.726   6.976  63.352  1.00  0.00    -0.118 C  
HETATM   42  C   UNL     2      -6.276   7.175  62.840  1.00  0.00    -0.052 C  
BRANCH  42  43
HETATM   43  C   UNL     2      -5.590   5.852  62.589  1.00  0.00    -0.017 C  
HETATM   44  C   UNL     2      -6.184   4.656  62.698  1.00  0.00    -0.018 C  
ENDBRANCH  42  43
ENDBRANCH  32  35
ENDBRANCH  29  32
ENDBRANCH   4  22
TORSDOF 6
ENDMDL
MODEL       89
REMARK 921   NORMALIZED FREE ENERGY PREDICTED BY IDOCK:   -4.58 KCAL/MOL
REMARK 922        TOTAL FREE ENERGY PREDICTED BY IDOCK:   -9.26 KCAL/MOL
REMARK 923 INTER-LIGAND FREE ENERGY PREDICTED BY IDOCK:   -7.82 KCAL/MOL
REMARK 924 INTRA-LIGAND FREE ENERGY PREDICTED BY IDOCK:   -1.45 KCAL/MOL
REMARK 927      BINDING AFFINITY PREDICTED BY RF-SCORE:    0.00 PKD
ROOT
HETATM    1  C   UNL     1     -12.021  12.688  65.618  1.00  0.00    -0.507 C  
HETATM    2  C   UNL     1     -11.691  12.001  66.941  1.00  0.00    -0.342 C  
HETATM    3  C   UNL     2     -10.051  10.952  63.353  1.00  0.00    -0.340 C  
HETATM    4  O   UNL     2     -10.243  10.400  64.645  1.00  0.00    -0.346 OA 
ENDROOT
BRANCH   2   5
HETATM    5  C   UNL     1     -10.657  12.715  67.876  1.00  0.00    -0.232 C  
HETATM    6  O   UNL     1     -12.008  12.740  69.939  1.00  0.00    -0.321 OA 
HETATM    7  C   UNL     1     -10.060  13.810  66.976  1.00  0.00    -0.256 C  
HETATM    8  C   UNL     1     -11.413  13.369  69.060  1.00  0.00    -0.301 C  
HETATM    9  H   UNL     1     -11.543  15.160  70.051  1.00  0.00     0.000 HD 
HETATM   10  N   UNL     1     -10.756  14.986  66.935  1.00  0.00    -0.302 N  
HETATM   11  O   UNL     1      -9.081  13.659  66.254  1.00  0.00    -0.128 OA 
HETATM   12  O   UNL     1     -11.131  16.794  68.222  1.00  0.00    -0.361 OA 
HETATM   13  N   UNL     1     -11.365  14.737  69.140  1.00  0.00    -0.266 N  
HETATM   14  C   UNL     1     -11.100  15.571  68.105  1.00  0.00    -0.325 C  
HETATM   15  H   UNL     1     -11.010  15.412  66.044  1.00  0.00     0.000 HD 
BRANCH   5  16
HETATM   16  C   UNL     1      -9.582  11.729  68.381  1.00  0.00    -0.191 A  
HETATM   17  C   UNL     1      -7.312  11.299  69.162  1.00  0.00    -0.104 A  
HETATM   18  C   UNL     1      -8.223  12.085  68.451  1.00  0.00    -0.151 A  
HETATM   19  C   UNL     1      -9.951  10.475  68.899  1.00  0.00    -0.213 A  
HETATM   20  C   UNL     1      -7.734  10.130  69.785  1.00  0.00    -0.176 A  
HETATM   21  C   UNL     1      -9.046   9.700  69.625  1.00  0.00    -0.224 A  
ENDBRANCH   5  16
ENDBRANCH   2   5
BRANCH   4  22
HETATM   22  C   UNL     2      -9.148   9.866  65.250  1.00  0.00    -0.211 A  
HETATM   23  C   UNL     2      -7.890  10.428  65.322  1.00  0.00    -0.137 A  
HETATM   24  C   UNL     2      -8.385   7.916  66.552  1.00  0.00    -0.127 A  
HETATM   25  C   UNL     2      -7.460   6.064  67.805  1.00  0.00    -0.085 A  
HETATM   26  C   UNL     2      -6.881   9.739  66.001  1.00  0.00    -0.094 A  
HETATM   27  C   UNL     2      -6.242   6.722  67.773  1.00  0.00    -0.040 A  
HETATM   28  C   UNL     2      -9.397   8.672  65.918  1.00  0.00    -0.262 A  
HETATM   29  C   UNL     2      -8.576   6.638  67.174  1.00  0.00    -0.112 A  
HETATM   30  C   UNL     2      -7.090   8.490  66.579  1.00  0.00    -0.079 A  
HETATM   31  N   UNL     2      -6.042   7.905  67.167  1.00  0.00    -0.052 NA 
BRANCH  29  32
HETATM   32  C   UNL     2      -9.946   5.938  67.269  1.00  0.00    -0.153 C  
HETATM   33  H   UNL     2     -11.859   6.416  67.055  1.00  0.00     0.000 HD 
HETATM   34  O   UNL     2     -11.015   6.847  66.996  1.00  0.00    -0.379 OA 
BRANCH  32  35
HETATM   35  C   UNL     2     -10.172   4.682  66.350  1.00  0.00    -0.260 C  
HETATM   36  C   UNL     2      -8.697   2.730  65.717  1.00  0.00    -0.129 C  
HETATM   37  C   UNL     2      -9.749   2.434  64.634  1.00  0.00    -0.003 C  
HETATM   38  C   UNL     2     -10.351   3.753  64.124  1.00  0.00    -0.252 C  
HETATM   39  C   UNL     2      -9.433   3.425  66.877  1.00  0.00    -0.174 C  
HETATM   40  N   UNL     2      -9.850   4.913  64.899  1.00  0.00     0.085 NA 
HETATM   41  C   UNL     2      -8.384   4.987  64.656  1.00  0.00    -0.141 C  
HETATM   42  C   UNL     2      -7.641   3.732  65.183  1.00  0.00    -0.081 C  
BRANCH  42  43
HETATM   43  C   UNL     2      -6.759   3.122  64.118  1.00  0.00    -0.036 C  
HETATM   44  C   UNL     2      -5.431   3.283  64.047  1.00  0.00    -0.009 C  
ENDBRANCH  42  43
ENDBRANCH  32  35
ENDBRANCH  29  32
ENDBRANCH   4  22
TORSDOF 6
ENDMDL
MODEL       90
REMARK 921   NORMALIZED FREE ENERGY PREDICTED BY IDOCK:   -4.57 KCAL/MOL
REMARK 922        TOTAL FREE ENERGY PREDICTED BY IDOCK:   -9.26 KCAL/MOL
REMARK 923 INTER-LIGAND FREE ENERGY PREDICTED BY IDOCK:   -7.39 KCAL/MOL
REMARK 924 INTRA-LIGAND FREE ENERGY PREDICTED BY IDOCK:   -1.87 KCAL/MOL
REMARK 927      BINDING AFFINITY PREDICTED BY RF-SCORE:    0.00 PKD
ROOT
HETATM    1  C   UNL     1      -7.476   9.411  68.696  1.00  0.00    -0.079 C  
HETATM    2  C   UNL     1      -8.434   8.242  68.477  1.00  0.00    -0.126 C  
HETATM    3  C   UNL     2      -6.511   8.988  72.001  1.00  0.00     0.029 C  
HETATM    4  O   UNL     2      -7.167   7.916  71.344  1.00  0.00    -0.060 OA 
ENDROOT
BRANCH   2   5
HETATM    5  C   UNL     1      -9.967   8.551  68.565  1.00  0.00    -0.201 C  
HETATM    6  O   UNL     1      -9.922   9.976  70.577  1.00  0.00    -0.186 OA 
HETATM    7  C   UNL     1     -10.622   7.202  68.225  1.00  0.00    -0.188 C  
HETATM    8  C   UNL     1     -10.320   8.949  70.020  1.00  0.00    -0.204 C  
HETATM    9  H   UNL     1     -11.676   8.503  71.492  1.00  0.00     0.000 HD 
HETATM   10  N   UNL     1     -10.789   6.344  69.277  1.00  0.00    -0.291 N  
HETATM   11  O   UNL     1     -10.911   6.835  67.092  1.00  0.00    -0.363 OA 
HETATM   12  O   UNL     1     -12.110   6.089  71.080  1.00  0.00     0.020 OA 
HETATM   13  N   UNL     1     -11.168   8.113  70.699  1.00  0.00    -0.263 N  
HETATM   14  C   UNL     1     -11.385   6.809  70.398  1.00  0.00    -0.347 C  
HETATM   15  H   UNL     1     -10.471   5.377  69.218  1.00  0.00     0.000 HD 
BRANCH   5  16
HETATM   16  C   UNL     1     -10.374   9.661  67.572  1.00  0.00    -0.297 A  
HETATM   17  C   UNL     1     -11.347  11.855  67.142  1.00  0.00    -0.393 A  
HETATM   18  C   UNL     1     -11.215  10.723  67.951  1.00  0.00    -0.386 A  
HETATM   19  C   UNL     1      -9.818   9.703  66.282  1.00  0.00    -0.323 A  
HETATM   20  C   UNL     1     -10.672  11.930  65.929  1.00  0.00    -0.326 A  
HETATM   21  C   UNL     1      -9.935  10.840  65.483  1.00  0.00    -0.321 A  
ENDBRANCH   5  16
ENDBRANCH   2   5
BRANCH   4  22
HETATM   22  C   UNL     2      -8.119   7.254  72.056  1.00  0.00    -0.094 A  
HETATM   23  C   UNL     2      -8.951   7.790  73.018  1.00  0.00    -0.256 A  
HETATM   24  C   UNL     2      -9.170   5.041  72.338  1.00  0.00    -0.150 A  
HETATM   25  C   UNL     2     -10.286   2.938  72.768  1.00  0.00    -0.237 A  
HETATM   26  C   UNL     2      -9.885   6.960  73.641  1.00  0.00    -0.291 A  
HETATM   27  C   UNL     2     -11.031   3.594  73.733  1.00  0.00    -0.225 A  
HETATM   28  C   UNL     2      -8.285   5.926  71.680  1.00  0.00    -0.119 A  
HETATM   29  C   UNL     2      -9.311   3.645  72.046  1.00  0.00    -0.183 A  
HETATM   30  C   UNL     2      -9.986   5.602  73.352  1.00  0.00    -0.175 A  
HETATM   31  N   UNL     2     -10.888   4.895  74.039  1.00  0.00    -0.293 NA 
BRANCH  29  32
HETATM   32  C   UNL     2      -8.530   2.931  70.924  1.00  0.00    -0.058 C  
HETATM   33  H   UNL     2      -8.125   1.070  70.368  1.00  0.00     0.000 HD 
HETATM   34  O   UNL     2      -8.606   1.510  71.059  1.00  0.00    -0.049 OA 
BRANCH  32  35
HETATM   35  C   UNL     2      -8.939   3.268  69.443  1.00  0.00    -0.114 C  
HETATM   36  C   UNL     2      -8.861   1.937  67.296  1.00  0.00    -0.152 C  
HETATM   37  C   UNL     2      -9.124   3.278  66.590  1.00  0.00    -0.180 C  
HETATM   38  C   UNL     2      -8.447   4.415  67.371  1.00  0.00    -0.103 C  
HETATM   39  C   UNL     2      -9.503   2.034  68.692  1.00  0.00    -0.206 C  
HETATM   40  N   UNL     2      -7.852   3.924  68.636  1.00  0.00    -0.067 NA 
HETATM   41  C   UNL     2      -6.780   2.964  68.258  1.00  0.00    -0.040 C  
HETATM   42  C   UNL     2      -7.340   1.728  67.507  1.00  0.00    -0.054 C  
BRANCH  42  43
HETATM   43  C   UNL     2      -6.607   1.490  66.207  1.00  0.00    -0.023 C  
HETATM   44  C   UNL     2      -5.754   2.357  65.646  1.00  0.00    -0.017 C  
ENDBRANCH  42  43
ENDBRANCH  32  35
ENDBRANCH  29  32
ENDBRANCH   4  22
TORSDOF 6
ENDMDL
MODEL       91
REMARK 921   NORMALIZED FREE ENERGY PREDICTED BY IDOCK:   -4.57 KCAL/MOL
REMARK 922        TOTAL FREE ENERGY PREDICTED BY IDOCK:   -9.25 KCAL/MOL
REMARK 923 INTER-LIGAND FREE ENERGY PREDICTED BY IDOCK:   -7.97 KCAL/MOL
REMARK 924 INTRA-LIGAND FREE ENERGY PREDICTED BY IDOCK:   -1.28 KCAL/MOL
REMARK 927      BINDING AFFINITY PREDICTED BY RF-SCORE:    0.00 PKD
ROOT
HETATM    1  C   UNL     1     -10.864   6.910  67.432  1.00  0.00    -0.396 C  
HETATM    2  C   UNL     1      -9.579   6.501  68.148  1.00  0.00    -0.123 C  
HETATM    3  C   UNL     2     -10.067  10.048  66.186  1.00  0.00    -0.247 C  
HETATM    4  O   UNL     2      -9.017   9.218  66.655  1.00  0.00    -0.134 OA 
ENDROOT
BRANCH   2   5
HETATM    5  C   UNL     1      -9.540   6.687  69.703  1.00  0.00    -0.156 C  
HETATM    6  O   UNL     1     -10.018   4.356  70.347  1.00  0.00    -0.218 OA 
HETATM    7  C   UNL     1     -10.265   8.026  69.919  1.00  0.00    -0.204 C  
HETATM    8  C   UNL     1     -10.346   5.545  70.369  1.00  0.00    -0.276 C  
HETATM    9  H   UNL     1     -11.816   5.263  71.772  1.00  0.00     0.000 HD 
HETATM   10  N   UNL     1     -11.627   7.952  70.015  1.00  0.00    -0.467 N  
HETATM   11  O   UNL     1      -9.716   9.122  69.922  1.00  0.00    -0.173 OA 
HETATM   12  O   UNL     1     -13.203   7.307  71.487  1.00  0.00    -0.376 OA 
HETATM   13  N   UNL     1     -11.472   5.909  71.063  1.00  0.00    -0.169 N  
HETATM   14  C   UNL     1     -12.163   7.061  70.880  1.00  0.00    -0.342 C  
HETATM   15  H   UNL     1     -12.224   8.555  69.449  1.00  0.00     0.000 HD 
BRANCH   5  16
HETATM   16  C   UNL     1      -8.089   6.721  70.228  1.00  0.00    -0.120 A  
HETATM   17  C   UNL     1      -5.700   6.402  69.852  1.00  0.00    -0.014 A  
HETATM   18  C   UNL     1      -7.029   6.127  69.518  1.00  0.00    -0.067 A  
HETATM   19  C   UNL     1      -7.764   7.453  71.383  1.00  0.00    -0.086 A  
HETATM   20  C   UNL     1      -5.407   7.245  70.918  1.00  0.00    -0.027 A  
HETATM   21  C   UNL     1      -6.439   7.743  71.704  1.00  0.00    -0.039 A  
ENDBRANCH   5  16
ENDBRANCH   2   5
BRANCH   4  22
HETATM   22  C   UNL     2      -8.054   9.818  67.406  1.00  0.00    -0.114 A  
HETATM   23  C   UNL     2      -6.911   9.227  67.907  1.00  0.00    -0.077 A  
HETATM   24  C   UNL     2      -7.405  11.981  68.395  1.00  0.00    -0.096 A  
HETATM   25  C   UNL     2      -6.635  14.012  69.462  1.00  0.00    -0.115 A  
HETATM   26  C   UNL     2      -6.021  10.004  68.651  1.00  0.00    -0.041 A  
HETATM   27  C   UNL     2      -5.551  13.290  69.930  1.00  0.00    -0.109 A  
HETATM   28  C   UNL     2      -8.247  11.183  67.590  1.00  0.00    -0.118 A  
HETATM   29  C   UNL     2      -7.613  13.370  68.687  1.00  0.00    -0.101 A  
HETATM   30  C   UNL     2      -6.259  11.346  68.935  1.00  0.00    -0.053 A  
HETATM   31  N   UNL     2      -5.358  11.981  69.691  1.00  0.00    -0.068 NA 
BRANCH  29  32
HETATM   32  C   UNL     2      -8.784  14.190  68.108  1.00  0.00    -0.181 C  
HETATM   33  H   UNL     2     -10.754  14.032  67.951  1.00  0.00     0.000 HD 
HETATM   34  O   UNL     2     -10.034  13.527  68.308  1.00  0.00    -0.228 OA 
BRANCH  32  35
HETATM   35  C   UNL     2      -8.959  15.659  68.642  1.00  0.00    -0.202 C  
HETATM   36  C   UNL     2     -10.648  17.474  68.150  1.00  0.00    -0.366 C  
HETATM   37  C   UNL     2      -9.678  18.416  68.883  1.00  0.00    -0.318 C  
HETATM   38  C   UNL     2      -8.230  17.966  68.631  1.00  0.00    -0.275 C  
HETATM   39  C   UNL     2     -10.450  16.071  68.754  1.00  0.00    -0.248 C  
HETATM   40  N   UNL     2      -8.184  16.693  67.872  1.00  0.00    -0.178 NA 
HETATM   41  C   UNL     2      -8.786  16.968  66.541  1.00  0.00    -0.264 C  
HETATM   42  C   UNL     2     -10.278  17.380  66.648  1.00  0.00    -0.324 C  
BRANCH  42  43
HETATM   43  C   UNL     2     -10.552  18.669  65.908  1.00  0.00    -0.365 C  
HETATM   44  C   UNL     2      -9.789  19.767  65.988  1.00  0.00    -0.497 C  
ENDBRANCH  42  43
ENDBRANCH  32  35
ENDBRANCH  29  32
ENDBRANCH   4  22
TORSDOF 6
ENDMDL
MODEL       92
REMARK 921   NORMALIZED FREE ENERGY PREDICTED BY IDOCK:   -4.57 KCAL/MOL
REMARK 922        TOTAL FREE ENERGY PREDICTED BY IDOCK:   -9.25 KCAL/MOL
REMARK 923 INTER-LIGAND FREE ENERGY PREDICTED BY IDOCK:   -8.35 KCAL/MOL
REMARK 924 INTRA-LIGAND FREE ENERGY PREDICTED BY IDOCK:   -0.90 KCAL/MOL
REMARK 927      BINDING AFFINITY PREDICTED BY RF-SCORE:    0.00 PKD
ROOT
HETATM    1  C   UNL     1      -8.045   9.142  65.180  1.00  0.00    -0.130 C  
HETATM    2  C   UNL     1      -7.986   9.713  66.595  1.00  0.00    -0.109 C  
HETATM    3  C   UNL     2      -9.917  11.518  63.484  1.00  0.00    -0.399 C  
HETATM    4  O   UNL     2      -9.393  11.853  64.759  1.00  0.00    -0.024 OA 
ENDROOT
BRANCH   2   5
HETATM    5  C   UNL     1      -8.986   9.119  67.645  1.00  0.00    -0.130 C  
HETATM    6  O   UNL     1     -11.035   9.228  66.277  1.00  0.00     0.322 OA 
HETATM    7  C   UNL     1      -8.546   9.774  68.965  1.00  0.00    -0.146 C  
HETATM    8  C   UNL     1     -10.423   9.578  67.290  1.00  0.00    -0.262 C  
HETATM    9  H   UNL     1     -12.071  10.423  68.170  1.00  0.00     0.000 HD 
HETATM   10  N   UNL     1      -9.086  11.003  69.224  1.00  0.00    -0.399 N  
HETATM   11  O   UNL     1      -7.704   9.309  69.725  1.00  0.00    -0.079 OA 
HETATM   12  O   UNL     1     -11.041  11.906  69.880  1.00  0.00    -0.063 OA 
HETATM   13  N   UNL     1     -11.052  10.389  68.198  1.00  0.00    -0.285 N  
HETATM   14  C   UNL     1     -10.428  11.149  69.131  1.00  0.00    -0.182 C  
HETATM   15  H   UNL     1      -8.492  11.791  69.482  1.00  0.00     0.000 HD 
BRANCH   5  16
HETATM   16  C   UNL     1      -8.893   7.579  67.701  1.00  0.00    -0.128 A  
HETATM   17  C   UNL     1      -9.986   5.400  67.757  1.00  0.00    -0.198 A  
HETATM   18  C   UNL     1     -10.015   6.778  67.983  1.00  0.00    -0.162 A  
HETATM   19  C   UNL     1      -7.699   6.923  67.355  1.00  0.00    -0.110 A  
HETATM   20  C   UNL     1      -8.829   4.794  67.279  1.00  0.00    -0.104 A  
HETATM   21  C   UNL     1      -7.675   5.551  67.111  1.00  0.00    -0.100 A  
ENDBRANCH   5  16
ENDBRANCH   2   5
BRANCH   4  22
HETATM   22  C   UNL     2     -10.222  12.523  65.603  1.00  0.00    -0.267 A  
HETATM   23  C   UNL     2     -11.602  12.512  65.585  1.00  0.00    -0.435 A  
HETATM   24  C   UNL     2     -10.229  14.026  67.558  1.00  0.00    -0.244 A  
HETATM   25  C   UNL     2     -10.421  15.524  69.448  1.00  0.00    -0.253 A  
HETATM   26  C   UNL     2     -12.295  13.255  66.544  1.00  0.00    -0.311 A  
HETATM   27  C   UNL     2     -11.795  15.451  69.297  1.00  0.00    -0.343 A  
HETATM   28  C   UNL     2      -9.563  13.209  66.618  1.00  0.00    -0.260 A  
HETATM   29  C   UNL     2      -9.588  14.820  68.564  1.00  0.00    -0.218 A  
HETATM   30  C   UNL     2     -11.645  14.034  67.497  1.00  0.00    -0.367 A  
HETATM   31  N   UNL     2     -12.410  14.735  68.339  1.00  0.00    -0.031 NA 
BRANCH  29  32
HETATM   32  C   UNL     2      -8.060  14.846  68.777  1.00  0.00    -0.162 C  
HETATM   33  H   UNL     2      -6.513  13.644  68.472  1.00  0.00     0.000 HD 
HETATM   34  O   UNL     2      -7.453  13.628  68.341  1.00  0.00    -0.107 OA 
BRANCH  32  35
HETATM   35  C   UNL     2      -7.264  16.019  68.094  1.00  0.00    -0.131 C  
HETATM   36  C   UNL     2      -7.610  18.522  68.034  1.00  0.00    -0.271 C  
HETATM   37  C   UNL     2      -6.563  18.524  66.906  1.00  0.00    -0.204 C  
HETATM   38  C   UNL     2      -6.689  17.233  66.082  1.00  0.00    -0.169 C  
HETATM   39  C   UNL     2      -7.289  17.319  68.940  1.00  0.00    -0.243 C  
HETATM   40  N   UNL     2      -7.680  16.305  66.677  1.00  0.00    -0.253 NA 
HETATM   41  C   UNL     2      -8.999  16.989  66.608  1.00  0.00    -0.254 C  
HETATM   42  C   UNL     2      -9.028  18.289  67.453  1.00  0.00    -0.257 C  
BRANCH  42  43
HETATM   43  C   UNL     2      -9.516  19.467  66.642  1.00  0.00    -0.416 C  
HETATM   44  C   UNL     2      -9.584  20.726  67.096  1.00  0.00    -0.465 C  
ENDBRANCH  42  43
ENDBRANCH  32  35
ENDBRANCH  29  32
ENDBRANCH   4  22
TORSDOF 6
ENDMDL
MODEL       93
REMARK 921   NORMALIZED FREE ENERGY PREDICTED BY IDOCK:   -4.56 KCAL/MOL
REMARK 922        TOTAL FREE ENERGY PREDICTED BY IDOCK:   -9.23 KCAL/MOL
REMARK 923 INTER-LIGAND FREE ENERGY PREDICTED BY IDOCK:   -8.93 KCAL/MOL
REMARK 924 INTRA-LIGAND FREE ENERGY PREDICTED BY IDOCK:   -0.30 KCAL/MOL
REMARK 927      BINDING AFFINITY PREDICTED BY RF-SCORE:    0.00 PKD
ROOT
HETATM    1  C   UNL     1     -10.432   7.823  66.757  1.00  0.00    -0.318 C  
HETATM    2  C   UNL     1      -9.358   7.372  67.743  1.00  0.00    -0.144 C  
HETATM    3  C   UNL     2      -9.194  10.860  65.627  1.00  0.00    -0.203 C  
HETATM    4  O   UNL     2      -8.321   9.993  66.333  1.00  0.00    -0.123 OA 
ENDROOT
BRANCH   2   5
HETATM    5  C   UNL     1      -9.639   7.618  69.264  1.00  0.00    -0.159 C  
HETATM    6  O   UNL     1      -7.378   8.348  69.925  1.00  0.00    -0.058 OA 
HETATM    7  C   UNL     1     -10.537   6.433  69.656  1.00  0.00    -0.254 C  
HETATM    8  C   UNL     1      -8.302   7.540  70.044  1.00  0.00    -0.136 C  
HETATM    9  H   UNL     1      -7.494   6.639  71.700  1.00  0.00     0.000 HD 
HETATM   10  N   UNL     1      -9.881   5.289  70.017  1.00  0.00    -0.197 N  
HETATM   11  O   UNL     1     -11.760   6.433  69.582  1.00  0.00    -0.389 OA 
HETATM   12  O   UNL     1      -8.705   4.467  71.751  1.00  0.00    -0.113 OA 
HETATM   13  N   UNL     1      -8.180   6.522  70.955  1.00  0.00    -0.120 N  
HETATM   14  C   UNL     1      -8.900   5.373  70.944  1.00  0.00    -0.138 C  
HETATM   15  H   UNL     1     -10.125   4.392  69.596  1.00  0.00     0.000 HD 
BRANCH   5  16
HETATM   16  C   UNL     1     -10.336   8.976  69.494  1.00  0.00    -0.211 A  
HETATM   17  C   UNL     1     -11.608  10.869  68.629  1.00  0.00    -0.373 A  
HETATM   18  C   UNL     1     -10.739   9.794  68.423  1.00  0.00    -0.262 A  
HETATM   19  C   UNL     1     -10.694   9.384  70.791  1.00  0.00    -0.373 A  
HETATM   20  C   UNL     1     -12.059  11.166  69.910  1.00  0.00    -0.418 A  
HETATM   21  C   UNL     1     -11.576  10.445  70.995  1.00  0.00    -0.384 A  
ENDBRANCH   5  16
ENDBRANCH   2   5
BRANCH   4  22
HETATM   22  C   UNL     2      -7.505  10.568  67.256  1.00  0.00    -0.095 A  
HETATM   23  C   UNL     2      -6.345  10.033  67.779  1.00  0.00    -0.058 A  
HETATM   24  C   UNL     2      -7.210  12.607  68.611  1.00  0.00    -0.108 A  
HETATM   25  C   UNL     2      -6.785  14.517  70.035  1.00  0.00    -0.110 A  
HETATM   26  C   UNL     2      -5.621  10.775  68.715  1.00  0.00    -0.040 A  
HETATM   27  C   UNL     2      -5.664  13.852  70.500  1.00  0.00    -0.161 A  
HETATM   28  C   UNL     2      -7.878  11.858  67.617  1.00  0.00    -0.142 A  
HETATM   29  C   UNL     2      -7.610  13.902  69.079  1.00  0.00    -0.002 A  
HETATM   30  C   UNL     2      -6.044  12.022  69.166  1.00  0.00    -0.080 A  
HETATM   31  N   UNL     2      -5.294  12.625  70.093  1.00  0.00    -0.100 NA 
BRANCH  29  32
HETATM   32  C   UNL     2      -8.819  14.672  68.510  1.00  0.00    -0.182 C  
HETATM   33  H   UNL     2     -10.798  14.572  68.596  1.00  0.00     0.000 HD 
HETATM   34  O   UNL     2     -10.053  14.098  68.946  1.00  0.00    -0.220 OA 
BRANCH  32  35
HETATM   35  C   UNL     2      -8.898  16.211  68.826  1.00  0.00    -0.233 C  
HETATM   36  C   UNL     2     -10.566  18.006  68.206  1.00  0.00    -0.299 C  
HETATM   37  C   UNL     2      -9.503  19.003  68.701  1.00  0.00    -0.457 C  
HETATM   38  C   UNL     2      -8.100  18.454  68.399  1.00  0.00    -0.308 C  
HETATM   39  C   UNL     2     -10.359  16.702  68.999  1.00  0.00    -0.317 C  
HETATM   40  N   UNL     2      -8.163  17.081  67.844  1.00  0.00    -0.196 NA 
HETATM   41  C   UNL     2      -8.875  17.181  66.541  1.00  0.00    -0.262 C  
HETATM   42  C   UNL     2     -10.337  17.671  66.710  1.00  0.00    -0.331 C  
BRANCH  42  43
HETATM   43  C   UNL     2     -10.636  18.845  65.807  1.00  0.00    -0.358 C  
HETATM   44  C   UNL     2     -10.240  20.103  66.042  1.00  0.00    -0.497 C  
ENDBRANCH  42  43
ENDBRANCH  32  35
ENDBRANCH  29  32
ENDBRANCH   4  22
TORSDOF 6
ENDMDL
MODEL       94
REMARK 921   NORMALIZED FREE ENERGY PREDICTED BY IDOCK:   -4.55 KCAL/MOL
REMARK 922        TOTAL FREE ENERGY PREDICTED BY IDOCK:   -9.23 KCAL/MOL
REMARK 923 INTER-LIGAND FREE ENERGY PREDICTED BY IDOCK:   -6.92 KCAL/MOL
REMARK 924 INTRA-LIGAND FREE ENERGY PREDICTED BY IDOCK:   -2.31 KCAL/MOL
REMARK 927      BINDING AFFINITY PREDICTED BY RF-SCORE:    0.00 PKD
ROOT
HETATM    1  C   UNL     1     -10.809  11.352  65.332  1.00  0.00    -0.292 C  
HETATM    2  C   UNL     1     -10.665  10.956  66.800  1.00  0.00    -0.309 C  
HETATM    3  C   UNL     2      -8.578   9.218  63.752  1.00  0.00    -0.192 C  
HETATM    4  O   UNL     2      -8.945   8.940  65.093  1.00  0.00    -0.197 OA 
ENDROOT
BRANCH   2   5
HETATM    5  C   UNL     1      -9.754  11.863  67.696  1.00  0.00    -0.186 C  
HETATM    6  O   UNL     1      -7.760  11.897  66.247  1.00  0.00     0.105 OA 
HETATM    7  C   UNL     1     -10.033  11.350  69.119  1.00  0.00     0.019 C  
HETATM    8  C   UNL     1      -8.271  11.606  67.331  1.00  0.00    -0.153 C  
HETATM    9  H   UNL     1      -6.474  11.197  68.232  1.00  0.00     0.000 HD 
HETATM   10  N   UNL     1      -9.277  10.285  69.522  1.00  0.00    -0.327 N  
HETATM   11  O   UNL     1     -10.921  11.775  69.849  1.00  0.00    -0.019 OA 
HETATM   12  O   UNL     1      -7.176   9.836  70.192  1.00  0.00    -0.109 OA 
HETATM   13  N   UNL     1      -7.481  11.061  68.311  1.00  0.00    -0.087 N  
HETATM   14  C   UNL     1      -7.934  10.356  69.377  1.00  0.00    -0.157 C  
HETATM   15  H   UNL     1      -9.715   9.455  69.923  1.00  0.00     0.000 HD 
BRANCH   5  16
HETATM   16  C   UNL     1     -10.115  13.355  67.535  1.00  0.00    -0.227 A  
HETATM   17  C   UNL     1      -9.421  15.677  67.269  1.00  0.00    -0.221 A  
HETATM   18  C   UNL     1      -9.155  14.371  67.688  1.00  0.00    -0.194 A  
HETATM   19  C   UNL     1     -11.401  13.736  67.113  1.00  0.00    -0.344 A  
HETATM   20  C   UNL     1     -10.660  15.998  66.724  1.00  0.00    -0.297 A  
HETATM   21  C   UNL     1     -11.661  15.035  66.678  1.00  0.00    -0.201 A  
ENDBRANCH   5  16
ENDBRANCH   2   5
BRANCH   4  22
HETATM   22  C   UNL     2      -7.946   8.559  65.934  1.00  0.00    -0.105 A  
HETATM   23  C   UNL     2      -6.602   8.840  65.798  1.00  0.00    -0.060 A  
HETATM   24  C   UNL     2      -7.512   7.349  68.038  1.00  0.00    -0.105 A  
HETATM   25  C   UNL     2      -6.902   6.171  70.061  1.00  0.00    -0.057 A  
HETATM   26  C   UNL     2      -5.714   8.376  66.772  1.00  0.00    -0.044 A  
HETATM   27  C   UNL     2      -5.584   6.493  69.787  1.00  0.00    -0.014 A  
HETATM   28  C   UNL     2      -8.388   7.893  67.072  1.00  0.00    -0.117 A  
HETATM   29  C   UNL     2      -7.914   6.579  69.178  1.00  0.00    -0.111 A  
HETATM   30  C   UNL     2      -6.131   7.613  67.858  1.00  0.00    -0.044 A  
HETATM   31  N   UNL     2      -5.189   7.188  68.706  1.00  0.00    -0.016 NA 
BRANCH  29  32
HETATM   32  C   UNL     2      -9.388   6.280  69.521  1.00  0.00    -0.142 C  
HETATM   33  H   UNL     2     -10.644   4.750  69.401  1.00  0.00     0.000 HD 
HETATM   34  O   UNL     2      -9.736   4.934  69.190  1.00  0.00    -0.152 OA 
BRANCH  32  35
HETATM   35  C   UNL     2      -9.835   6.510  71.011  1.00  0.00    -0.179 C  
HETATM   36  C   UNL     2     -11.982   6.024  72.253  1.00  0.00    -0.259 C  
HETATM   37  C   UNL     2     -11.406   6.918  73.365  1.00  0.00     0.179 C  
HETATM   38  C   UNL     2     -10.558   8.038  72.742  1.00  0.00    -0.351 C  
HETATM   39  C   UNL     2     -10.783   5.394  71.521  1.00  0.00    -0.262 C  
HETATM   40  N   UNL     2     -10.429   7.867  71.275  1.00  0.00    -0.202 NA 
HETATM   41  C   UNL     2     -11.798   7.998  70.709  1.00  0.00    -0.162 C  
HETATM   42  C   UNL     2     -12.750   6.882  71.215  1.00  0.00    -0.368 C  
BRANCH  42  43
HETATM   43  C   UNL     2     -14.028   7.458  71.780  1.00  0.00    -0.469 C  
HETATM   44  C   UNL     2     -14.231   8.760  72.025  1.00  0.00    -0.493 C  
ENDBRANCH  42  43
ENDBRANCH  32  35
ENDBRANCH  29  32
ENDBRANCH   4  22
TORSDOF 6
ENDMDL
MODEL       95
REMARK 921   NORMALIZED FREE ENERGY PREDICTED BY IDOCK:   -4.55 KCAL/MOL
REMARK 922        TOTAL FREE ENERGY PREDICTED BY IDOCK:   -9.22 KCAL/MOL
REMARK 923 INTER-LIGAND FREE ENERGY PREDICTED BY IDOCK:   -9.14 KCAL/MOL
REMARK 924 INTRA-LIGAND FREE ENERGY PREDICTED BY IDOCK:   -0.09 KCAL/MOL
REMARK 927      BINDING AFFINITY PREDICTED BY RF-SCORE:    0.00 PKD
ROOT
HETATM    1  C   UNL     1     -11.565  16.288  68.075  1.00  0.00    -0.012 C  
HETATM    2  C   UNL     1     -10.140  16.805  67.894  1.00  0.00    -0.284 C  
HETATM    3  C   UNL     2     -11.060  12.952  68.881  1.00  0.00    -0.255 C  
HETATM    4  O   UNL     2      -9.953  13.837  68.936  1.00  0.00    -0.160 OA 
ENDROOT
BRANCH   2   5
HETATM    5  C   UNL     1      -9.608  16.927  66.425  1.00  0.00    -0.305 C  
HETATM    6  O   UNL     1      -7.423  15.831  66.753  1.00  0.00    -0.204 OA 
HETATM    7  C   UNL     1     -10.042  18.342  66.006  1.00  0.00    -0.271 C  
HETATM    8  C   UNL     1      -8.061  16.840  66.440  1.00  0.00    -0.320 C  
HETATM    9  H   UNL     1      -6.419  17.827  65.706  1.00  0.00     0.000 HD 
HETATM   10  N   UNL     1      -9.182  19.349  66.345  1.00  0.00    -0.349 N  
HETATM   11  O   UNL     1     -11.116  18.612  65.482  1.00  0.00    -0.215 OA 
HETATM   12  O   UNL     1      -7.196  20.190  65.700  1.00  0.00    -0.308 OA 
HETATM   13  N   UNL     1      -7.378  17.956  66.029  1.00  0.00    -0.287 N  
HETATM   14  C   UNL     1      -7.876  19.217  66.020  1.00  0.00    -0.235 C  
HETATM   15  H   UNL     1      -9.517  20.181  66.831  1.00  0.00     0.000 HD 
BRANCH   5  16
HETATM   16  C   UNL     1     -10.216  15.839  65.515  1.00  0.00    -0.407 A  
HETATM   17  C   UNL     1     -10.546  13.485  64.972  1.00  0.00    -0.382 A  
HETATM   18  C   UNL     1      -9.804  14.495  65.589  1.00  0.00    -0.337 A  
HETATM   19  C   UNL     1     -11.290  16.142  64.660  1.00  0.00    -0.287 A  
HETATM   20  C   UNL     1     -11.689  13.800  64.245  1.00  0.00    -0.426 A  
HETATM   21  C   UNL     1     -12.041  15.131  64.061  1.00  0.00    -0.072 A  
ENDBRANCH   5  16
ENDBRANCH   2   5
BRANCH   4  22
HETATM   22  C   UNL     2      -8.778  13.379  68.426  1.00  0.00    -0.134 A  
HETATM   23  C   UNL     2      -7.538  13.971  68.551  1.00  0.00    -0.130 A  
HETATM   24  C   UNL     2      -7.795  11.522  67.136  1.00  0.00    -0.160 A  
HETATM   25  C   UNL     2      -6.672   9.801  65.858  1.00  0.00    -0.091 A  
HETATM   26  C   UNL     2      -6.431  13.348  67.970  1.00  0.00    -0.131 A  
HETATM   27  C   UNL     2      -5.498  10.516  66.030  1.00  0.00    -0.091 A  
HETATM   28  C   UNL     2      -8.879  12.144  67.795  1.00  0.00    -0.172 A  
HETATM   29  C   UNL     2      -7.871  10.296  66.397  1.00  0.00    -0.119 A  
HETATM   30  C   UNL     2      -6.537  12.167  67.241  1.00  0.00    -0.146 A  
HETATM   31  N   UNL     2      -5.418  11.682  66.695  1.00  0.00    -0.210 NA 
BRANCH  29  32
HETATM   32  C   UNL     2      -9.163   9.465  66.264  1.00  0.00    -0.180 C  
HETATM   33  H   UNL     2     -10.404   8.895  64.826  1.00  0.00     0.000 HD 
HETATM   34  O   UNL     2      -9.608   9.407  64.907  1.00  0.00    -0.191 OA 
BRANCH  32  35
HETATM   35  C   UNL     2      -9.116   7.983  66.790  1.00  0.00    -0.155 C  
HETATM   36  C   UNL     2     -10.707   6.609  68.194  1.00  0.00    -0.320 C  
HETATM   37  C   UNL     2      -9.546   5.608  68.323  1.00  0.00    -0.145 C  
HETATM   38  C   UNL     2      -8.209   6.366  68.343  1.00  0.00    -0.113 C  
HETATM   39  C   UNL     2     -10.524   7.334  66.847  1.00  0.00    -0.369 C  
HETATM   40  N   UNL     2      -8.405   7.815  68.104  1.00  0.00    -0.124 NA 
HETATM   41  C   UNL     2      -9.209   8.331  69.245  1.00  0.00    -0.151 C  
HETATM   42  C   UNL     2     -10.618   7.685  69.306  1.00  0.00    -0.206 C  
BRANCH  42  43
HETATM   43  C   UNL     2     -10.909   7.118  70.676  1.00  0.00    -0.268 C  
HETATM   44  C   UNL     2     -12.137   6.976  71.194  1.00  0.00    -0.412 C  
ENDBRANCH  42  43
ENDBRANCH  32  35
ENDBRANCH  29  32
ENDBRANCH   4  22
TORSDOF 6
ENDMDL
MODEL       96
REMARK 921   NORMALIZED FREE ENERGY PREDICTED BY IDOCK:   -4.49 KCAL/MOL
REMARK 922        TOTAL FREE ENERGY PREDICTED BY IDOCK:   -9.14 KCAL/MOL
REMARK 923 INTER-LIGAND FREE ENERGY PREDICTED BY IDOCK:   -7.91 KCAL/MOL
REMARK 924 INTRA-LIGAND FREE ENERGY PREDICTED BY IDOCK:   -1.23 KCAL/MOL
REMARK 927      BINDING AFFINITY PREDICTED BY RF-SCORE:    0.00 PKD
ROOT
HETATM    1  C   UNL     1      -7.886   7.961  72.595  1.00  0.00    -0.155 C  
HETATM    2  C   UNL     1      -9.374   8.299  72.536  1.00  0.00    -0.350 C  
HETATM    3  C   UNL     2      -6.561   9.938  70.072  1.00  0.00    -0.091 C  
HETATM    4  O   UNL     2      -7.880  10.207  70.521  1.00  0.00    -0.195 OA 
ENDROOT
BRANCH   2   5
HETATM    5  C   UNL     1     -10.304   7.290  71.780  1.00  0.00    -0.215 C  
HETATM    6  O   UNL     1     -10.727   5.737  73.648  1.00  0.00    -0.262 OA 
HETATM    7  C   UNL     1      -9.631   7.149  70.404  1.00  0.00    -0.169 C  
HETATM    8  C   UNL     1     -10.274   5.927  72.516  1.00  0.00    -0.187 C  
HETATM    9  H   UNL     1     -10.017   3.930  72.127  1.00  0.00     0.000 HD 
HETATM   10  N   UNL     1      -8.639   6.212  70.324  1.00  0.00    -0.138 N  
HETATM   11  O   UNL     1      -9.869   7.863  69.437  1.00  0.00    -0.175 OA 
HETATM   12  O   UNL     1      -8.403   3.976  70.235  1.00  0.00    -0.060 OA 
HETATM   13  N   UNL     1      -9.747   4.866  71.826  1.00  0.00    -0.159 N  
HETATM   14  C   UNL     1      -8.894   4.963  70.777  1.00  0.00    -0.126 C  
HETATM   15  H   UNL     1      -7.727   6.449  69.933  1.00  0.00     0.000 HD 
BRANCH   5  16
HETATM   16  C   UNL     1     -11.746   7.829  71.669  1.00  0.00    -0.316 A  
HETATM   17  C   UNL     1     -14.146   7.423  71.527  1.00  0.00    -0.541 A  
HETATM   18  C   UNL     1     -12.829   6.991  71.350  1.00  0.00    -0.407 A  
HETATM   19  C   UNL     1     -12.036   9.165  72.000  1.00  0.00    -0.421 A  
HETATM   20  C   UNL     1     -14.404   8.708  71.991  1.00  0.00    -0.512 A  
HETATM   21  C   UNL     1     -13.349   9.590  72.195  1.00  0.00    -0.545 A  
ENDBRANCH   5  16
ENDBRANCH   2   5
BRANCH   4  22
HETATM   22  C   UNL     2      -8.809  10.474  69.564  1.00  0.00    -0.022 A  
HETATM   23  C   UNL     2     -10.124  10.838  69.770  1.00  0.00     0.047 A  
HETATM   24  C   UNL     2      -9.119  10.621  67.123  1.00  0.00    -0.154 A  
HETATM   25  C   UNL     2      -9.609  10.778  64.758  1.00  0.00    -0.314 A  
HETATM   26  C   UNL     2     -10.936  11.088  68.662  1.00  0.00    -0.271 A  
HETATM   27  C   UNL     2     -10.910  11.100  65.105  1.00  0.00    -0.159 A  
HETATM   28  C   UNL     2      -8.309  10.442  68.267  1.00  0.00    -0.119 A  
HETATM   29  C   UNL     2      -8.669  10.509  65.766  1.00  0.00    -0.188 A  
HETATM   30  C   UNL     2     -10.477  10.953  67.355  1.00  0.00    -0.224 A  
HETATM   31  N   UNL     2     -11.353  11.179  66.371  1.00  0.00    -0.222 NA 
BRANCH  29  32
HETATM   32  C   UNL     2      -7.204  10.218  65.381  1.00  0.00    -0.143 C  
HETATM   33  H   UNL     2      -5.408  10.370  66.209  1.00  0.00     0.000 HD 
HETATM   34  O   UNL     2      -6.310  10.549  66.446  1.00  0.00    -0.082 OA 
BRANCH  32  35
HETATM   35  C   UNL     2      -6.860   8.748  64.940  1.00  0.00    -0.073 C  
HETATM   36  C   UNL     2      -8.261   6.659  64.687  1.00  0.00    -0.034 C  
HETATM   37  C   UNL     2      -6.920   5.911  64.589  1.00  0.00    -0.052 C  
HETATM   38  C   UNL     2      -5.874   6.604  65.476  1.00  0.00    -0.030 C  
HETATM   39  C   UNL     2      -8.018   8.082  64.151  1.00  0.00    -0.137 C  
HETATM   40  N   UNL     2      -6.408   7.856  66.064  1.00  0.00    -0.045 NA 
HETATM   41  C   UNL     2      -7.534   7.463  66.954  1.00  0.00    -0.097 C  
HETATM   42  C   UNL     2      -8.694   6.798  66.168  1.00  0.00    -0.156 C  
BRANCH  42  43
HETATM   43  C   UNL     2      -9.087   5.472  66.777  1.00  0.00    -0.118 C  
HETATM   44  C   UNL     2     -10.201   4.795  66.468  1.00  0.00    -0.294 C  
ENDBRANCH  42  43
ENDBRANCH  32  35
ENDBRANCH  29  32
ENDBRANCH   4  22
TORSDOF 6
ENDMDL
MODEL       97
REMARK 921   NORMALIZED FREE ENERGY PREDICTED BY IDOCK:   -4.48 KCAL/MOL
REMARK 922        TOTAL FREE ENERGY PREDICTED BY IDOCK:   -9.13 KCAL/MOL
REMARK 923 INTER-LIGAND FREE ENERGY PREDICTED BY IDOCK:   -9.48 KCAL/MOL
REMARK 924 INTRA-LIGAND FREE ENERGY PREDICTED BY IDOCK:    0.35 KCAL/MOL
REMARK 927      BINDING AFFINITY PREDICTED BY RF-SCORE:    0.00 PKD
ROOT
HETATM    1  C   UNL     1      -8.141   8.099  71.592  1.00  0.00    -0.150 C  
HETATM    2  C   UNL     1      -9.402   8.958  71.541  1.00  0.00    -0.335 C  
HETATM    3  C   UNL     2      -6.239   9.393  68.996  1.00  0.00    -0.042 C  
HETATM    4  O   UNL     2      -7.357  10.137  69.453  1.00  0.00    -0.080 OA 
ENDROOT
BRANCH   2   5
HETATM    5  C   UNL     1     -10.653   8.344  70.827  1.00  0.00    -0.240 C  
HETATM    6  O   UNL     1     -11.419  10.373  69.654  1.00  0.00    -0.246 OA 
HETATM    7  C   UNL     1     -11.269   7.436  71.906  1.00  0.00    -0.247 C  
HETATM    8  C   UNL     1     -11.644   9.482  70.477  1.00  0.00    -0.254 C  
HETATM    9  H   UNL     1     -13.633   9.952  70.657  1.00  0.00     0.000 HD 
HETATM   10  N   UNL     1     -12.130   8.049  72.772  1.00  0.00    -0.615 N  
HETATM   11  O   UNL     1     -10.973   6.259  72.075  1.00  0.00    -0.234 OA 
HETATM   12  O   UNL     1     -14.230   8.857  72.809  1.00  0.00    -0.557 OA 
HETATM   13  N   UNL     1     -12.865   9.449  71.101  1.00  0.00    -0.287 N  
HETATM   14  C   UNL     1     -13.131   8.801  72.262  1.00  0.00    -0.409 C  
HETATM   15  H   UNL     1     -12.021   7.942  73.781  1.00  0.00     0.000 HD 
BRANCH   5  16
HETATM   16  C   UNL     1     -10.248   7.553  69.564  1.00  0.00    -0.207 A  
HETATM   17  C   UNL     1     -10.690   6.883  67.262  1.00  0.00    -0.421 A  
HETATM   18  C   UNL     1     -11.144   7.347  68.499  1.00  0.00     0.129 A  
HETATM   19  C   UNL     1      -8.925   7.111  69.393  1.00  0.00    -0.136 A  
HETATM   20  C   UNL     1      -9.344   6.585  67.077  1.00  0.00    -0.155 A  
HETATM   21  C   UNL     1      -8.468   6.667  68.153  1.00  0.00    -0.116 A  
ENDBRANCH   5  16
ENDBRANCH   2   5
BRANCH   4  22
HETATM   22  C   UNL     2      -8.144  10.704  68.499  1.00  0.00    -0.125 A  
HETATM   23  C   UNL     2      -9.126  10.077  67.760  1.00  0.00    -0.137 A  
HETATM   24  C   UNL     2      -8.619  12.844  67.371  1.00  0.00    -0.195 A  
HETATM   25  C   UNL     2      -9.191  14.848  66.140  1.00  0.00    -0.268 A  
HETATM   26  C   UNL     2      -9.850  10.824  66.827  1.00  0.00    -0.233 A  
HETATM   27  C   UNL     2     -10.119  14.091  65.446  1.00  0.00    -0.319 A  
HETATM   28  C   UNL     2      -7.955  12.074  68.352  1.00  0.00    -0.152 A  
HETATM   29  C   UNL     2      -8.392  14.238  67.121  1.00  0.00    -0.202 A  
HETATM   30  C   UNL     2      -9.594  12.172  66.592  1.00  0.00    -0.220 A  
HETATM   31  N   UNL     2     -10.321  12.777  65.648  1.00  0.00    -0.276 NA 
BRANCH  29  32
HETATM   32  C   UNL     2      -7.408  15.096  67.941  1.00  0.00    -0.139 C  
HETATM   33  H   UNL     2      -5.696  16.053  67.649  1.00  0.00     0.000 HD 
HETATM   34  O   UNL     2      -6.302  15.525  67.144  1.00  0.00    -0.311 OA 
BRANCH  32  35
HETATM   35  C   UNL     2      -7.989  16.381  68.639  1.00  0.00    -0.220 C  
HETATM   36  C   UNL     2      -9.913  17.919  68.072  1.00  0.00    -0.333 C  
HETATM   37  C   UNL     2      -9.317  18.865  69.129  1.00  0.00    -0.150 C  
HETATM   38  C   UNL     2      -7.785  18.741  69.129  1.00  0.00    -0.109 C  
HETATM   39  C   UNL     2      -9.530  16.487  68.488  1.00  0.00    -0.235 C  
HETATM   40  N   UNL     2      -7.330  17.665  68.217  1.00  0.00    -0.225 NA 
HETATM   41  C   UNL     2      -7.727  18.073  66.843  1.00  0.00    -0.223 C  
HETATM   42  C   UNL     2      -9.267  18.180  66.688  1.00  0.00    -0.295 C  
BRANCH  42  43
HETATM   43  C   UNL     2      -9.675  19.514  66.107  1.00  0.00    -0.461 C  
HETATM   44  C   UNL     2     -10.923  20.001  66.126  1.00  0.00    -0.054 C  
ENDBRANCH  42  43
ENDBRANCH  32  35
ENDBRANCH  29  32
ENDBRANCH   4  22
TORSDOF 6
ENDMDL
MODEL       98
REMARK 921   NORMALIZED FREE ENERGY PREDICTED BY IDOCK:   -4.46 KCAL/MOL
REMARK 922        TOTAL FREE ENERGY PREDICTED BY IDOCK:   -9.10 KCAL/MOL
REMARK 923 INTER-LIGAND FREE ENERGY PREDICTED BY IDOCK:   -7.70 KCAL/MOL
REMARK 924 INTRA-LIGAND FREE ENERGY PREDICTED BY IDOCK:   -1.40 KCAL/MOL
REMARK 927      BINDING AFFINITY PREDICTED BY RF-SCORE:    0.00 PKD
ROOT
HETATM    1  C   UNL     1      -7.754  11.696  67.781  1.00  0.00    -0.126 C  
HETATM    2  C   UNL     1      -7.874  11.030  66.412  1.00  0.00    -0.150 C  
HETATM    3  C   UNL     2      -6.291   9.210  69.706  1.00  0.00    -0.039 C  
HETATM    4  O   UNL     2      -6.283   9.067  68.295  1.00  0.00    -0.053 OA 
ENDROOT
BRANCH   2   5
HETATM    5  C   UNL     1      -9.273  10.440  66.028  1.00  0.00    -0.200 C  
HETATM    6  O   UNL     1      -8.581   9.174  64.028  1.00  0.00    -0.193 OA 
HETATM    7  C   UNL     1     -10.234  11.617  66.268  1.00  0.00    -0.227 C  
HETATM    8  C   UNL     1      -9.269  10.070  64.523  1.00  0.00    -0.262 C  
HETATM    9  H   UNL     1     -10.397  10.338  62.831  1.00  0.00     0.000 HD 
HETATM   10  N   UNL     1     -10.374  12.489  65.225  1.00  0.00    -0.283 N  
HETATM   11  O   UNL     1     -10.791  11.852  67.334  1.00  0.00    -0.222 OA 
HETATM   12  O   UNL     1     -11.370  12.596  63.209  1.00  0.00    -0.460 OA 
HETATM   13  N   UNL     1     -10.129  10.769  63.715  1.00  0.00    -0.340 N  
HETATM   14  C   UNL     1     -10.652  11.987  64.000  1.00  0.00    -0.377 C  
HETATM   15  H   UNL     1     -10.271  13.494  65.366  1.00  0.00     0.000 HD 
BRANCH   5  16
HETATM   16  C   UNL     1      -9.625   9.215  66.899  1.00  0.00    -0.233 A  
HETATM   17  C   UNL     1     -10.293   8.276  69.048  1.00  0.00    -0.233 A  
HETATM   18  C   UNL     1      -9.708   9.302  68.301  1.00  0.00    -0.167 A  
HETATM   19  C   UNL     1      -9.988   7.995  66.302  1.00  0.00    -0.116 A  
HETATM   20  C   UNL     1     -10.773   7.135  68.414  1.00  0.00    -0.192 A  
HETATM   21  C   UNL     1     -10.589   6.980  67.045  1.00  0.00    -0.412 A  
ENDBRANCH   5  16
ENDBRANCH   2   5
BRANCH   4  22
HETATM   22  C   UNL     2      -6.568   7.831  67.804  1.00  0.00    -0.060 A  
HETATM   23  C   UNL     2      -6.571   7.450  66.478  1.00  0.00    -0.053 A  
HETATM   24  C   UNL     2      -7.173   5.542  68.493  1.00  0.00    -0.074 A  
HETATM   25  C   UNL     2      -7.802   3.258  68.988  1.00  0.00    -0.054 A  
HETATM   26  C   UNL     2      -6.877   6.125  66.156  1.00  0.00    -0.061 A  
HETATM   27  C   UNL     2      -7.802   3.020  67.624  1.00  0.00    -0.071 A  
HETATM   28  C   UNL     2      -6.793   6.871  68.785  1.00  0.00    -0.066 A  
HETATM   29  C   UNL     2      -7.502   4.543  69.468  1.00  0.00    -0.051 A  
HETATM   30  C   UNL     2      -7.212   5.182  67.123  1.00  0.00    -0.081 A  
HETATM   31  N   UNL     2      -7.526   3.954  66.698  1.00  0.00    -0.079 NA 
BRANCH  29  32
HETATM   32  C   UNL     2      -7.435   4.790  70.989  1.00  0.00    -0.068 C  
HETATM   33  H   UNL     2      -6.982   6.278  72.219  1.00  0.00     0.000 HD 
HETATM   34  O   UNL     2      -7.023   6.127  71.282  1.00  0.00    -0.068 OA 
BRANCH  32  35
HETATM   35  C   UNL     2      -8.749   4.528  71.814  1.00  0.00    -0.117 C  
HETATM   36  C   UNL     2     -11.029   5.620  71.800  1.00  0.00    -0.290 C  
HETATM   37  C   UNL     2     -11.275   4.854  73.112  1.00  0.00    -0.403 C  
HETATM   38  C   UNL     2      -9.960   4.736  73.897  1.00  0.00    -0.162 C  
HETATM   39  C   UNL     2     -10.030   4.785  70.977  1.00  0.00    -0.279 C  
HETATM   40  N   UNL     2      -8.816   5.270  73.120  1.00  0.00    -0.120 NA 
HETATM   41  C   UNL     2      -9.072   6.722  72.927  1.00  0.00    -0.127 C  
HETATM   42  C   UNL     2     -10.352   6.984  72.091  1.00  0.00    -0.214 C  
BRANCH  42  43
HETATM   43  C   UNL     2     -11.283   7.948  72.789  1.00  0.00    -0.466 C  
HETATM   44  C   UNL     2     -12.350   8.521  72.217  1.00  0.00    -0.450 C  
ENDBRANCH  42  43
ENDBRANCH  32  35
ENDBRANCH  29  32
ENDBRANCH   4  22
TORSDOF 6
ENDMDL
MODEL       99
REMARK 921   NORMALIZED FREE ENERGY PREDICTED BY IDOCK:   -4.45 KCAL/MOL
REMARK 922        TOTAL FREE ENERGY PREDICTED BY IDOCK:   -9.08 KCAL/MOL
REMARK 923 INTER-LIGAND FREE ENERGY PREDICTED BY IDOCK:   -7.37 KCAL/MOL
REMARK 924 INTRA-LIGAND FREE ENERGY PREDICTED BY IDOCK:   -1.72 KCAL/MOL
REMARK 927      BINDING AFFINITY PREDICTED BY RF-SCORE:    0.00 PKD
ROOT
HETATM    1  C   UNL     1      -7.375   8.360  70.886  1.00  0.00    -0.064 C  
HETATM    2  C   UNL     1      -8.644   9.209  70.929  1.00  0.00    -0.259 C  
HETATM    3  C   UNL     2      -5.696   9.650  68.139  1.00  0.00    -0.040 C  
HETATM    4  O   UNL     2      -6.780  10.388  68.678  1.00  0.00    -0.052 OA 
ENDROOT
BRANCH   2   5
HETATM    5  C   UNL     1      -9.943   8.579  70.320  1.00  0.00    -0.196 C  
HETATM    6  O   UNL     1      -9.012   7.894  68.142  1.00  0.00    -0.132 OA 
HETATM    7  C   UNL     1     -11.048   9.560  70.750  1.00  0.00    -0.323 C  
HETATM    8  C   UNL     1      -9.824   8.573  68.776  1.00  0.00    -0.173 C  
HETATM    9  H   UNL     1     -10.896   9.106  67.110  1.00  0.00     0.000 HD 
HETATM   10  N   UNL     1     -11.242  10.630  69.923  1.00  0.00    -0.288 N  
HETATM   11  O   UNL     1     -11.678   9.480  71.798  1.00  0.00    -0.383 OA 
HETATM   12  O   UNL     1     -12.149  11.097  67.916  1.00  0.00    -0.627 OA 
HETATM   13  N   UNL     1     -10.724   9.345  68.086  1.00  0.00    -0.209 N  
HETATM   14  C   UNL     1     -11.401  10.401  68.599  1.00  0.00    -0.216 C  
HETATM   15  H   UNL     1     -11.267  11.580  70.294  1.00  0.00     0.000 HD 
BRANCH   5  16
HETATM   16  C   UNL     1     -10.185   7.156  70.864  1.00  0.00    -0.207 A  
HETATM   17  C   UNL     1     -10.351   4.752  70.487  1.00  0.00    -0.187 A  
HETATM   18  C   UNL     1     -10.413   6.063  70.008  1.00  0.00    -0.313 A  
HETATM   19  C   UNL     1     -10.071   6.888  72.240  1.00  0.00    -0.194 A  
HETATM   20  C   UNL     1     -10.096   4.511  71.833  1.00  0.00    -0.258 A  
HETATM   21  C   UNL     1      -9.990   5.579  72.715  1.00  0.00    -0.194 A  
ENDBRANCH   5  16
ENDBRANCH   2   5
BRANCH   4  22
HETATM   22  C   UNL     2      -7.645  10.943  67.786  1.00  0.00    -0.095 A  
HETATM   23  C   UNL     2      -8.382  12.097  67.960  1.00  0.00    -0.167 A  
HETATM   24  C   UNL     2      -8.577  10.654  65.522  1.00  0.00    -0.191 A  
HETATM   25  C   UNL     2      -9.615  10.505  63.341  1.00  0.00    -0.376 A  
HETATM   26  C   UNL     2      -9.215  12.529  66.925  1.00  0.00    -0.211 A  
HETATM   27  C   UNL     2     -10.319  11.655  63.658  1.00  0.00    -0.419 A  
HETATM   28  C   UNL     2      -7.694  10.286  66.562  1.00  0.00    -0.113 A  
HETATM   29  C   UNL     2      -8.727   9.955  64.279  1.00  0.00    -0.229 A  
HETATM   30  C   UNL     2      -9.355  11.818  65.736  1.00  0.00    -0.185 A  
HETATM   31  N   UNL     2     -10.211  12.303  64.831  1.00  0.00    -0.281 NA 
BRANCH  29  32
HETATM   32  C   UNL     2      -7.892   8.715  63.898  1.00  0.00    -0.147 C  
HETATM   33  H   UNL     2      -6.039   8.311  63.319  1.00  0.00     0.000 HD 
HETATM   34  O   UNL     2      -6.552   9.075  63.554  1.00  0.00    -0.089 OA 
BRANCH  32  35
HETATM   35  C   UNL     2      -7.792   7.566  64.968  1.00  0.00    -0.127 C  
HETATM   36  C   UNL     2      -6.175   5.649  65.281  1.00  0.00    -0.030 C  
HETATM   37  C   UNL     2      -7.201   5.099  66.288  1.00  0.00    -0.077 C  
HETATM   38  C   UNL     2      -8.622   5.463  65.828  1.00  0.00    -0.139 C  
HETATM   39  C   UNL     2      -6.323   7.181  65.284  1.00  0.00    -0.037 C  
HETATM   40  N   UNL     2      -8.597   6.339  64.634  1.00  0.00     0.062 NA 
HETATM   41  C   UNL     2      -7.980   5.547  63.536  1.00  0.00    -0.104 C  
HETATM   42  C   UNL     2      -6.510   5.162  63.848  1.00  0.00    -0.029 C  
BRANCH  42  43
HETATM   43  C   UNL     2      -6.278   3.678  63.678  1.00  0.00    -0.018 C  
HETATM   44  C   UNL     2      -7.246   2.778  63.457  1.00  0.00    -0.048 C  
ENDBRANCH  42  43
ENDBRANCH  32  35
ENDBRANCH  29  32
ENDBRANCH   4  22
TORSDOF 6
ENDMDL
MODEL      100
REMARK 921   NORMALIZED FREE ENERGY PREDICTED BY IDOCK:   -4.38 KCAL/MOL
REMARK 922        TOTAL FREE ENERGY PREDICTED BY IDOCK:   -8.99 KCAL/MOL
REMARK 923 INTER-LIGAND FREE ENERGY PREDICTED BY IDOCK:   -7.26 KCAL/MOL
REMARK 924 INTRA-LIGAND FREE ENERGY PREDICTED BY IDOCK:   -1.73 KCAL/MOL
REMARK 927      BINDING AFFINITY PREDICTED BY RF-SCORE:    0.00 PKD
ROOT
HETATM    1  C   UNL     1      -8.150   8.162  72.143  1.00  0.00    -0.182 C  
HETATM    2  C   UNL     1      -9.248   8.114  71.084  1.00  0.00    -0.185 C  
HETATM    3  C   UNL     2      -5.324   8.892  70.268  1.00  0.00    -0.027 C  
HETATM    4  O   UNL     2      -6.598   9.066  69.670  1.00  0.00    -0.041 OA 
ENDROOT
BRANCH   2   5
HETATM    5  C   UNL     1      -9.687   6.699  70.576  1.00  0.00    -0.187 C  
HETATM    6  O   UNL     1      -7.457   5.838  69.968  1.00  0.00    -0.071 OA 
HETATM    7  C   UNL     1     -10.974   6.988  69.784  1.00  0.00    -0.250 C  
HETATM    8  C   UNL     1      -8.600   6.146  69.620  1.00  0.00    -0.128 C  
HETATM    9  H   UNL     1      -8.420   5.293  67.764  1.00  0.00     0.000 HD 
HETATM   10  N   UNL     1     -10.795   7.343  68.477  1.00  0.00    -0.417 N  
HETATM   11  O   UNL     1     -12.099   7.000  70.268  1.00  0.00    -0.221 OA 
HETATM   12  O   UNL     1     -10.260   6.397  66.506  1.00  0.00    -0.158 OA 
HETATM   13  N   UNL     1      -8.971   5.951  68.314  1.00  0.00    -0.113 N  
HETATM   14  C   UNL     1     -10.012   6.563  67.698  1.00  0.00    -0.130 C  
HETATM   15  H   UNL     1     -11.243   8.177  68.096  1.00  0.00     0.000 HD 
BRANCH   5  16
HETATM   16  C   UNL     1      -9.934   5.732  71.753  1.00  0.00    -0.209 A  
HETATM   17  C   UNL     1      -9.569   3.570  72.821  1.00  0.00    -0.182 A  
HETATM   18  C   UNL     1      -9.604   4.366  71.674  1.00  0.00    -0.227 A  
HETATM   19  C   UNL     1     -10.394   6.215  72.990  1.00  0.00    -0.223 A  
HETATM   20  C   UNL     1      -9.895   4.112  74.059  1.00  0.00    -0.158 A  
HETATM   21  C   UNL     1     -10.341   5.426  74.138  1.00  0.00    -0.307 A  
ENDBRANCH   5  16
ENDBRANCH   2   5
BRANCH   4  22
HETATM   22  C   UNL     2      -6.733   8.638  68.386  1.00  0.00    -0.064 A  
HETATM   23  C   UNL     2      -5.999   7.648  67.765  1.00  0.00    -0.040 A  
HETATM   24  C   UNL     2      -8.056   8.985  66.334  1.00  0.00    -0.110 A  
HETATM   25  C   UNL     2      -9.229   9.217  64.231  1.00  0.00     0.024 A  
HETATM   26  C   UNL     2      -6.286   7.328  66.435  1.00  0.00    -0.040 A  
HETATM   27  C   UNL     2      -8.399   8.233  63.721  1.00  0.00    -0.021 A  
HETATM   28  C   UNL     2      -7.785   9.234  67.698  1.00  0.00    -0.092 A  
HETATM   29  C   UNL     2      -9.071   9.640  65.560  1.00  0.00    -0.252 A  
HETATM   30  C   UNL     2      -7.263   7.994  65.702  1.00  0.00    -0.071 A  
HETATM   31  N   UNL     2      -7.424   7.633  64.426  1.00  0.00    -0.092 NA 
BRANCH  29  32
HETATM   32  C   UNL     2     -10.040  10.686  66.146  1.00  0.00    -0.249 C  
HETATM   33  H   UNL     2     -11.364  10.801  67.619  1.00  0.00     0.000 HD 
HETATM   34  O   UNL     2     -10.767  10.157  67.258  1.00  0.00    -0.261 OA 
BRANCH  32  35
HETATM   35  C   UNL     2      -9.417  12.050  66.620  1.00  0.00    -0.217 C  
HETATM   36  C   UNL     2      -9.753  13.465  68.687  1.00  0.00    -0.084 C  
HETATM   37  C   UNL     2      -8.997  14.562  67.919  1.00  0.00    -0.187 C  
HETATM   38  C   UNL     2      -9.317  14.459  66.419  1.00  0.00    -0.258 C  
HETATM   39  C   UNL     2      -9.238  12.114  68.159  1.00  0.00    -0.197 C  
HETATM   40  N   UNL     2     -10.149  13.268  66.125  1.00  0.00    -0.288 NA 
HETATM   41  C   UNL     2     -11.444  13.467  66.828  1.00  0.00    -0.346 C  
HETATM   42  C   UNL     2     -11.269  13.530  68.368  1.00  0.00    -0.309 C  
BRANCH  42  43
HETATM   43  C   UNL     2     -11.925  14.760  68.951  1.00  0.00    -0.298 C  
HETATM   44  C   UNL     2     -12.200  14.931  70.251  1.00  0.00    -0.389 C  
ENDBRANCH  42  43
ENDBRANCH  32  35
ENDBRANCH  29  32
ENDBRANCH   4  22
TORSDOF 6
ENDMDL
MODEL      101
REMARK 921   NORMALIZED FREE ENERGY PREDICTED BY IDOCK:   -4.32 KCAL/MOL
REMARK 922        TOTAL FREE ENERGY PREDICTED BY IDOCK:   -8.92 KCAL/MOL
REMARK 923 INTER-LIGAND FREE ENERGY PREDICTED BY IDOCK:   -8.66 KCAL/MOL
REMARK 924 INTRA-LIGAND FREE ENERGY PREDICTED BY IDOCK:   -0.26 KCAL/MOL
REMARK 927      BINDING AFFINITY PREDICTED BY RF-SCORE:    0.00 PKD
ROOT
HETATM    1  C   UNL     1      -5.758   7.166  68.175  1.00  0.00    -0.022 C  
HETATM    2  C   UNL     1      -6.632   6.213  68.987  1.00  0.00    -0.051 C  
HETATM    3  C   UNL     2      -6.595  10.264  69.491  1.00  0.00    -0.066 C  
HETATM    4  O   UNL     2      -6.982   9.099  70.201  1.00  0.00    -0.044 OA 
ENDROOT
BRANCH   2   5
HETATM    5  C   UNL     1      -7.956   5.714  68.315  1.00  0.00    -0.100 C  
HETATM    6  O   UNL     1      -7.056   5.253  66.066  1.00  0.00    -0.065 OA 
HETATM    7  C   UNL     1      -9.020   6.681  68.863  1.00  0.00    -0.130 C  
HETATM    8  C   UNL     1      -7.839   5.885  66.779  1.00  0.00    -0.101 C  
HETATM    9  H   UNL     1      -8.889   6.656  65.194  1.00  0.00     0.000 HD 
HETATM   10  N   UNL     1      -9.170   7.849  68.170  1.00  0.00    -0.136 N  
HETATM   11  O   UNL     1      -9.652   6.504  69.898  1.00  0.00    -0.154 OA 
HETATM   12  O   UNL     1     -10.057   8.587  66.238  1.00  0.00    -0.258 OA 
HETATM   13  N   UNL     1      -8.706   6.770  66.191  1.00  0.00    -0.145 N  
HETATM   14  C   UNL     1      -9.339   7.785  66.829  1.00  0.00    -0.180 C  
HETATM   15  H   UNL     1      -9.155   8.748  68.651  1.00  0.00     0.000 HD 
BRANCH   5  16
HETATM   16  C   UNL     1      -8.257   4.247  68.688  1.00  0.00    -0.087 A  
HETATM   17  C   UNL     1      -8.126   2.405  70.280  1.00  0.00    -0.056 A  
HETATM   18  C   UNL     1      -7.644   3.620  69.789  1.00  0.00    -0.051 A  
HETATM   19  C   UNL     1      -9.248   3.524  68.000  1.00  0.00    -0.228 A  
HETATM   20  C   UNL     1      -9.202   1.777  69.662  1.00  0.00    -0.166 A  
HETATM   21  C   UNL     1      -9.741   2.320  68.502  1.00  0.00     0.046 A  
ENDBRANCH   5  16
ENDBRANCH   2   5
BRANCH   4  22
HETATM   22  C   UNL     2      -8.239   9.091  70.723  1.00  0.00    -0.181 A  
HETATM   23  C   UNL     2      -8.649   8.453  71.876  1.00  0.00    -0.248 A  
HETATM   24  C   UNL     2     -10.516   9.966  70.360  1.00  0.00    -0.347 A  
HETATM   25  C   UNL     2     -12.808  10.707  70.140  1.00  0.00    -0.146 A  
HETATM   26  C   UNL     2      -9.985   8.565  72.270  1.00  0.00    -0.385 A  
HETATM   27  C   UNL     2     -13.092   9.994  71.293  1.00  0.00    -0.402 A  
HETATM   28  C   UNL     2      -9.144   9.888  70.030  1.00  0.00    -0.217 A  
HETATM   29  C   UNL     2     -11.502  10.701  69.625  1.00  0.00    -0.361 A  
HETATM   30  C   UNL     2     -10.926   9.269  71.524  1.00  0.00    -0.375 A  
HETATM   31  N   UNL     2     -12.184   9.276  71.976  1.00  0.00    -0.363 NA 
BRANCH  29  32
HETATM   32  C   UNL     2     -11.172  11.551  68.381  1.00  0.00    -0.255 C  
HETATM   33  H   UNL     2     -11.697  11.627  66.470  1.00  0.00     0.000 HD 
HETATM   34  O   UNL     2     -11.901  11.103  67.236  1.00  0.00    -0.525 OA 
BRANCH  32  35
HETATM   35  C   UNL     2     -11.411  13.102  68.493  1.00  0.00    -0.303 C  
HETATM   36  C   UNL     2     -11.285  14.983  66.809  1.00  0.00    -0.322 C  
HETATM   37  C   UNL     2     -11.342  15.922  68.027  1.00  0.00    -0.284 C  
HETATM   38  C   UNL     2     -10.621  15.271  69.217  1.00  0.00    -0.256 C  
HETATM   39  C   UNL     2     -12.034  13.697  67.202  1.00  0.00    -0.434 C  
HETATM   40  N   UNL     2     -10.195  13.887  68.900  1.00  0.00    -0.179 NA 
HETATM   41  C   UNL     2      -9.200  13.989  67.799  1.00  0.00    -0.195 C  
HETATM   42  C   UNL     2      -9.819  14.582  66.506  1.00  0.00    -0.297 C  
BRANCH  42  43
HETATM   43  C   UNL     2      -9.003  15.743  65.983  1.00  0.00    -0.322 C  
HETATM   44  C   UNL     2      -7.881  16.201  66.554  1.00  0.00    -0.263 C  
ENDBRANCH  42  43
ENDBRANCH  32  35
ENDBRANCH  29  32
ENDBRANCH   4  22
TORSDOF 6
ENDMDL
MODEL      102
REMARK 921   NORMALIZED FREE ENERGY PREDICTED BY IDOCK:   -4.31 KCAL/MOL
REMARK 922        TOTAL FREE ENERGY PREDICTED BY IDOCK:   -8.90 KCAL/MOL
REMARK 923 INTER-LIGAND FREE ENERGY PREDICTED BY IDOCK:   -8.09 KCAL/MOL
REMARK 924 INTRA-LIGAND FREE ENERGY PREDICTED BY IDOCK:   -0.81 KCAL/MOL
REMARK 927      BINDING AFFINITY PREDICTED BY RF-SCORE:    0.00 PKD
ROOT
HETATM    1  C   UNL     1      -5.984   5.946  69.596  1.00  0.00    -0.025 C  
HETATM    2  C   UNL     1      -7.255   5.214  70.020  1.00  0.00    -0.059 C  
HETATM    3  C   UNL     2      -6.386   9.065  71.060  1.00  0.00    -0.061 C  
HETATM    4  O   UNL     2      -7.228   8.005  71.483  1.00  0.00    -0.062 OA 
ENDROOT
BRANCH   2   5
HETATM    5  C   UNL     1      -8.415   5.134  68.969  1.00  0.00    -0.090 C  
HETATM    6  O   UNL     1      -8.333   7.469  68.179  1.00  0.00    -0.123 OA 
HETATM    7  C   UNL     1      -9.481   4.283  69.681  1.00  0.00    -0.188 C  
HETATM    8  C   UNL     1      -8.969   6.559  68.719  1.00  0.00    -0.124 C  
HETATM    9  H   UNL     1     -10.754   7.566  68.642  1.00  0.00     0.000 HD 
HETATM   10  N   UNL     1     -10.338   4.969  70.496  1.00  0.00    -0.245 N  
HETATM   11  O   UNL     1      -9.545   3.061  69.625  1.00  0.00    -0.134 OA 
HETATM   12  O   UNL     1     -12.107   6.351  70.339  1.00  0.00    -0.305 OA 
HETATM   13  N   UNL     1     -10.269   6.788  69.089  1.00  0.00    -0.174 N  
HETATM   14  C   UNL     1     -10.961   6.062  70.001  1.00  0.00    -0.380 C  
HETATM   15  H   UNL     1     -10.503   4.664  71.455  1.00  0.00     0.000 HD 
BRANCH   5  16
HETATM   16  C   UNL     1      -7.937   4.485  67.653  1.00  0.00    -0.096 A  
HETATM   17  C   UNL     1      -7.951   4.400  65.216  1.00  0.00    -0.101 A  
HETATM   18  C   UNL     1      -8.557   4.764  66.421  1.00  0.00    -0.113 A  
HETATM   19  C   UNL     1      -6.786   3.679  67.631  1.00  0.00    -0.042 A  
HETATM   20  C   UNL     1      -6.736   3.722  65.221  1.00  0.00    -0.045 A  
HETATM   21  C   UNL     1      -6.171   3.332  66.429  1.00  0.00    -0.028 A  
ENDBRANCH   5  16
ENDBRANCH   2   5
BRANCH   4  22
HETATM   22  C   UNL     2      -8.543   8.302  71.659  1.00  0.00    -0.155 A  
HETATM   23  C   UNL     2      -9.392   7.760  72.603  1.00  0.00    -0.246 A  
HETATM   24  C   UNL     2     -10.360   9.733  70.803  1.00  0.00    -0.298 A  
HETATM   25  C   UNL     2     -12.261  11.035  70.068  1.00  0.00    -0.418 A  
HETATM   26  C   UNL     2     -10.719   8.196  72.647  1.00  0.00    -0.421 A  
HETATM   27  C   UNL     2     -13.010  10.389  71.037  1.00  0.00    -0.399 A  
HETATM   28  C   UNL     2      -9.009   9.319  70.833  1.00  0.00    -0.273 A  
HETATM   29  C   UNL     2     -10.905  10.712  69.909  1.00  0.00    -0.301 A  
HETATM   30  C   UNL     2     -11.225   9.134  71.752  1.00  0.00    -0.381 A  
HETATM   31  N   UNL     2     -12.520   9.447  71.861  1.00  0.00    -0.381 NA 
BRANCH  29  32
HETATM   32  C   UNL     2     -10.056  11.482  68.877  1.00  0.00    -0.127 C  
HETATM   33  H   UNL     2      -8.155  11.585  68.321  1.00  0.00     0.000 HD 
HETATM   34  O   UNL     2      -8.677  11.111  68.956  1.00  0.00    -0.124 OA 
BRANCH  32  35
HETATM   35  C   UNL     2     -10.474  11.349  67.366  1.00  0.00    -0.205 C  
HETATM   36  C   UNL     2      -9.791   9.753  65.529  1.00  0.00    -0.378 C  
HETATM   37  C   UNL     2     -10.488  10.737  64.573  1.00  0.00    -0.351 C  
HETATM   38  C   UNL     2     -10.321  12.172  65.097  1.00  0.00    -0.279 C  
HETATM   39  C   UNL     2     -10.503   9.873  66.890  1.00  0.00    -0.284 C  
HETATM   40  N   UNL     2      -9.660  12.192  66.423  1.00  0.00    -0.230 NA 
HETATM   41  C   UNL     2      -8.291  11.645  66.225  1.00  0.00    -0.027 C  
HETATM   42  C   UNL     2      -8.314  10.169  65.749  1.00  0.00    -0.147 C  
BRANCH  42  43
HETATM   43  C   UNL     2      -7.473   9.972  64.509  1.00  0.00    -0.142 C  
HETATM   44  C   UNL     2      -6.142  10.124  64.463  1.00  0.00    -0.133 C  
ENDBRANCH  42  43
ENDBRANCH  32  35
ENDBRANCH  29  32
ENDBRANCH   4  22
TORSDOF 6
ENDMDL
MODEL      103
REMARK 921   NORMALIZED FREE ENERGY PREDICTED BY IDOCK:   -4.31 KCAL/MOL
REMARK 922        TOTAL FREE ENERGY PREDICTED BY IDOCK:   -8.90 KCAL/MOL
REMARK 923 INTER-LIGAND FREE ENERGY PREDICTED BY IDOCK:   -7.69 KCAL/MOL
REMARK 924 INTRA-LIGAND FREE ENERGY PREDICTED BY IDOCK:   -1.21 KCAL/MOL
REMARK 927      BINDING AFFINITY PREDICTED BY RF-SCORE:    0.00 PKD
ROOT
HETATM    1  C   UNL     1     -11.972  11.604  68.908  1.00  0.00    -0.355 C  
HETATM    2  C   UNL     1     -10.581  12.152  68.599  1.00  0.00    -0.248 C  
HETATM    3  C   UNL     2     -11.267   8.756  70.760  1.00  0.00    -0.266 C  
HETATM    4  O   UNL     2     -10.231   9.701  70.548  1.00  0.00    -0.264 OA 
ENDROOT
BRANCH   2   5
HETATM    5  C   UNL     1      -9.993  11.839  67.181  1.00  0.00    -0.221 C  
HETATM    6  O   UNL     1     -10.448   9.416  67.138  1.00  0.00    -0.249 OA 
HETATM    7  C   UNL     1      -8.710  12.687  67.134  1.00  0.00    -0.201 C  
HETATM    8  C   UNL     1      -9.626  10.336  67.106  1.00  0.00    -0.168 C  
HETATM    9  H   UNL     1      -8.069   9.118  66.560  1.00  0.00     0.000 HD 
HETATM   10  N   UNL     1      -7.595  12.103  67.668  1.00  0.00    -0.129 N  
HETATM   11  O   UNL     1      -8.656  13.846  66.738  1.00  0.00    -0.164 OA 
HETATM   12  O   UNL     1      -6.093  10.506  67.158  1.00  0.00    -0.053 OA 
HETATM   13  N   UNL     1      -8.298  10.033  66.947  1.00  0.00    -0.124 N  
HETATM   14  C   UNL     1      -7.267  10.854  67.263  1.00  0.00    -0.098 C  
HETATM   15  H   UNL     1      -7.024  12.596  68.354  1.00  0.00     0.000 HD 
BRANCH   5  16
HETATM   16  C   UNL     1     -10.985  12.225  66.063  1.00  0.00    -0.327 A  
HETATM   17  C   UNL     1     -12.617  13.781  65.135  1.00  0.00    -0.471 A  
HETATM   18  C   UNL     1     -11.926  13.258  66.230  1.00  0.00    -0.471 A  
HETATM   19  C   UNL     1     -10.899  11.626  64.794  1.00  0.00    -0.367 A  
HETATM   20  C   UNL     1     -12.408  13.260  63.862  1.00  0.00    -0.422 A  
HETATM   21  C   UNL     1     -11.574  12.161  63.698  1.00  0.00    -0.575 A  
ENDBRANCH   5  16
ENDBRANCH   2   5
BRANCH   4  22
HETATM   22  C   UNL     2      -9.004   9.201  70.238  1.00  0.00    -0.217 A  
HETATM   23  C   UNL     2      -7.785   9.808  70.467  1.00  0.00    -0.094 A  
HETATM   24  C   UNL     2      -7.878   7.238  69.261  1.00  0.00    -0.116 A  
HETATM   25  C   UNL     2      -6.614   5.411  68.302  1.00  0.00    -0.049 A  
HETATM   26  C   UNL     2      -6.617   9.138  70.093  1.00  0.00    -0.048 A  
HETATM   27  C   UNL     2      -5.466   6.143  68.557  1.00  0.00    -0.008 A  
HETATM   28  C   UNL     2      -9.032   7.913  69.715  1.00  0.00    -0.146 A  
HETATM   29  C   UNL     2      -7.867   5.948  68.634  1.00  0.00    -0.102 A  
HETATM   30  C   UNL     2      -6.639   7.895  69.467  1.00  0.00    -0.035 A  
HETATM   31  N   UNL     2      -5.463   7.365  69.116  1.00  0.00    -0.015 NA 
BRANCH  29  32
HETATM   32  C   UNL     2      -9.139   5.104  68.413  1.00  0.00    -0.112 C  
HETATM   33  H   UNL     2      -9.765   3.685  67.176  1.00  0.00     0.000 HD 
HETATM   34  O   UNL     2      -8.982   4.205  67.312  1.00  0.00    -0.114 OA 
BRANCH  32  35
HETATM   35  C   UNL     2      -9.647   4.247  69.630  1.00  0.00    -0.205 C  
HETATM   36  C   UNL     2      -9.943   4.761  72.087  1.00  0.00    -0.237 C  
HETATM   37  C   UNL     2     -10.110   3.242  72.266  1.00  0.00    -0.215 C  
HETATM   38  C   UNL     2      -9.227   2.501  71.250  1.00  0.00    -0.121 C  
HETATM   39  C   UNL     2     -10.428   5.099  70.665  1.00  0.00    -0.269 C  
HETATM   40  N   UNL     2      -8.574   3.443  70.311  1.00  0.00    -0.056 NA 
HETATM   41  C   UNL     2      -7.668   4.297  71.126  1.00  0.00    -0.067 C  
HETATM   42  C   UNL     2      -8.445   5.151  72.161  1.00  0.00    -0.125 C  
BRANCH  42  43
HETATM   43  C   UNL     2      -7.878   4.986  73.553  1.00  0.00    -0.099 C  
HETATM   44  C   UNL     2      -6.847   4.189  73.863  1.00  0.00    -0.059 C  
ENDBRANCH  42  43
ENDBRANCH  32  35
ENDBRANCH  29  32
ENDBRANCH   4  22
TORSDOF 6
ENDMDL
MODEL      104
REMARK 921   NORMALIZED FREE ENERGY PREDICTED BY IDOCK:   -4.29 KCAL/MOL
REMARK 922        TOTAL FREE ENERGY PREDICTED BY IDOCK:   -8.88 KCAL/MOL
REMARK 923 INTER-LIGAND FREE ENERGY PREDICTED BY IDOCK:   -6.58 KCAL/MOL
REMARK 924 INTRA-LIGAND FREE ENERGY PREDICTED BY IDOCK:   -2.29 KCAL/MOL
REMARK 927      BINDING AFFINITY PREDICTED BY RF-SCORE:    0.00 PKD
ROOT
HETATM    1  C   UNL     1      -7.331  10.545  69.681  1.00  0.00    -0.151 C  
HETATM    2  C   UNL     1      -8.149   9.465  68.977  1.00  0.00    -0.106 C  
HETATM    3  C   UNL     2      -6.027   8.847  72.410  1.00  0.00    -0.057 C  
HETATM    4  O   UNL     2      -6.598   8.094  71.353  1.00  0.00    -0.041 OA 
ENDROOT
BRANCH   2   5
HETATM    5  C   UNL     1      -9.695   9.463  69.232  1.00  0.00    -0.173 C  
HETATM    6  O   UNL     1      -9.645   9.336  71.694  1.00  0.00    -0.277 OA 
HETATM    7  C   UNL     1     -10.236   8.543  68.124  1.00  0.00    -0.208 C  
HETATM    8  C   UNL     1      -9.978   8.832  70.618  1.00  0.00    -0.198 C  
HETATM    9  H   UNL     1     -11.173   7.410  71.489  1.00  0.00     0.000 HD 
HETATM   10  N   UNL     1     -10.240   7.207  68.416  1.00  0.00    -0.169 N  
HETATM   11  O   UNL     1     -10.570   8.921  67.007  1.00  0.00    -0.274 OA 
HETATM   12  O   UNL     1     -11.395   5.734  69.665  1.00  0.00    -0.281 OA 
HETATM   13  N   UNL     1     -10.688   7.659  70.627  1.00  0.00    -0.227 N  
HETATM   14  C   UNL     1     -10.796   6.803  69.581  1.00  0.00    -0.271 C  
HETATM   15  H   UNL     1      -9.833   6.530  67.770  1.00  0.00     0.000 HD 
BRANCH   5  16
HETATM   16  C   UNL     1     -10.281  10.888  69.140  1.00  0.00    -0.215 A  
HETATM   17  C   UNL     1     -10.474  13.020  67.972  1.00  0.00    -0.234 A  
HETATM   18  C   UNL     1      -9.769  11.845  68.245  1.00  0.00    -0.200 A  
HETATM   19  C   UNL     1     -11.427  11.237  69.875  1.00  0.00    -0.373 A  
HETATM   20  C   UNL     1     -11.681  13.276  68.612  1.00  0.00    -0.376 A  
HETATM   21  C   UNL     1     -12.141  12.400  69.589  1.00  0.00    -0.271 A  
ENDBRANCH   5  16
ENDBRANCH   2   5
BRANCH   4  22
HETATM   22  C   UNL     2      -7.390   7.047  71.708  1.00  0.00    -0.086 A  
HETATM   23  C   UNL     2      -8.062   6.889  72.903  1.00  0.00    -0.115 A  
HETATM   24  C   UNL     2      -8.301   4.910  70.880  1.00  0.00    -0.108 A  
HETATM   25  C   UNL     2      -9.253   2.779  70.243  1.00  0.00    -0.207 A  
HETATM   26  C   UNL     2      -8.847   5.749  73.091  1.00  0.00    -0.122 A  
HETATM   27  C   UNL     2      -9.844   2.731  71.494  1.00  0.00    -0.125 A  
HETATM   28  C   UNL     2      -7.573   6.107  70.699  1.00  0.00    -0.093 A  
HETATM   29  C   UNL     2      -8.442   3.872  69.901  1.00  0.00    -0.091 A  
HETATM   30  C   UNL     2      -8.949   4.748  72.130  1.00  0.00    -0.127 A  
HETATM   31  N   UNL     2      -9.696   3.681  72.433  1.00  0.00    -0.143 NA 
BRANCH  29  32
HETATM   32  C   UNL     2      -7.841   3.958  68.483  1.00  0.00    -0.068 C  
HETATM   33  H   UNL     2      -6.384   3.098  67.449  1.00  0.00     0.000 HD 
HETATM   34  O   UNL     2      -6.754   3.045  68.322  1.00  0.00    -0.039 OA 
BRANCH  32  35
HETATM   35  C   UNL     2      -8.820   3.715  67.276  1.00  0.00    -0.127 C  
HETATM   36  C   UNL     2      -8.438   3.139  64.845  1.00  0.00    -0.096 C  
HETATM   37  C   UNL     2      -9.922   3.494  64.647  1.00  0.00    -0.153 C  
HETATM   38  C   UNL     2     -10.315   4.627  65.608  1.00  0.00    -0.238 C  
HETATM   39  C   UNL     2      -8.288   2.639  66.294  1.00  0.00    -0.092 C  
HETATM   40  N   UNL     2      -9.206   4.963  66.532  1.00  0.00    -0.129 NA 
HETATM   41  C   UNL     2      -8.092   5.479  65.691  1.00  0.00    -0.118 C  
HETATM   42  C   UNL     2      -7.557   4.406  64.708  1.00  0.00    -0.073 C  
BRANCH  42  43
HETATM   43  C   UNL     2      -7.516   4.925  63.289  1.00  0.00    -0.054 C  
HETATM   44  C   UNL     2      -8.239   5.959  62.838  1.00  0.00    -0.076 C  
ENDBRANCH  42  43
ENDBRANCH  32  35
ENDBRANCH  29  32
ENDBRANCH   4  22
TORSDOF 6
ENDMDL
MODEL      105
REMARK 921   NORMALIZED FREE ENERGY PREDICTED BY IDOCK:   -4.28 KCAL/MOL
REMARK 922        TOTAL FREE ENERGY PREDICTED BY IDOCK:   -8.86 KCAL/MOL
REMARK 923 INTER-LIGAND FREE ENERGY PREDICTED BY IDOCK:   -7.46 KCAL/MOL
REMARK 924 INTRA-LIGAND FREE ENERGY PREDICTED BY IDOCK:   -1.41 KCAL/MOL
REMARK 927      BINDING AFFINITY PREDICTED BY RF-SCORE:    0.00 PKD
ROOT
HETATM    1  C   UNL     1      -8.610  14.881  67.526  1.00  0.00    -0.195 C  
HETATM    2  C   UNL     1      -9.066  13.937  66.416  1.00  0.00    -0.105 C  
HETATM    3  C   UNL     2      -5.583  13.494  68.499  1.00  0.00    -0.089 C  
HETATM    4  O   UNL     2      -6.163  13.065  67.278  1.00  0.00    -0.279 OA 
ENDROOT
BRANCH   2   5
HETATM    5  C   UNL     1     -10.124  12.847  66.797  1.00  0.00    -0.238 C  
HETATM    6  O   UNL     1     -12.007  13.701  65.453  1.00  0.00    -0.342 OA 
HETATM    7  C   UNL     1      -9.894  12.639  68.304  1.00  0.00    -0.227 C  
HETATM    8  C   UNL     1     -11.545  13.418  66.561  1.00  0.00    -0.357 C  
HETATM    9  H   UNL     1     -13.349  13.604  67.520  1.00  0.00     0.000 HD 
HETATM   10  N   UNL     1     -10.563  13.501  69.128  1.00  0.00    -0.432 N  
HETATM   11  O   UNL     1      -9.107  11.831  68.781  1.00  0.00    -0.110 OA 
HETATM   12  O   UNL     1     -12.648  13.861  69.893  1.00  0.00    -0.281 OA 
HETATM   13  N   UNL     1     -12.340  13.566  67.669  1.00  0.00    -0.153 N  
HETATM   14  C   UNL     1     -11.892  13.667  68.944  1.00  0.00    -0.364 C  
HETATM   15  H   UNL     1     -10.071  14.007  69.865  1.00  0.00     0.000 HD 
BRANCH   5  16
HETATM   16  C   UNL     1      -9.908  11.548  65.992  1.00  0.00    -0.255 A  
HETATM   17  C   UNL     1      -8.903  10.379  64.102  1.00  0.00    -0.228 A  
HETATM   18  C   UNL     1      -9.349  11.560  64.700  1.00  0.00    -0.040 A  
HETATM   19  C   UNL     1     -10.158  10.295  66.577  1.00  0.00    -0.290 A  
HETATM   20  C   UNL     1      -9.036   9.165  64.766  1.00  0.00    -0.157 A  
HETATM   21  C   UNL     1      -9.695   9.119  65.989  1.00  0.00    -0.358 A  
ENDBRANCH   5  16
ENDBRANCH   2   5
BRANCH   4  22
HETATM   22  C   UNL     2      -6.126  11.730  67.020  1.00  0.00    -0.152 A  
HETATM   23  C   UNL     2      -5.931  11.133  65.791  1.00  0.00     0.037 A  
HETATM   24  C   UNL     2      -6.269   9.521  68.104  1.00  0.00    -0.056 A  
HETATM   25  C   UNL     2      -6.418   7.276  68.996  1.00  0.00    -0.036 A  
HETATM   26  C   UNL     2      -5.909   9.738  65.714  1.00  0.00    -0.061 A  
HETATM   27  C   UNL     2      -6.248   6.810  67.704  1.00  0.00    -0.040 A  
HETATM   28  C   UNL     2      -6.217  10.931  68.155  1.00  0.00    -0.049 A  
HETATM   29  C   UNL     2      -6.451   8.659  69.236  1.00  0.00    -0.042 A  
HETATM   30  C   UNL     2      -6.109   8.927  66.827  1.00  0.00    -0.057 A  
HETATM   31  N   UNL     2      -6.107   7.606  66.630  1.00  0.00    -0.043 NA 
BRANCH  29  32
HETATM   32  C   UNL     2      -6.571   9.177  70.684  1.00  0.00    -0.071 C  
HETATM   33  H   UNL     2      -6.525  10.919  71.631  1.00  0.00     0.000 HD 
HETATM   34  O   UNL     2      -6.451  10.600  70.739  1.00  0.00    -0.339 OA 
BRANCH  32  35
HETATM   35  C   UNL     2      -7.880   8.801  71.471  1.00  0.00    -0.104 C  
HETATM   36  C   UNL     2      -9.334   6.734  71.494  1.00  0.00    -0.153 C  
HETATM   37  C   UNL     2     -10.355   7.601  72.250  1.00  0.00    -0.277 C  
HETATM   38  C   UNL     2     -10.269   9.053  71.754  1.00  0.00    -0.319 C  
HETATM   39  C   UNL     2      -7.939   7.293  71.829  1.00  0.00    -0.095 C  
HETATM   40  N   UNL     2      -9.152   9.232  70.796  1.00  0.00    -0.250 NA 
HETATM   41  C   UNL     2      -9.470   8.391  69.610  1.00  0.00    -0.166 C  
HETATM   42  C   UNL     2      -9.529   6.882  69.963  1.00  0.00    -0.158 C  
BRANCH  42  43
HETATM   43  C   UNL     2     -10.817   6.251  69.486  1.00  0.00    -0.404 C  
HETATM   44  C   UNL     2     -11.409   6.527  68.316  1.00  0.00    -0.123 C  
ENDBRANCH  42  43
ENDBRANCH  32  35
ENDBRANCH  29  32
ENDBRANCH   4  22
TORSDOF 6
ENDMDL
MODEL      106
REMARK 921   NORMALIZED FREE ENERGY PREDICTED BY IDOCK:   -4.27 KCAL/MOL
REMARK 922        TOTAL FREE ENERGY PREDICTED BY IDOCK:   -8.85 KCAL/MOL
REMARK 923 INTER-LIGAND FREE ENERGY PREDICTED BY IDOCK:   -7.76 KCAL/MOL
REMARK 924 INTRA-LIGAND FREE ENERGY PREDICTED BY IDOCK:   -1.09 KCAL/MOL
REMARK 927      BINDING AFFINITY PREDICTED BY RF-SCORE:    0.00 PKD
ROOT
HETATM    1  C   UNL     1      -5.199   8.741  67.119  1.00  0.00    -0.033 C  
HETATM    2  C   UNL     1      -5.919   7.495  67.629  1.00  0.00    -0.039 C  
HETATM    3  C   UNL     2      -6.108  11.144  69.450  1.00  0.00    -0.071 C  
HETATM    4  O   UNL     2      -6.340   9.780  69.758  1.00  0.00    -0.043 OA 
ENDROOT
BRANCH   2   5
HETATM    5  C   UNL     1      -7.267   7.115  66.928  1.00  0.00    -0.087 C  
HETATM    6  O   UNL     1      -8.319   9.345  66.959  1.00  0.00    -0.125 OA 
HETATM    7  C   UNL     1      -7.624   5.756  67.555  1.00  0.00    -0.093 C  
HETATM    8  C   UNL     1      -8.345   8.162  67.306  1.00  0.00    -0.121 C  
HETATM    9  H   UNL     1     -10.271   8.260  68.004  1.00  0.00     0.000 HD 
HETATM   10  N   UNL     1      -8.313   5.812  68.734  1.00  0.00    -0.104 N  
HETATM   11  O   UNL     1      -7.261   4.672  67.116  1.00  0.00    -0.071 OA 
HETATM   12  O   UNL     1     -10.389   6.261  69.480  1.00  0.00    -0.182 OA 
HETATM   13  N   UNL     1      -9.414   7.709  68.036  1.00  0.00    -0.143 N  
HETATM   14  C   UNL     1      -9.421   6.586  68.796  1.00  0.00    -0.128 C  
HETATM   15  H   UNL     1      -8.000   5.283  69.548  1.00  0.00     0.000 HD 
BRANCH   5  16
HETATM   16  C   UNL     1      -7.098   7.021  65.397  1.00  0.00    -0.068 A  
HETATM   17  C   UNL     1      -7.866   7.577  63.150  1.00  0.00    -0.133 A  
HETATM   18  C   UNL     1      -8.124   7.401  64.512  1.00  0.00    -0.079 A  
HETATM   19  C   UNL     1      -5.861   6.659  64.837  1.00  0.00    -0.031 A  
HETATM   20  C   UNL     1      -6.592   7.346  62.644  1.00  0.00    -0.065 A  
HETATM   21  C   UNL     1      -5.598   6.854  63.481  1.00  0.00    -0.035 A  
ENDBRANCH   5  16
ENDBRANCH   2   5
BRANCH   4  22
HETATM   22  C   UNL     2      -7.534   9.479  70.338  1.00  0.00    -0.151 A  
HETATM   23  C   UNL     2      -7.736   8.665  71.433  1.00  0.00    -0.150 A  
HETATM   24  C   UNL     2      -9.953   9.930  70.187  1.00  0.00    -0.291 A  
HETATM   25  C   UNL     2     -12.353  10.234  70.164  1.00  0.00    -0.213 A  
HETATM   26  C   UNL     2      -9.039   8.478  71.904  1.00  0.00    -0.314 A  
HETATM   27  C   UNL     2     -12.418   9.370  71.245  1.00  0.00    -0.335 A  
HETATM   28  C   UNL     2      -8.618  10.150  69.782  1.00  0.00    -0.148 A  
HETATM   29  C   UNL     2     -11.109  10.529  69.586  1.00  0.00    -0.338 A  
HETATM   30  C   UNL     2     -10.144   9.057  71.287  1.00  0.00    -0.314 A  
HETATM   31  N   UNL     2     -11.347   8.777  71.799  1.00  0.00    -0.315 NA 
BRANCH  29  32
HETATM   32  C   UNL     2     -11.031  11.544  68.427  1.00  0.00    -0.221 C  
HETATM   33  H   UNL     2     -12.105  12.046  66.837  1.00  0.00     0.000 HD 
HETATM   34  O   UNL     2     -12.153  11.421  67.551  1.00  0.00    -0.592 OA 
BRANCH  32  35
HETATM   35  C   UNL     2     -10.922  13.064  68.815  1.00  0.00    -0.258 C  
HETATM   36  C   UNL     2     -11.658  15.188  67.658  1.00  0.00    -0.290 C  
HETATM   37  C   UNL     2     -10.782  15.917  68.692  1.00  0.00    -0.274 C  
HETATM   38  C   UNL     2      -9.561  15.051  69.039  1.00  0.00    -0.225 C  
HETATM   39  C   UNL     2     -12.142  13.886  68.323  1.00  0.00    -0.322 C  
HETATM   40  N   UNL     2      -9.638  13.721  68.389  1.00  0.00    -0.215 NA 
HETATM   41  C   UNL     2      -9.593  13.960  66.921  1.00  0.00    -0.269 C  
HETATM   42  C   UNL     2     -10.812  14.781  66.425  1.00  0.00    -0.322 C  
BRANCH  42  43
HETATM   43  C   UNL     2     -10.379  15.976  65.607  1.00  0.00    -0.414 C  
HETATM   44  C   UNL     2     -11.077  16.490  64.585  1.00  0.00    -0.135 C  
ENDBRANCH  42  43
ENDBRANCH  32  35
ENDBRANCH  29  32
ENDBRANCH   4  22
TORSDOF 6
ENDMDL
MODEL      107
REMARK 921   NORMALIZED FREE ENERGY PREDICTED BY IDOCK:   -4.26 KCAL/MOL
REMARK 922        TOTAL FREE ENERGY PREDICTED BY IDOCK:   -8.83 KCAL/MOL
REMARK 923 INTER-LIGAND FREE ENERGY PREDICTED BY IDOCK:   -7.64 KCAL/MOL
REMARK 924 INTRA-LIGAND FREE ENERGY PREDICTED BY IDOCK:   -1.19 KCAL/MOL
REMARK 927      BINDING AFFINITY PREDICTED BY RF-SCORE:    0.00 PKD
ROOT
HETATM    1  C   UNL     1      -9.595  13.612  66.746  1.00  0.00    -0.277 C  
HETATM    2  C   UNL     1      -9.187  12.153  66.933  1.00  0.00    -0.203 C  
HETATM    3  C   UNL     2     -11.542  14.218  69.552  1.00  0.00    -0.301 C  
HETATM    4  O   UNL     2     -10.734  13.053  69.527  1.00  0.00     0.078 OA 
ENDROOT
BRANCH   2   5
HETATM    5  C   UNL     1      -9.999  11.079  66.131  1.00  0.00    -0.277 C  
HETATM    6  O   UNL     1      -8.536  10.942  64.151  1.00  0.00    -0.086 OA 
HETATM    7  C   UNL     1     -11.462  11.499  66.353  1.00  0.00    -0.074 C  
HETATM    8  C   UNL     1      -9.645  11.197  64.628  1.00  0.00    -0.250 C  
HETATM    9  H   UNL     1     -10.563  11.328  62.798  1.00  0.00     0.000 HD 
HETATM   10  N   UNL     1     -11.945  12.436  65.484  1.00  0.00    -0.423 N  
HETATM   11  O   UNL     1     -12.161  11.117  67.284  1.00  0.00    -0.242 OA 
HETATM   12  O   UNL     1     -12.634  12.591  63.347  1.00  0.00    -0.690 OA 
HETATM   13  N   UNL     1     -10.661  11.568  63.784  1.00  0.00    -0.369 N  
HETATM   14  C   UNL     1     -11.784  12.228  64.157  1.00  0.00    -0.402 C  
HETATM   15  H   UNL     1     -12.417  13.273  65.827  1.00  0.00     0.000 HD 
BRANCH   5  16
HETATM   16  C   UNL     1      -9.717   9.655  66.657  1.00  0.00    -0.266 A  
HETATM   17  C   UNL     1     -10.457   7.363  67.042  1.00  0.00    -0.404 A  
HETATM   18  C   UNL     1     -10.748   8.714  66.839  1.00  0.00    -0.152 A  
HETATM   19  C   UNL     1      -8.397   9.217  66.861  1.00  0.00    -0.123 A  
HETATM   20  C   UNL     1      -9.135   6.934  67.100  1.00  0.00    -0.137 A  
HETATM   21  C   UNL     1      -8.106   7.866  67.044  1.00  0.00    -0.116 A  
ENDBRANCH   5  16
ENDBRANCH   2   5
BRANCH   4  22
HETATM   22  C   UNL     2     -11.300  11.907  69.992  1.00  0.00    -0.012 A  
HETATM   23  C   UNL     2     -12.635  11.703  70.277  1.00  0.00    -0.159 A  
HETATM   24  C   UNL     2     -10.779   9.581  70.625  1.00  0.00    -0.375 A  
HETATM   25  C   UNL     2     -10.442   7.288  71.317  1.00  0.00    -0.215 A  
HETATM   26  C   UNL     2     -13.043  10.449  70.736  1.00  0.00    -0.362 A  
HETATM   27  C   UNL     2     -11.797   7.229  71.594  1.00  0.00    -0.298 A  
HETATM   28  C   UNL     2     -10.414  10.840  70.097  1.00  0.00     0.163 A  
HETATM   29  C   UNL     2      -9.883   8.482  70.835  1.00  0.00    -0.234 A  
HETATM   30  C   UNL     2     -12.147   9.405  70.950  1.00  0.00    -0.255 A  
HETATM   31  N   UNL     2     -12.643   8.261  71.431  1.00  0.00    -0.299 NA 
BRANCH  29  32
HETATM   32  C   UNL     2      -8.388   8.525  70.461  1.00  0.00    -0.135 C  
HETATM   33  H   UNL     2      -6.932   9.869  70.375  1.00  0.00     0.000 HD 
HETATM   34  O   UNL     2      -7.853   9.843  70.605  1.00  0.00    -0.278 OA 
BRANCH  32  35
HETATM   35  C   UNL     2      -7.427   7.557  71.246  1.00  0.00    -0.079 C  
HETATM   36  C   UNL     2      -5.278   6.387  70.613  1.00  0.00    -0.014 C  
HETATM   37  C   UNL     2      -5.486   5.561  71.895  1.00  0.00    -0.017 C  
HETATM   38  C   UNL     2      -6.989   5.352  72.138  1.00  0.00    -0.080 C  
HETATM   39  C   UNL     2      -5.940   7.756  70.852  1.00  0.00    -0.034 C  
HETATM   40  N   UNL     2      -7.805   6.104  71.156  1.00  0.00    -0.109 NA 
HETATM   41  C   UNL     2      -7.502   5.529  69.818  1.00  0.00    -0.070 C  
HETATM   42  C   UNL     2      -6.016   5.727  69.421  1.00  0.00    -0.027 C  
BRANCH  42  43
HETATM   43  C   UNL     2      -5.376   4.423  69.001  1.00  0.00    -0.011 C  
HETATM   44  C   UNL     2      -6.020   3.250  68.927  1.00  0.00    -0.024 C  
ENDBRANCH  42  43
ENDBRANCH  32  35
ENDBRANCH  29  32
ENDBRANCH   4  22
TORSDOF 6
ENDMDL
MODEL      108
REMARK 921   NORMALIZED FREE ENERGY PREDICTED BY IDOCK:   -4.23 KCAL/MOL
REMARK 922        TOTAL FREE ENERGY PREDICTED BY IDOCK:   -8.80 KCAL/MOL
REMARK 923 INTER-LIGAND FREE ENERGY PREDICTED BY IDOCK:   -6.79 KCAL/MOL
REMARK 924 INTRA-LIGAND FREE ENERGY PREDICTED BY IDOCK:   -2.00 KCAL/MOL
REMARK 927      BINDING AFFINITY PREDICTED BY RF-SCORE:    0.00 PKD
ROOT
HETATM    1  C   UNL     1      -8.628   7.388  68.714  1.00  0.00    -0.129 C  
HETATM    2  C   UNL     1      -8.743   7.509  67.196  1.00  0.00    -0.121 C  
HETATM    3  C   UNL     2     -10.330  10.199  69.826  1.00  0.00    -0.259 C  
HETATM    4  O   UNL     2     -10.484   9.806  68.472  1.00  0.00    -0.195 OA 
ENDROOT
BRANCH   2   5
HETATM    5  C   UNL     1      -7.506   8.092  66.432  1.00  0.00    -0.087 C  
HETATM    6  O   UNL     1      -8.699   9.008  64.478  1.00  0.00    -0.177 OA 
HETATM    7  C   UNL     1      -6.431   7.006  66.616  1.00  0.00    -0.051 C  
HETATM    8  C   UNL     1      -7.857   8.226  64.929  1.00  0.00    -0.126 C  
HETATM    9  H   UNL     1      -7.099   7.750  63.084  1.00  0.00     0.000 HD 
HETATM   10  N   UNL     1      -6.453   5.992  65.700  1.00  0.00    -0.042 N  
HETATM   11  O   UNL     1      -5.644   6.959  67.554  1.00  0.00    -0.018 OA 
HETATM   12  O   UNL     1      -5.904   5.620  63.550  1.00  0.00    -0.017 OA 
HETATM   13  N   UNL     1      -7.140   7.449  64.057  1.00  0.00    -0.067 N  
HETATM   14  C   UNL     1      -6.480   6.311  64.386  1.00  0.00    -0.034 C  
HETATM   15  H   UNL     1      -6.449   5.017  66.000  1.00  0.00     0.000 HD 
BRANCH   5  16
HETATM   16  C   UNL     1      -7.068   9.448  67.024  1.00  0.00    -0.086 A  
HETATM   17  C   UNL     1      -6.774  11.858  66.786  1.00  0.00    -0.009 A  
HETATM   18  C   UNL     1      -6.892  10.587  66.216  1.00  0.00    -0.127 A  
HETATM   19  C   UNL     1      -6.942   9.614  68.414  1.00  0.00    -0.065 A  
HETATM   20  C   UNL     1      -6.793  12.008  68.168  1.00  0.00    -0.069 A  
HETATM   21  C   UNL     1      -6.843  10.883  68.983  1.00  0.00    -0.080 A  
ENDBRANCH   5  16
ENDBRANCH   2   5
BRANCH   4  22
HETATM   22  C   UNL     2     -10.460  10.798  67.542  1.00  0.00    -0.220 A  
HETATM   23  C   UNL     2     -10.653  10.659  66.182  1.00  0.00    -0.211 A  
HETATM   24  C   UNL     2     -10.181  13.234  67.283  1.00  0.00    -0.240 A  
HETATM   25  C   UNL     2      -9.898  15.597  66.844  1.00  0.00    -0.245 A  
HETATM   26  C   UNL     2     -10.607  11.797  65.374  1.00  0.00    -0.325 A  
HETATM   27  C   UNL     2     -10.074  15.312  65.500  1.00  0.00    -0.375 A  
HETATM   28  C   UNL     2     -10.303  12.072  68.077  1.00  0.00    -0.206 A  
HETATM   29  C   UNL     2      -9.929  14.554  67.784  1.00  0.00    -0.225 A  
HETATM   30  C   UNL     2     -10.340  13.064  65.885  1.00  0.00    -0.288 A  
HETATM   31  N   UNL     2     -10.280  14.076  65.014  1.00  0.00    -0.391 NA 
BRANCH  29  32
HETATM   32  C   UNL     2      -9.802  14.881  69.285  1.00  0.00    -0.159 C  
HETATM   33  H   UNL     2      -8.733  16.085  70.443  1.00  0.00     0.000 HD 
HETATM   34  O   UNL     2      -8.811  15.884  69.518  1.00  0.00    -0.242 OA 
BRANCH  32  35
HETATM   35  C   UNL     2     -11.107  15.352  70.027  1.00  0.00    -0.303 C  
HETATM   36  C   UNL     2     -12.267  14.563  72.129  1.00  0.00    -0.303 C  
HETATM   37  C   UNL     2     -13.453  15.424  71.660  1.00  0.00    -0.593 C  
HETATM   38  C   UNL     2     -13.523  15.415  70.125  1.00  0.00     0.456 C  
HETATM   39  C   UNL     2     -10.991  15.217  71.567  1.00  0.00    -0.143 C  
HETATM   40  N   UNL     2     -12.368  14.698  69.534  1.00  0.00    -0.245 NA 
HETATM   41  C   UNL     2     -12.474  13.282  69.978  1.00  0.00    -0.100 C  
HETATM   42  C   UNL     2     -12.357  13.142  71.518  1.00  0.00    -0.049 C  
BRANCH  42  43
HETATM   43  C   UNL     2     -13.505  12.343  72.091  1.00  0.00    -0.481 C  
HETATM   44  C   UNL     2     -13.642  11.016  71.970  1.00  0.00    -0.147 C  
ENDBRANCH  42  43
ENDBRANCH  32  35
ENDBRANCH  29  32
ENDBRANCH   4  22
TORSDOF 6
ENDMDL
MODEL      109
REMARK 921   NORMALIZED FREE ENERGY PREDICTED BY IDOCK:   -4.23 KCAL/MOL
REMARK 922        TOTAL FREE ENERGY PREDICTED BY IDOCK:   -8.79 KCAL/MOL
REMARK 923 INTER-LIGAND FREE ENERGY PREDICTED BY IDOCK:   -9.44 KCAL/MOL
REMARK 924 INTRA-LIGAND FREE ENERGY PREDICTED BY IDOCK:    0.65 KCAL/MOL
REMARK 927      BINDING AFFINITY PREDICTED BY RF-SCORE:    0.00 PKD
ROOT
HETATM    1  C   UNL     1     -10.957  11.762  65.053  1.00  0.00    -0.357 C  
HETATM    2  C   UNL     1     -11.269  11.613  66.540  1.00  0.00    -0.356 C  
HETATM    3  C   UNL     2      -7.684  10.631  64.851  1.00  0.00     0.067 C  
HETATM    4  O   UNL     2      -8.424  10.358  66.031  1.00  0.00    -0.136 OA 
ENDROOT
BRANCH   2   5
HETATM    5  C   UNL     1     -11.172  12.904  67.422  1.00  0.00    -0.331 C  
HETATM    6  O   UNL     1     -12.987  14.191  66.359  1.00  0.00    -0.090 OA 
HETATM    7  C   UNL     1      -9.656  13.119  67.572  1.00  0.00    -0.208 C  
HETATM    8  C   UNL     1     -11.791  14.094  66.645  1.00  0.00    -0.424 C  
HETATM    9  H   UNL     1     -11.357  16.027  66.115  1.00  0.00     0.000 HD 
HETATM   10  N   UNL     1      -9.056  13.823  66.567  1.00  0.00    -0.444 N  
HETATM   11  O   UNL     1      -8.971  12.635  68.466  1.00  0.00    -0.150 OA 
HETATM   12  O   UNL     1      -8.888  15.944  65.831  1.00  0.00    -0.308 OA 
HETATM   13  N   UNL     1     -10.942  15.115  66.305  1.00  0.00    -0.340 N  
HETATM   14  C   UNL     1      -9.594  15.009  66.201  1.00  0.00    -0.314 C  
HETATM   15  H   UNL     1      -8.221  13.464  66.103  1.00  0.00     0.000 HD 
BRANCH   5  16
HETATM   16  C   UNL     1     -11.869  12.708  68.784  1.00  0.00    -0.341 A  
HETATM   17  C   UNL     1     -12.473  11.269  70.658  1.00  0.00    -0.439 A  
HETATM   18  C   UNL     1     -12.103  11.428  69.320  1.00  0.00    -0.356 A  
HETATM   19  C   UNL     1     -12.189  13.816  69.588  1.00  0.00    -0.359 A  
HETATM   20  C   UNL     1     -12.648  12.382  71.473  1.00  0.00    -0.250 A  
HETATM   21  C   UNL     1     -12.539  13.656  70.929  1.00  0.00    -0.421 A  
ENDBRANCH   5  16
ENDBRANCH   2   5
BRANCH   4  22
HETATM   22  C   UNL     2      -7.771  10.522  67.213  1.00  0.00    -0.106 A  
HETATM   23  C   UNL     2      -6.960  11.582  67.567  1.00  0.00    -0.102 A  
HETATM   24  C   UNL     2      -7.420   9.477  69.418  1.00  0.00    -0.088 A  
HETATM   25  C   UNL     2      -6.939   8.578  71.612  1.00  0.00    -0.092 A  
HETATM   26  C   UNL     2      -6.378  11.591  68.837  1.00  0.00    -0.059 A  
HETATM   27  C   UNL     2      -6.126   9.678  71.825  1.00  0.00     0.147 A  
HETATM   28  C   UNL     2      -8.046   9.536  68.153  1.00  0.00    -0.102 A  
HETATM   29  C   UNL     2      -7.603   8.433  70.384  1.00  0.00    -0.072 A  
HETATM   30  C   UNL     2      -6.558  10.553  69.747  1.00  0.00    -0.112 A  
HETATM   31  N   UNL     2      -5.920  10.648  70.918  1.00  0.00    -0.304 NA 
BRANCH  29  32
HETATM   32  C   UNL     2      -8.562   7.244  70.174  1.00  0.00    -0.140 C  
HETATM   33  H   UNL     2      -8.504   5.433  69.368  1.00  0.00     0.000 HD 
HETATM   34  O   UNL     2      -7.913   6.165  69.498  1.00  0.00    -0.104 OA 
BRANCH  32  35
HETATM   35  C   UNL     2      -9.237   6.635  71.458  1.00  0.00    -0.146 C  
HETATM   36  C   UNL     2     -11.525   5.653  71.893  1.00  0.00    -0.163 C  
HETATM   37  C   UNL     2     -11.157   5.752  73.384  1.00  0.00    -0.195 C  
HETATM   38  C   UNL     2     -10.270   6.985  73.617  1.00  0.00    -0.358 C  
HETATM   39  C   UNL     2     -10.206   5.472  71.119  1.00  0.00    -0.285 C  
HETATM   40  N   UNL     2      -9.916   7.647  72.339  1.00  0.00    -0.189 NA 
HETATM   41  C   UNL     2     -11.189   8.139  71.747  1.00  0.00    -0.272 C  
HETATM   42  C   UNL     2     -12.161   6.980  71.405  1.00  0.00    -0.396 C  
BRANCH  42  43
HETATM   43  C   UNL     2     -13.531   7.211  72.000  1.00  0.00    -0.175 C  
HETATM   44  C   UNL     2     -14.349   8.215  71.656  1.00  0.00    -0.570 C  
ENDBRANCH  42  43
ENDBRANCH  32  35
ENDBRANCH  29  32
ENDBRANCH   4  22
TORSDOF 6
ENDMDL
MODEL      110
REMARK 921   NORMALIZED FREE ENERGY PREDICTED BY IDOCK:   -4.20 KCAL/MOL
REMARK 922        TOTAL FREE ENERGY PREDICTED BY IDOCK:   -8.75 KCAL/MOL
REMARK 923 INTER-LIGAND FREE ENERGY PREDICTED BY IDOCK:   -9.09 KCAL/MOL
REMARK 924 INTRA-LIGAND FREE ENERGY PREDICTED BY IDOCK:    0.33 KCAL/MOL
REMARK 927      BINDING AFFINITY PREDICTED BY RF-SCORE:    0.00 PKD
ROOT
HETATM    1  C   UNL     1     -11.907  12.435  65.432  1.00  0.00    -0.460 C  
HETATM    2  C   UNL     1     -11.827  11.846  66.838  1.00  0.00    -0.177 C  
HETATM    3  C   UNL     2      -9.269  10.876  63.808  1.00  0.00    -0.215 C  
HETATM    4  O   UNL     2      -9.700  10.354  65.054  1.00  0.00    -0.251 OA 
ENDROOT
BRANCH   2   5
HETATM    5  C   UNL     1     -11.133  12.720  67.938  1.00  0.00    -0.281 C  
HETATM    6  O   UNL     1     -11.969  14.923  67.214  1.00  0.00    -0.316 OA 
HETATM    7  C   UNL     1      -9.733  12.094  68.059  1.00  0.00    -0.203 C  
HETATM    8  C   UNL     1     -11.011  14.176  67.424  1.00  0.00    -0.299 C  
HETATM    9  H   UNL     1      -9.619  15.671  67.241  1.00  0.00     0.000 HD 
HETATM   10  N   UNL     1      -8.800  12.560  67.176  1.00  0.00    -0.196 N  
HETATM   11  O   UNL     1      -9.446  11.175  68.817  1.00  0.00    -0.191 OA 
HETATM   12  O   UNL     1      -7.528  14.386  66.838  1.00  0.00     0.078 OA 
HETATM   13  N   UNL     1      -9.740  14.659  67.241  1.00  0.00    -0.228 N  
HETATM   14  C   UNL     1      -8.633  13.897  67.060  1.00  0.00    -0.172 C  
HETATM   15  H   UNL     1      -8.241  11.914  66.617  1.00  0.00     0.000 HD 
BRANCH   5  16
HETATM   16  C   UNL     1     -11.911  12.666  69.271  1.00  0.00    -0.358 A  
HETATM   17  C   UNL     1     -12.796  11.384  71.147  1.00  0.00    -0.440 A  
HETATM   18  C   UNL     1     -12.350  11.449  69.825  1.00  0.00    -0.250 A  
HETATM   19  C   UNL     1     -12.103  13.831  70.033  1.00  0.00    -0.416 A  
HETATM   20  C   UNL     1     -12.845  12.535  71.926  1.00  0.00    -0.311 A  
HETATM   21  C   UNL     1     -12.530  13.764  71.358  1.00  0.00    -0.404 A  
ENDBRANCH   5  16
ENDBRANCH   2   5
BRANCH   4  22
HETATM   22  C   UNL     2      -8.729   9.986  65.932  1.00  0.00    -0.140 A  
HETATM   23  C   UNL     2      -7.497  10.585  66.097  1.00  0.00    -0.136 A  
HETATM   24  C   UNL     2      -8.213   8.364  67.716  1.00  0.00    -0.126 A  
HETATM   25  C   UNL     2      -7.529   6.833  69.461  1.00  0.00    -0.093 A  
HETATM   26  C   UNL     2      -6.623  10.078  67.063  1.00  0.00    -0.070 A  
HETATM   27  C   UNL     2      -6.319   7.505  69.500  1.00  0.00    -0.032 A  
HETATM   28  C   UNL     2      -9.096   8.946  66.780  1.00  0.00    -0.177 A  
HETATM   29  C   UNL     2      -8.516   7.235  68.547  1.00  0.00    -0.125 A  
HETATM   30  C   UNL     2      -6.937   8.968  67.842  1.00  0.00    -0.078 A  
HETATM   31  N   UNL     2      -6.009   8.545  68.706  1.00  0.00    -0.043 NA 
BRANCH  29  32
HETATM   32  C   UNL     2      -9.888   6.532  68.553  1.00  0.00    -0.138 C  
HETATM   33  H   UNL     2     -10.589   4.676  68.550  1.00  0.00     0.000 HD 
HETATM   34  O   UNL     2      -9.744   5.110  68.547  1.00  0.00    -0.133 OA 
BRANCH  32  35
HETATM   35  C   UNL     2     -10.867   6.884  69.733  1.00  0.00    -0.259 C  
HETATM   36  C   UNL     2     -10.680   8.448  71.709  1.00  0.00    -0.355 C  
HETATM   37  C   UNL     2     -11.926   7.726  72.251  1.00  0.00    -0.356 C  
HETATM   38  C   UNL     2     -11.892   6.249  71.830  1.00  0.00    -0.286 C  
HETATM   39  C   UNL     2     -10.750   8.366  70.173  1.00  0.00    -0.238 C  
HETATM   40  N   UNL     2     -10.753   5.971  70.923  1.00  0.00    -0.253 NA 
HETATM   41  C   UNL     2      -9.513   6.223  71.705  1.00  0.00    -0.150 C  
HETATM   42  C   UNL     2      -9.392   7.705  72.146  1.00  0.00    -0.188 C  
BRANCH  42  43
HETATM   43  C   UNL     2      -9.139   7.822  73.632  1.00  0.00    -0.345 C  
HETATM   44  C   UNL     2      -7.924   7.906  74.191  1.00  0.00    -0.276 C  
ENDBRANCH  42  43
ENDBRANCH  32  35
ENDBRANCH  29  32
ENDBRANCH   4  22
TORSDOF 6
ENDMDL
MODEL      111
REMARK 921   NORMALIZED FREE ENERGY PREDICTED BY IDOCK:   -4.19 KCAL/MOL
REMARK 922        TOTAL FREE ENERGY PREDICTED BY IDOCK:   -8.74 KCAL/MOL
REMARK 923 INTER-LIGAND FREE ENERGY PREDICTED BY IDOCK:   -7.82 KCAL/MOL
REMARK 924 INTRA-LIGAND FREE ENERGY PREDICTED BY IDOCK:   -0.92 KCAL/MOL
REMARK 927      BINDING AFFINITY PREDICTED BY RF-SCORE:    0.00 PKD
ROOT
HETATM    1  C   UNL     1     -12.138  11.203  68.874  1.00  0.00    -0.276 C  
HETATM    2  C   UNL     1     -10.712  11.703  68.653  1.00  0.00    -0.246 C  
HETATM    3  C   UNL     2     -11.657   8.399  70.858  1.00  0.00    -0.262 C  
HETATM    4  O   UNL     2     -10.580   9.307  70.697  1.00  0.00    -0.220 OA 
ENDROOT
BRANCH   2   5
HETATM    5  C   UNL     1     -10.029  11.329  67.294  1.00  0.00    -0.208 C  
HETATM    6  O   UNL     1     -10.562   8.921  67.284  1.00  0.00    -0.283 OA 
HETATM    7  C   UNL     1      -8.718  12.133  67.321  1.00  0.00    -0.182 C  
HETATM    8  C   UNL     1      -9.709   9.813  67.289  1.00  0.00    -0.169 C  
HETATM    9  H   UNL     1      -8.157   8.530  66.898  1.00  0.00     0.000 HD 
HETATM   10  N   UNL     1      -7.667  11.530  67.954  1.00  0.00    -0.114 N  
HETATM   11  O   UNL     1      -8.596  13.277  66.898  1.00  0.00    -0.191 OA 
HETATM   12  O   UNL     1      -6.186   9.872  67.606  1.00  0.00    -0.057 OA 
HETATM   13  N   UNL     1      -8.384   9.463  67.241  1.00  0.00    -0.124 N  
HETATM   14  C   UNL     1      -7.352  10.260  67.612  1.00  0.00    -0.088 C  
HETATM   15  H   UNL     1      -7.134  12.025  68.669  1.00  0.00     0.000 HD 
BRANCH   5  16
HETATM   16  C   UNL     1     -10.920  11.711  66.093  1.00  0.00    -0.339 A  
HETATM   17  C   UNL     1     -12.548  13.209  65.066  1.00  0.00    -0.499 A  
HETATM   18  C   UNL     1     -11.942  12.672  66.205  1.00  0.00    -0.458 A  
HETATM   19  C   UNL     1     -10.658  11.189  64.814  1.00  0.00    -0.371 A  
HETATM   20  C   UNL     1     -12.169  12.773  63.801  1.00  0.00    -0.572 A  
HETATM   21  C   UNL     1     -11.248  11.739  63.677  1.00  0.00    -0.519 A  
ENDBRANCH   5  16
ENDBRANCH   2   5
BRANCH   4  22
HETATM   22  C   UNL     2      -9.348   8.765  70.495  1.00  0.00    -0.187 A  
HETATM   23  C   UNL     2      -8.132   9.361  70.760  1.00  0.00    -0.157 A  
HETATM   24  C   UNL     2      -8.212   6.720  69.716  1.00  0.00    -0.127 A  
HETATM   25  C   UNL     2      -6.936   4.811  68.954  1.00  0.00    -0.052 A  
HETATM   26  C   UNL     2      -6.960   8.645  70.501  1.00  0.00    -0.043 A  
HETATM   27  C   UNL     2      -5.789   5.535  69.233  1.00  0.00    -0.016 A  
HETATM   28  C   UNL     2      -9.376   7.447  70.054  1.00  0.00    -0.151 A  
HETATM   29  C   UNL     2      -8.195   5.393  69.173  1.00  0.00    -0.093 A  
HETATM   30  C   UNL     2      -6.973   7.365  69.955  1.00  0.00    -0.060 A  
HETATM   31  N   UNL     2      -5.791   6.791  69.712  1.00  0.00    -0.018 NA 
BRANCH  29  32
HETATM   32  C   UNL     2      -9.470   4.561  68.929  1.00  0.00    -0.160 C  
HETATM   33  H   UNL     2     -11.424   4.750  69.207  1.00  0.00     0.000 HD 
HETATM   34  O   UNL     2     -10.639   5.262  69.358  1.00  0.00    -0.252 OA 
BRANCH  32  35
HETATM   35  C   UNL     2      -9.741   4.088  67.453  1.00  0.00    -0.141 C  
HETATM   36  C   UNL     2      -8.319   4.079  65.364  1.00  0.00    -0.109 C  
HETATM   37  C   UNL     2      -9.628   3.779  64.613  1.00  0.00    -0.173 C  
HETATM   38  C   UNL     2     -10.800   4.484  65.315  1.00  0.00    -0.057 C  
HETATM   39  C   UNL     2      -8.474   3.497  66.781  1.00  0.00    -0.107 C  
HETATM   40  N   UNL     2     -10.365   5.136  66.573  1.00  0.00    -0.267 NA 
HETATM   41  C   UNL     2      -9.393   6.195  66.190  1.00  0.00    -0.102 C  
HETATM   42  C   UNL     2      -8.124   5.609  65.519  1.00  0.00    -0.123 C  
BRANCH  42  43
HETATM   43  C   UNL     2      -7.832   6.286  64.199  1.00  0.00    -0.117 C  
HETATM   44  C   UNL     2      -7.895   7.609  63.994  1.00  0.00    -0.127 C  
ENDBRANCH  42  43
ENDBRANCH  32  35
ENDBRANCH  29  32
ENDBRANCH   4  22
TORSDOF 6
ENDMDL
MODEL      112
REMARK 921   NORMALIZED FREE ENERGY PREDICTED BY IDOCK:   -4.18 KCAL/MOL
REMARK 922        TOTAL FREE ENERGY PREDICTED BY IDOCK:   -8.72 KCAL/MOL
REMARK 923 INTER-LIGAND FREE ENERGY PREDICTED BY IDOCK:   -8.42 KCAL/MOL
REMARK 924 INTRA-LIGAND FREE ENERGY PREDICTED BY IDOCK:   -0.30 KCAL/MOL
REMARK 927      BINDING AFFINITY PREDICTED BY RF-SCORE:    0.00 PKD
ROOT
HETATM    1  C   UNL     1      -9.824   9.270  70.440  1.00  0.00    -0.290 C  
HETATM    2  C   UNL     1      -9.641   8.896  68.972  1.00  0.00    -0.158 C  
HETATM    3  C   UNL     2     -11.828  12.095  70.255  1.00  0.00    -0.254 C  
HETATM    4  O   UNL     2     -11.693  11.284  69.100  1.00  0.00    -0.283 OA 
ENDROOT
BRANCH   2   5
HETATM    5  C   UNL     1      -8.301   9.333  68.287  1.00  0.00    -0.120 C  
HETATM    6  O   UNL     1      -7.090   7.195  68.490  1.00  0.00    -0.076 OA 
HETATM    7  C   UNL     1      -8.067  10.751  68.837  1.00  0.00    -0.145 C  
HETATM    8  C   UNL     1      -7.162   8.397  68.761  1.00  0.00    -0.079 C  
HETATM    9  H   UNL     1      -5.258   8.488  69.520  1.00  0.00     0.000 HD 
HETATM   10  N   UNL     1      -7.415  10.819  70.037  1.00  0.00    -0.323 N  
HETATM   11  O   UNL     1      -8.495  11.776  68.320  1.00  0.00    -0.150 OA 
HETATM   12  O   UNL     1      -5.339  10.576  70.869  1.00  0.00    -0.074 OA 
HETATM   13  N   UNL     1      -6.155   8.973  69.492  1.00  0.00    -0.036 N  
HETATM   14  C   UNL     1      -6.256  10.137  70.179  1.00  0.00    -0.090 C  
HETATM   15  H   UNL     1      -7.794  11.372  70.806  1.00  0.00     0.000 HD 
BRANCH   5  16
HETATM   16  C   UNL     1      -8.426   9.320  66.749  1.00  0.00    -0.129 A  
HETATM   17  C   UNL     1      -9.775   8.992  64.744  1.00  0.00     0.670 A  
HETATM   18  C   UNL     1      -9.538   8.752  66.100  1.00  0.00    -0.323 A  
HETATM   19  C   UNL     1      -7.478   9.984  65.950  1.00  0.00    -0.115 A  
HETATM   20  C   UNL     1      -8.890   9.772  64.006  1.00  0.00    -0.258 A  
HETATM   21  C   UNL     1      -7.725  10.239  64.601  1.00  0.00    -0.114 A  
ENDBRANCH   5  16
ENDBRANCH   2   5
BRANCH   4  22
HETATM   22  C   UNL     2     -11.526  11.930  67.915  1.00  0.00    -0.316 A  
HETATM   23  C   UNL     2     -11.512  11.360  66.659  1.00  0.00    -0.124 A  
HETATM   24  C   UNL     2     -11.205  14.170  66.934  1.00  0.00    -0.326 A  
HETATM   25  C   UNL     2     -10.851  16.282  65.808  1.00  0.00    -0.173 A  
HETATM   26  C   UNL     2     -11.341  12.185  65.544  1.00  0.00    -0.393 A  
HETATM   27  C   UNL     2     -10.824  15.579  64.616  1.00  0.00    -0.254 A  
HETATM   28  C   UNL     2     -11.448  13.314  68.032  1.00  0.00    -0.344 A  
HETATM   29  C   UNL     2     -11.027  15.590  67.017  1.00  0.00    -0.283 A  
HETATM   30  C   UNL     2     -11.151  13.559  65.657  1.00  0.00    -0.289 A  
HETATM   31  N   UNL     2     -10.957  14.245  64.526  1.00  0.00    -0.346 NA 
BRANCH  29  32
HETATM   32  C   UNL     2     -11.128  16.381  68.337  1.00  0.00    -0.351 C  
HETATM   33  H   UNL     2     -11.735  16.063  70.199  1.00  0.00     0.000 HD 
HETATM   34  O   UNL     2     -11.673  15.576  69.386  1.00  0.00    -0.323 OA 
BRANCH  32  35
HETATM   35  C   UNL     2      -9.799  17.012  68.895  1.00  0.00    -0.272 C  
HETATM   36  C   UNL     2      -8.314  18.887  68.075  1.00  0.00    -0.325 C  
HETATM   37  C   UNL     2      -7.292  18.371  69.103  1.00  0.00    -0.155 C  
HETATM   38  C   UNL     2      -7.409  16.844  69.228  1.00  0.00    -0.150 C  
HETATM   39  C   UNL     2      -9.711  18.536  68.621  1.00  0.00    -0.398 C  
HETATM   40  N   UNL     2      -8.545  16.321  68.433  1.00  0.00    -0.192 NA 
HETATM   41  C   UNL     2      -8.238  16.614  67.007  1.00  0.00    -0.191 C  
HETATM   42  C   UNL     2      -8.150  18.137  66.729  1.00  0.00    -0.266 C  
BRANCH  42  43
HETATM   43  C   UNL     2      -6.863  18.498  66.024  1.00  0.00    -0.303 C  
HETATM   44  C   UNL     2      -6.579  19.713  65.537  1.00  0.00    -0.297 C  
ENDBRANCH  42  43
ENDBRANCH  32  35
ENDBRANCH  29  32
ENDBRANCH   4  22
TORSDOF 6
ENDMDL
MODEL      113
REMARK 921   NORMALIZED FREE ENERGY PREDICTED BY IDOCK:   -4.16 KCAL/MOL
REMARK 922        TOTAL FREE ENERGY PREDICTED BY IDOCK:   -8.70 KCAL/MOL
REMARK 923 INTER-LIGAND FREE ENERGY PREDICTED BY IDOCK:   -5.95 KCAL/MOL
REMARK 924 INTRA-LIGAND FREE ENERGY PREDICTED BY IDOCK:   -2.75 KCAL/MOL
REMARK 927      BINDING AFFINITY PREDICTED BY RF-SCORE:    0.00 PKD
ROOT
HETATM    1  C   UNL     1      -9.990   4.307  66.059  1.00  0.00    -0.234 C  
HETATM    2  C   UNL     1      -9.515   5.440  66.966  1.00  0.00    -0.133 C  
HETATM    3  C   UNL     2      -9.532   1.504  68.051  1.00  0.00    -0.143 C  
HETATM    4  O   UNL     2      -9.485   2.783  68.661  1.00  0.00    -0.187 OA 
ENDROOT
BRANCH   2   5
HETATM    5  C   UNL     1      -8.064   5.980  66.730  1.00  0.00    -0.105 C  
HETATM    6  O   UNL     1      -8.628   8.356  66.383  1.00  0.00    -0.116 OA 
HETATM    7  C   UNL     1      -7.419   4.895  65.851  1.00  0.00    -0.082 C  
HETATM    8  C   UNL     1      -8.143   7.311  65.940  1.00  0.00    -0.125 C  
HETATM    9  H   UNL     1      -7.322   8.219  64.294  1.00  0.00     0.000 HD 
HETATM   10  N   UNL     1      -7.628   5.022  64.506  1.00  0.00    -0.075 N  
HETATM   11  O   UNL     1      -6.824   3.914  66.282  1.00  0.00    -0.055 OA 
HETATM   12  O   UNL     1      -6.929   6.286  62.780  1.00  0.00    -0.040 OA 
HETATM   13  N   UNL     1      -7.590   7.316  64.685  1.00  0.00    -0.098 N  
HETATM   14  C   UNL     1      -7.371   6.216  63.924  1.00  0.00    -0.067 C  
HETATM   15  H   UNL     1      -7.971   4.236  63.954  1.00  0.00     0.000 HD 
BRANCH   5  16
HETATM   16  C   UNL     1      -7.312   6.171  68.064  1.00  0.00    -0.088 A  
HETATM   17  C   UNL     1      -5.258   6.014  69.369  1.00  0.00    -0.004 A  
HETATM   18  C   UNL     1      -6.041   5.609  68.285  1.00  0.00    -0.021 A  
HETATM   19  C   UNL     1      -7.830   7.014  69.062  1.00  0.00    -0.115 A  
HETATM   20  C   UNL     1      -5.742   6.958  70.268  1.00  0.00    -0.023 A  
HETATM   21  C   UNL     1      -7.042   7.433  70.133  1.00  0.00    -0.064 A  
ENDBRANCH   5  16
ENDBRANCH   2   5
BRANCH   4  22
HETATM   22  C   UNL     2      -8.503   2.986  69.580  1.00  0.00    -0.061 A  
HETATM   23  C   UNL     2      -7.237   2.435  69.570  1.00  0.00    -0.043 A  
HETATM   24  C   UNL     2      -7.984   4.217  71.652  1.00  0.00    -0.086 A  
HETATM   25  C   UNL     2      -7.318   5.321  73.700  1.00  0.00    -0.091 A  
HETATM   26  C   UNL     2      -6.349   2.768  70.596  1.00  0.00    -0.024 A  
HETATM   27  C   UNL     2      -6.098   4.675  73.587  1.00  0.00    -0.029 A  
HETATM   28  C   UNL     2      -8.831   3.913  70.564  1.00  0.00    -0.136 A  
HETATM   29  C   UNL     2      -8.314   5.096  72.736  1.00  0.00    -0.113 A  
HETATM   30  C   UNL     2      -6.704   3.609  71.646  1.00  0.00    -0.026 A  
HETATM   31  N   UNL     2      -5.786   3.825  72.594  1.00  0.00    -0.008 NA 
BRANCH  29  32
HETATM   32  C   UNL     2      -9.645   5.868  72.825  1.00  0.00    -0.155 C  
HETATM   33  H   UNL     2     -10.629   6.955  74.161  1.00  0.00     0.000 HD 
HETATM   34  O   UNL     2      -9.808   6.479  74.107  1.00  0.00    -0.232 OA 
BRANCH  32  35
HETATM   35  C   UNL     2      -9.892   6.992  71.752  1.00  0.00    -0.162 C  
HETATM   36  C   UNL     2     -10.964   9.278  71.876  1.00  0.00    -0.284 C  
HETATM   37  C   UNL     2     -10.949   9.241  70.338  1.00  0.00    -0.302 C  
HETATM   38  C   UNL     2     -11.155   7.798  69.853  1.00  0.00    -0.136 C  
HETATM   39  C   UNL     2      -9.780   8.417  72.355  1.00  0.00    -0.376 C  
HETATM   40  N   UNL     2     -11.179   6.844  70.987  1.00  0.00    -0.267 NA 
HETATM   41  C   UNL     2     -12.365   7.193  71.814  1.00  0.00    -0.350 C  
HETATM   42  C   UNL     2     -12.257   8.617  72.419  1.00  0.00    -0.419 C  
BRANCH  42  43
HETATM   43  C   UNL     2     -13.489   9.440  72.124  1.00  0.00    -0.543 C  
HETATM   44  C   UNL     2     -13.481  10.756  71.875  1.00  0.00    -0.327 C  
ENDBRANCH  42  43
ENDBRANCH  32  35
ENDBRANCH  29  32
ENDBRANCH   4  22
TORSDOF 6
ENDMDL
MODEL      114
REMARK 921   NORMALIZED FREE ENERGY PREDICTED BY IDOCK:   -4.16 KCAL/MOL
REMARK 922        TOTAL FREE ENERGY PREDICTED BY IDOCK:   -8.69 KCAL/MOL
REMARK 923 INTER-LIGAND FREE ENERGY PREDICTED BY IDOCK:   -8.24 KCAL/MOL
REMARK 924 INTRA-LIGAND FREE ENERGY PREDICTED BY IDOCK:   -0.45 KCAL/MOL
REMARK 927      BINDING AFFINITY PREDICTED BY RF-SCORE:    0.00 PKD
ROOT
HETATM    1  C   UNL     1     -10.853  15.064  64.913  1.00  0.00    -0.430 C  
HETATM    2  C   UNL     1     -11.300  15.518  66.301  1.00  0.00    -0.004 C  
HETATM    3  C   UNL     2     -11.186  11.617  65.102  1.00  0.00    -0.197 C  
HETATM    4  O   UNL     2     -11.797  12.412  66.105  1.00  0.00    -0.459 OA 
ENDROOT
BRANCH   2   5
HETATM    5  C   UNL     1     -10.173  15.849  67.339  1.00  0.00    -0.270 C  
HETATM    6  O   UNL     1     -11.487  15.518  69.399  1.00  0.00    -0.290 OA 
HETATM    7  C   UNL     1      -9.455  17.055  66.711  1.00  0.00    -0.258 C  
HETATM    8  C   UNL     1     -10.829  16.272  68.677  1.00  0.00    -0.322 C  
HETATM    9  H   UNL     1     -10.723  17.761  70.083  1.00  0.00     0.000 HD 
HETATM   10  N   UNL     1      -9.999  18.278  66.990  1.00  0.00    -0.325 N  
HETATM   11  O   UNL     1      -8.511  16.975  65.934  1.00  0.00    -0.519 OA 
HETATM   12  O   UNL     1     -10.131  19.739  68.697  1.00  0.00    -0.438 OA 
HETATM   13  N   UNL     1     -10.609  17.561  69.090  1.00  0.00    -0.219 N  
HETATM   14  C   UNL     1     -10.253  18.590  68.282  1.00  0.00    -0.376 C  
HETATM   15  H   UNL     1     -10.208  18.940  66.243  1.00  0.00     0.000 HD 
BRANCH   5  16
HETATM   16  C   UNL     1      -9.225  14.648  67.540  1.00  0.00    -0.192 A  
HETATM   17  C   UNL     1      -8.068  13.099  69.026  1.00  0.00     0.323 A  
HETATM   18  C   UNL     1      -8.688  14.330  68.801  1.00  0.00    -0.096 A  
HETATM   19  C   UNL     1      -8.959  13.762  66.481  1.00  0.00    -0.080 A  
HETATM   20  C   UNL     1      -7.943  12.179  67.990  1.00  0.00    -0.152 A  
HETATM   21  C   UNL     1      -8.358  12.525  66.710  1.00  0.00    -0.034 A  
ENDBRANCH   5  16
ENDBRANCH   2   5
BRANCH   4  22
HETATM   22  C   UNL     2     -11.680  11.974  67.387  1.00  0.00    -0.281 A  
HETATM   23  C   UNL     2     -11.992  12.680  68.532  1.00  0.00    -0.258 A  
HETATM   24  C   UNL     2     -11.029  10.016  68.737  1.00  0.00    -0.242 A  
HETATM   25  C   UNL     2     -10.398   8.206  70.213  1.00  0.00    -0.209 A  
HETATM   26  C   UNL     2     -11.820  12.063  69.773  1.00  0.00    -0.401 A  
HETATM   27  C   UNL     2     -10.715   9.034  71.276  1.00  0.00    -0.309 A  
HETATM   28  C   UNL     2     -11.280  10.647  67.498  1.00  0.00    -0.326 A  
HETATM   29  C   UNL     2     -10.530   8.682  68.899  1.00  0.00    -0.211 A  
HETATM   30  C   UNL     2     -11.315  10.773  69.901  1.00  0.00    -0.311 A  
HETATM   31  N   UNL     2     -11.155  10.298  71.140  1.00  0.00    -0.097 NA 
BRANCH  29  32
HETATM   32  C   UNL     2     -10.243   7.736  67.716  1.00  0.00    -0.212 C  
HETATM   33  H   UNL     2     -10.335   7.788  65.735  1.00  0.00     0.000 HD 
HETATM   34  O   UNL     2     -10.512   8.371  66.464  1.00  0.00    -0.249 OA 
BRANCH  32  35
HETATM   35  C   UNL     2      -8.792   7.136  67.617  1.00  0.00    -0.119 C  
HETATM   36  C   UNL     2      -6.493   8.153  67.880  1.00  0.00    -0.053 C  
HETATM   37  C   UNL     2      -5.969   6.843  67.265  1.00  0.00    -0.017 C  
HETATM   38  C   UNL     2      -6.982   6.313  66.238  1.00  0.00    -0.066 C  
HETATM   39  C   UNL     2      -7.806   7.810  68.607  1.00  0.00    -0.120 C  
HETATM   40  N   UNL     2      -8.219   7.130  66.226  1.00  0.00    -0.117 NA 
HETATM   41  C   UNL     2      -7.825   8.493  65.778  1.00  0.00    -0.100 C  
HETATM   42  C   UNL     2      -6.841   9.171  66.765  1.00  0.00    -0.080 C  
BRANCH  42  43
HETATM   43  C   UNL     2      -5.610   9.687  66.055  1.00  0.00    -0.048 C  
HETATM   44  C   UNL     2      -5.544  10.855  65.402  1.00  0.00    -0.072 C  
ENDBRANCH  42  43
ENDBRANCH  32  35
ENDBRANCH  29  32
ENDBRANCH   4  22
TORSDOF 6
ENDMDL
MODEL      115
REMARK 921   NORMALIZED FREE ENERGY PREDICTED BY IDOCK:   -4.15 KCAL/MOL
REMARK 922        TOTAL FREE ENERGY PREDICTED BY IDOCK:   -8.68 KCAL/MOL
REMARK 923 INTER-LIGAND FREE ENERGY PREDICTED BY IDOCK:   -8.02 KCAL/MOL
REMARK 924 INTRA-LIGAND FREE ENERGY PREDICTED BY IDOCK:   -0.67 KCAL/MOL
REMARK 927      BINDING AFFINITY PREDICTED BY RF-SCORE:    0.00 PKD
ROOT
HETATM    1  C   UNL     1     -10.495  16.652  65.069  1.00  0.00     0.002 C  
HETATM    2  C   UNL     1     -10.841  16.920  66.532  1.00  0.00     0.032 C  
HETATM    3  C   UNL     2     -11.389  13.324  64.680  1.00  0.00    -0.346 C  
HETATM    4  O   UNL     2     -11.847  14.018  65.829  1.00  0.00    -0.353 OA 
ENDROOT
BRANCH   2   5
HETATM    5  C   UNL     1      -9.662  16.880  67.562  1.00  0.00    -0.249 C  
HETATM    6  O   UNL     1      -8.855  14.600  67.081  1.00  0.00    -0.197 OA 
HETATM    7  C   UNL     1     -10.253  17.564  68.807  1.00  0.00    -0.373 C  
HETATM    8  C   UNL     1      -9.328  15.403  67.889  1.00  0.00    -0.192 C  
HETATM    9  H   UNL     1      -9.025  14.175  69.504  1.00  0.00     0.000 HD 
HETATM   10  N   UNL     1     -10.951  16.749  69.654  1.00  0.00    -0.372 N  
HETATM   11  O   UNL     1     -10.207  18.769  69.026  1.00  0.00    -0.343 OA 
HETATM   12  O   UNL     1     -10.567  15.153  71.193  1.00  0.00    -0.071 OA 
HETATM   13  N   UNL     1      -9.537  14.996  69.182  1.00  0.00    -0.214 N  
HETATM   14  C   UNL     1     -10.371  15.599  70.065  1.00  0.00    -0.298 C  
HETATM   15  H   UNL     1     -11.889  17.001  69.968  1.00  0.00     0.000 HD 
BRANCH   5  16
HETATM   16  C   UNL     1      -8.421  17.624  67.025  1.00  0.00    -0.252 A  
HETATM   17  C   UNL     1      -6.091  17.595  66.304  1.00  0.00    -0.261 A  
HETATM   18  C   UNL     1      -7.142  17.037  67.037  1.00  0.00    -0.228 A  
HETATM   19  C   UNL     1      -8.554  18.875  66.398  1.00  0.00    -0.301 A  
HETATM   20  C   UNL     1      -6.290  18.763  65.576  1.00  0.00    -0.313 A  
HETATM   21  C   UNL     1      -7.512  19.421  65.651  1.00  0.00    -0.167 A  
ENDBRANCH   5  16
ENDBRANCH   2   5
BRANCH   4  22
HETATM   22  C   UNL     2     -11.786  13.349  67.011  1.00  0.00    -0.394 A  
HETATM   23  C   UNL     2     -12.376  13.723  68.202  1.00  0.00     0.017 A  
HETATM   24  C   UNL     2     -10.881  11.312  68.065  1.00  0.00    -0.266 A  
HETATM   25  C   UNL     2     -10.043   9.385  69.266  1.00  0.00    -0.200 A  
HETATM   26  C   UNL     2     -12.219  12.901  69.321  1.00  0.00    -0.115 A  
HETATM   27  C   UNL     2     -10.657   9.892  70.399  1.00  0.00    -0.302 A  
HETATM   28  C   UNL     2     -11.119  12.131  66.939  1.00  0.00    -0.348 A  
HETATM   29  C   UNL     2     -10.123  10.095  68.057  1.00  0.00    -0.186 A  
HETATM   30  C   UNL     2     -11.460  11.734  69.288  1.00  0.00    -0.306 A  
HETATM   31  N   UNL     2     -11.344  11.047  70.428  1.00  0.00    -0.229 NA 
BRANCH  29  32
HETATM   32  C   UNL     2      -9.499   9.495  66.781  1.00  0.00    -0.167 C  
HETATM   33  H   UNL     2     -10.001   9.236  64.880  1.00  0.00     0.000 HD 
HETATM   34  O   UNL     2     -10.385   9.606  65.665  1.00  0.00    -0.173 OA 
BRANCH  32  35
HETATM   35  C   UNL     2      -8.113  10.081  66.320  1.00  0.00    -0.117 C  
HETATM   36  C   UNL     2      -6.716   9.749  64.240  1.00  0.00    -0.120 C  
HETATM   37  C   UNL     2      -5.591  10.446  65.024  1.00  0.00    -0.141 C  
HETATM   38  C   UNL     2      -5.702  10.090  66.515  1.00  0.00    -0.054 C  
HETATM   39  C   UNL     2      -8.047  10.298  64.785  1.00  0.00    -0.151 C  
HETATM   40  N   UNL     2      -6.922   9.294  66.792  1.00  0.00    -0.081 NA 
HETATM   41  C   UNL     2      -6.770   8.011  66.054  1.00  0.00    -0.053 C  
HETATM   42  C   UNL     2      -6.704   8.224  64.519  1.00  0.00    -0.068 C  
BRANCH  42  43
HETATM   43  C   UNL     2      -5.499   7.540  63.916  1.00  0.00    -0.037 C  
HETATM   44  C   UNL     2      -5.549   6.678  62.891  1.00  0.00    -0.031 C  
ENDBRANCH  42  43
ENDBRANCH  32  35
ENDBRANCH  29  32
ENDBRANCH   4  22
TORSDOF 6
ENDMDL
MODEL      116
REMARK 921   NORMALIZED FREE ENERGY PREDICTED BY IDOCK:   -4.13 KCAL/MOL
REMARK 922        TOTAL FREE ENERGY PREDICTED BY IDOCK:   -8.66 KCAL/MOL
REMARK 923 INTER-LIGAND FREE ENERGY PREDICTED BY IDOCK:   -7.93 KCAL/MOL
REMARK 924 INTRA-LIGAND FREE ENERGY PREDICTED BY IDOCK:   -0.73 KCAL/MOL
REMARK 927      BINDING AFFINITY PREDICTED BY RF-SCORE:    0.00 PKD
ROOT
HETATM    1  C   UNL     1     -10.627   5.208  69.375  1.00  0.00    -0.104 C  
HETATM    2  C   UNL     1      -9.683   5.410  70.559  1.00  0.00    -0.246 C  
HETATM    3  C   UNL     2      -9.418   7.479  67.049  1.00  0.00    -0.162 C  
HETATM    4  O   UNL     2      -8.609   7.161  68.169  1.00  0.00    -0.128 OA 
ENDROOT
BRANCH   2   5
HETATM    5  C   UNL     1     -10.198   6.307  71.735  1.00  0.00    -0.224 C  
HETATM    6  O   UNL     1     -11.176   4.526  73.132  1.00  0.00    -0.262 OA 
HETATM    7  C   UNL     1     -10.774   7.540  71.016  1.00  0.00    -0.231 C  
HETATM    8  C   UNL     1     -11.334   5.561  72.480  1.00  0.00    -0.265 C  
HETATM    9  H   UNL     1     -13.241   5.875  73.166  1.00  0.00     0.000 HD 
HETATM   10  N   UNL     1     -12.072   7.429  70.602  1.00  0.00    -0.522 N  
HETATM   11  O   UNL     1     -10.129   8.542  70.730  1.00  0.00    -0.188 OA 
HETATM   12  O   UNL     1     -14.149   7.449  71.468  1.00  0.00    -0.422 OA 
HETATM   13  N   UNL     1     -12.579   6.133  72.435  1.00  0.00    -0.013 N  
HETATM   14  C   UNL     1     -13.000   7.015  71.495  1.00  0.00    -0.359 C  
HETATM   15  H   UNL     1     -12.335   7.654  69.642  1.00  0.00     0.000 HD 
BRANCH   5  16
HETATM   16  C   UNL     1      -9.053   6.680  72.700  1.00  0.00    -0.140 A  
HETATM   17  C   UNL     1      -6.745   6.409  73.441  1.00  0.00    -0.074 A  
HETATM   18  C   UNL     1      -7.875   5.915  72.784  1.00  0.00    -0.104 A  
HETATM   19  C   UNL     1      -9.107   7.870  73.446  1.00  0.00    -0.347 A  
HETATM   20  C   UNL     1      -6.783   7.657  74.054  1.00  0.00    -0.100 A  
HETATM   21  C   UNL     1      -7.974   8.372  74.086  1.00  0.00    -0.224 A  
ENDBRANCH   5  16
ENDBRANCH   2   5
BRANCH   4  22
HETATM   22  C   UNL     2      -7.972   8.199  68.777  1.00  0.00    -0.115 A  
HETATM   23  C   UNL     2      -7.283   8.158  69.971  1.00  0.00    -0.056 A  
HETATM   24  C   UNL     2      -7.436  10.591  68.515  1.00  0.00    -0.091 A  
HETATM   25  C   UNL     2      -6.849  12.937  68.436  1.00  0.00    -0.096 A  
HETATM   26  C   UNL     2      -6.675   9.325  70.441  1.00  0.00    -0.073 A  
HETATM   27  C   UNL     2      -6.220  12.765  69.658  1.00  0.00    -0.120 A  
HETATM   28  C   UNL     2      -7.978   9.377  68.038  1.00  0.00    -0.092 A  
HETATM   29  C   UNL     2      -7.497  11.849  67.830  1.00  0.00    -0.121 A  
HETATM   30  C   UNL     2      -6.768  10.538  69.764  1.00  0.00    -0.126 A  
HETATM   31  N   UNL     2      -6.182  11.599  70.326  1.00  0.00    -0.213 NA 
BRANCH  29  32
HETATM   32  C   UNL     2      -8.136  12.025  66.438  1.00  0.00     0.154 C  
HETATM   33  H   UNL     2      -8.506  10.913  64.838  1.00  0.00     0.000 HD 
HETATM   34  O   UNL     2      -8.112  10.804  65.695  1.00  0.00    -0.161 OA 
BRANCH  32  35
HETATM   35  C   UNL     2      -9.617  12.554  66.393  1.00  0.00    -0.247 C  
HETATM   36  C   UNL     2     -10.727  14.629  67.315  1.00  0.00    -0.290 C  
HETATM   37  C   UNL     2     -12.055  13.919  67.000  1.00  0.00    -0.451 C  
HETATM   38  C   UNL     2     -11.892  12.404  67.201  1.00  0.00    -0.291 C  
HETATM   39  C   UNL     2      -9.689  14.101  66.309  1.00  0.00    -0.315 C  
HETATM   40  N   UNL     2     -10.488  12.047  67.511  1.00  0.00    -0.209 NA 
HETATM   41  C   UNL     2     -10.160  12.691  68.811  1.00  0.00    -0.044 C  
HETATM   42  C   UNL     2     -10.229  14.239  68.730  1.00  0.00    -0.226 C  
BRANCH  42  43
HETATM   43  C   UNL     2     -11.102  14.812  69.823  1.00  0.00    -0.288 C  
HETATM   44  C   UNL     2     -10.971  16.046  70.330  1.00  0.00    -0.347 C  
ENDBRANCH  42  43
ENDBRANCH  32  35
ENDBRANCH  29  32
ENDBRANCH   4  22
TORSDOF 6
ENDMDL
MODEL      117
REMARK 921   NORMALIZED FREE ENERGY PREDICTED BY IDOCK:   -4.13 KCAL/MOL
REMARK 922        TOTAL FREE ENERGY PREDICTED BY IDOCK:   -8.65 KCAL/MOL
REMARK 923 INTER-LIGAND FREE ENERGY PREDICTED BY IDOCK:   -8.03 KCAL/MOL
REMARK 924 INTRA-LIGAND FREE ENERGY PREDICTED BY IDOCK:   -0.62 KCAL/MOL
REMARK 927      BINDING AFFINITY PREDICTED BY RF-SCORE:    0.00 PKD
ROOT
HETATM    1  C   UNL     1     -11.025  14.114  69.323  1.00  0.00    -0.252 C  
HETATM    2  C   UNL     1      -9.612  13.696  68.925  1.00  0.00     0.090 C  
HETATM    3  C   UNL     2     -12.556  11.073  69.984  1.00  0.00    -0.175 C  
HETATM    4  O   UNL     2     -11.142  11.110  69.876  1.00  0.00    -0.243 OA 
ENDROOT
BRANCH   2   5
HETATM    5  C   UNL     1      -9.291  13.636  67.393  1.00  0.00    -0.227 C  
HETATM    6  O   UNL     1     -11.292  12.391  66.666  1.00  0.00    -0.299 OA 
HETATM    7  C   UNL     1      -7.781  13.347  67.357  1.00  0.00    -0.137 C  
HETATM    8  C   UNL     1     -10.063  12.450  66.762  1.00  0.00    -0.214 C  
HETATM    9  H   UNL     1      -9.745  10.834  65.540  1.00  0.00     0.000 HD 
HETATM   10  N   UNL     1      -7.429  12.028  67.428  1.00  0.00    -0.142 N  
HETATM   11  O   UNL     1      -6.908  14.208  67.355  1.00  0.00    -0.213 OA 
HETATM   12  O   UNL     1      -7.416  10.190  66.128  1.00  0.00    -0.104 OA 
HETATM   13  N   UNL     1      -9.308  11.431  66.240  1.00  0.00    -0.206 N  
HETATM   14  C   UNL     1      -8.025  11.156  66.583  1.00  0.00    -0.159 C  
HETATM   15  H   UNL     1      -6.734  11.708  68.102  1.00  0.00     0.000 HD 
BRANCH   5  16
HETATM   16  C   UNL     1      -9.646  14.965  66.693  1.00  0.00    -0.284 A  
HETATM   17  C   UNL     1     -10.697  16.162  64.847  1.00  0.00    -0.297 A  
HETATM   18  C   UNL     1     -10.120  15.002  65.369  1.00  0.00    -0.396 A  
HETATM   19  C   UNL     1      -9.613  16.177  67.403  1.00  0.00    -0.229 A  
HETATM   20  C   UNL     1     -10.779  17.313  65.624  1.00  0.00    -0.123 A  
HETATM   21  C   UNL     1     -10.206  17.330  66.890  1.00  0.00    -0.322 A  
ENDBRANCH   5  16
ENDBRANCH   2   5
BRANCH   4  22
HETATM   22  C   UNL     2     -10.556  10.100  69.178  1.00  0.00    -0.224 A  
HETATM   23  C   UNL     2     -11.033   9.509  68.026  1.00  0.00    -0.155 A  
HETATM   24  C   UNL     2      -8.569   8.642  69.141  1.00  0.00    -0.129 A  
HETATM   25  C   UNL     2      -6.704   7.109  68.970  1.00  0.00    -0.056 A  
HETATM   26  C   UNL     2     -10.286   8.487  67.433  1.00  0.00    -0.356 A  
HETATM   27  C   UNL     2      -7.310   6.583  67.842  1.00  0.00    -0.093 A  
HETATM   28  C   UNL     2      -9.314   9.717  69.673  1.00  0.00    -0.237 A  
HETATM   29  C   UNL     2      -7.329   8.153  69.671  1.00  0.00    -0.073 A  
HETATM   30  C   UNL     2      -9.096   8.020  67.982  1.00  0.00    -0.129 A  
HETATM   31  N   UNL     2      -8.487   7.010  67.352  1.00  0.00    -0.121 NA 
BRANCH  29  32
HETATM   32  C   UNL     2      -6.620   8.785  70.886  1.00  0.00    -0.055 C  
HETATM   33  H   UNL     2      -6.543  10.548  71.791  1.00  0.00     0.000 HD 
HETATM   34  O   UNL     2      -6.980  10.159  71.042  1.00  0.00    -0.320 OA 
BRANCH  32  35
HETATM   35  C   UNL     2      -6.845   8.095  72.282  1.00  0.00    -0.083 C  
HETATM   36  C   UNL     2      -8.175   6.070  73.001  1.00  0.00    -0.116 C  
HETATM   37  C   UNL     2      -7.948   6.575  74.437  1.00  0.00    -0.119 C  
HETATM   38  C   UNL     2      -7.922   8.111  74.448  1.00  0.00    -0.253 C  
HETATM   39  C   UNL     2      -6.978   6.554  72.163  1.00  0.00    -0.073 C  
HETATM   40  N   UNL     2      -7.991   8.663  73.074  1.00  0.00    -0.403 NA 
HETATM   41  C   UNL     2      -9.310   8.259  72.517  1.00  0.00    -0.280 C  
HETATM   42  C   UNL     2      -9.446   6.719  72.396  1.00  0.00    -0.153 C  
BRANCH  42  43
HETATM   43  C   UNL     2     -10.713   6.221  73.054  1.00  0.00    -0.278 C  
HETATM   44  C   UNL     2     -10.966   4.937  73.341  1.00  0.00    -0.394 C  
ENDBRANCH  42  43
ENDBRANCH  32  35
ENDBRANCH  29  32
ENDBRANCH   4  22
TORSDOF 6
ENDMDL
MODEL      118
REMARK 921   NORMALIZED FREE ENERGY PREDICTED BY IDOCK:   -4.09 KCAL/MOL
REMARK 922        TOTAL FREE ENERGY PREDICTED BY IDOCK:   -8.60 KCAL/MOL
REMARK 923 INTER-LIGAND FREE ENERGY PREDICTED BY IDOCK:   -6.94 KCAL/MOL
REMARK 924 INTRA-LIGAND FREE ENERGY PREDICTED BY IDOCK:   -1.65 KCAL/MOL
REMARK 927      BINDING AFFINITY PREDICTED BY RF-SCORE:    0.00 PKD
ROOT
HETATM    1  C   UNL     1      -6.547  11.391  66.721  1.00  0.00    -0.136 C  
HETATM    2  C   UNL     1      -6.804  10.310  65.674  1.00  0.00    -0.133 C  
HETATM    3  C   UNL     2      -5.126   9.595  69.326  1.00  0.00    -0.036 C  
HETATM    4  O   UNL     2      -5.224   8.978  68.053  1.00  0.00    -0.034 OA 
ENDROOT
BRANCH   2   5
HETATM    5  C   UNL     1      -8.263   9.747  65.575  1.00  0.00    -0.129 C  
HETATM    6  O   UNL     1      -8.625  10.134  63.167  1.00  0.00    -0.160 OA 
HETATM    7  C   UNL     1      -8.935  10.274  66.855  1.00  0.00    -0.136 C  
HETATM    8  C   UNL     1      -8.958  10.360  64.333  1.00  0.00    -0.223 C  
HETATM    9  H   UNL     1     -10.703  11.299  63.806  1.00  0.00     0.000 HD 
HETATM   10  N   UNL     1      -9.469  11.529  66.769  1.00  0.00    -0.185 N  
HETATM   11  O   UNL     1      -8.939   9.685  67.930  1.00  0.00    -0.120 OA 
HETATM   12  O   UNL     1     -11.252  12.569  65.873  1.00  0.00    -0.294 OA 
HETATM   13  N   UNL     1     -10.040  11.168  64.569  1.00  0.00    -0.282 N  
HETATM   14  C   UNL     1     -10.299  11.806  65.737  1.00  0.00    -0.253 C  
HETATM   15  H   UNL     1      -9.248  12.240  67.466  1.00  0.00     0.000 HD 
BRANCH   5  16
HETATM   16  C   UNL     1      -8.268   8.205  65.509  1.00  0.00    -0.144 A  
HETATM   17  C   UNL     1      -9.274   6.070  66.120  1.00  0.00    -0.154 A  
HETATM   18  C   UNL     1      -9.064   7.428  66.370  1.00  0.00    -0.196 A  
HETATM   19  C   UNL     1      -7.556   7.532  64.500  1.00  0.00    -0.110 A  
HETATM   20  C   UNL     1      -8.666   5.457  65.029  1.00  0.00    -0.116 A  
HETATM   21  C   UNL     1      -7.781   6.181  64.239  1.00  0.00    -0.106 A  
ENDBRANCH   5  16
ENDBRANCH   2   5
BRANCH   4  22
HETATM   22  C   UNL     2      -5.625   7.678  68.033  1.00  0.00    -0.031 A  
HETATM   23  C   UNL     2      -5.256   6.715  67.116  1.00  0.00    -0.009 A  
HETATM   24  C   UNL     2      -7.002   6.035  69.250  1.00  0.00    -0.064 A  
HETATM   25  C   UNL     2      -8.331   4.305  70.299  1.00  0.00    -0.081 A  
HETATM   26  C   UNL     2      -5.758   5.419  67.259  1.00  0.00    -0.013 A  
HETATM   27  C   UNL     2      -7.908   3.449  69.296  1.00  0.00    -0.050 A  
HETATM   28  C   UNL     2      -6.421   7.315  69.114  1.00  0.00    -0.036 A  
HETATM   29  C   UNL     2      -7.900   5.641  70.297  1.00  0.00    -0.098 A  
HETATM   30  C   UNL     2      -6.644   5.071  68.275  1.00  0.00    -0.049 A  
HETATM   31  N   UNL     2      -7.092   3.812  68.291  1.00  0.00    -0.051 NA 
BRANCH  29  32
HETATM   32  C   UNL     2      -8.315   6.575  71.452  1.00  0.00    -0.125 C  
HETATM   33  H   UNL     2      -7.429   7.715  72.812  1.00  0.00     0.000 HD 
HETATM   34  O   UNL     2      -7.173   7.141  72.100  1.00  0.00    -0.071 OA 
BRANCH  32  35
HETATM   35  C   UNL     2      -9.273   7.770  71.096  1.00  0.00    -0.146 C  
HETATM   36  C   UNL     2     -11.451   8.580  72.090  1.00  0.00    -0.446 C  
HETATM   37  C   UNL     2     -11.572   9.449  70.826  1.00  0.00    -0.364 C  
HETATM   38  C   UNL     2     -10.952   8.710  69.629  1.00  0.00    -0.091 C  
HETATM   39  C   UNL     2      -9.947   8.381  72.352  1.00  0.00    -0.380 C  
HETATM   40  N   UNL     2     -10.305   7.445  70.051  1.00  0.00    -0.214 NA 
HETATM   41  C   UNL     2     -11.384   6.571  70.583  1.00  0.00    -0.351 C  
HETATM   42  C   UNL     2     -12.060   7.177  71.840  1.00  0.00    -0.357 C  
BRANCH  42  43
HETATM   43  C   UNL     2     -13.563   7.222  71.694  1.00  0.00    -0.435 C  
HETATM   44  C   UNL     2     -14.287   8.348  71.631  1.00  0.00    -0.536 C  
ENDBRANCH  42  43
ENDBRANCH  32  35
ENDBRANCH  29  32
ENDBRANCH   4  22
TORSDOF 6
ENDMDL
MODEL      119
REMARK 921   NORMALIZED FREE ENERGY PREDICTED BY IDOCK:   -4.07 KCAL/MOL
REMARK 922        TOTAL FREE ENERGY PREDICTED BY IDOCK:   -8.57 KCAL/MOL
REMARK 923 INTER-LIGAND FREE ENERGY PREDICTED BY IDOCK:   -8.00 KCAL/MOL
REMARK 924 INTRA-LIGAND FREE ENERGY PREDICTED BY IDOCK:   -0.57 KCAL/MOL
REMARK 927      BINDING AFFINITY PREDICTED BY RF-SCORE:    0.00 PKD
ROOT
HETATM    1  C   UNL     1      -6.896   6.483  69.661  1.00  0.00    -0.065 C  
HETATM    2  C   UNL     1      -8.206   7.260  69.772  1.00  0.00    -0.130 C  
HETATM    3  C   UNL     2      -5.479   7.801  66.783  1.00  0.00    -0.028 C  
HETATM    4  O   UNL     2      -6.566   8.490  67.378  1.00  0.00    -0.057 OA 
ENDROOT
BRANCH   2   5
HETATM    5  C   UNL     1      -9.504   6.544  69.264  1.00  0.00    -0.141 C  
HETATM    6  O   UNL     1     -10.670   8.525  68.370  1.00  0.00    -0.151 OA 
HETATM    7  C   UNL     1      -9.814   5.535  70.382  1.00  0.00    -0.197 C  
HETATM    8  C   UNL     1     -10.649   7.583  69.167  1.00  0.00    -0.197 C  
HETATM    9  H   UNL     1     -12.604   7.832  69.734  1.00  0.00     0.000 HD 
HETATM   10  N   UNL     1     -10.553   6.018  71.426  1.00  0.00    -0.237 N  
HETATM   11  O   UNL     1      -9.378   4.391  70.427  1.00  0.00    -0.120 OA 
HETATM   12  O   UNL     1     -12.678   6.597  71.892  1.00  0.00    -0.345 OA 
HETATM   13  N   UNL     1     -11.722   7.396  70.001  1.00  0.00    -0.006 N  
HETATM   14  C   UNL     1     -11.701   6.679  71.151  1.00  0.00    -0.346 C  
HETATM   15  H   UNL     1     -10.247   5.884  72.390  1.00  0.00     0.000 HD 
BRANCH   5  16
HETATM   16  C   UNL     1      -9.267   5.851  67.905  1.00  0.00    -0.108 A  
HETATM   17  C   UNL     1      -7.890   4.447  66.464  1.00  0.00    -0.098 A  
HETATM   18  C   UNL     1      -8.017   5.306  67.558  1.00  0.00    -0.100 A  
HETATM   19  C   UNL     1     -10.335   5.641  67.015  1.00  0.00    -0.306 A  
HETATM   20  C   UNL     1      -8.997   4.144  65.679  1.00  0.00    -0.130 A  
HETATM   21  C   UNL     1     -10.212   4.768  65.935  1.00  0.00    -0.286 A  
ENDBRANCH   5  16
ENDBRANCH   2   5
BRANCH   4  22
HETATM   22  C   UNL     2      -7.518   8.973  66.536  1.00  0.00    -0.089 A  
HETATM   23  C   UNL     2      -8.095   8.306  65.474  1.00  0.00    -0.128 A  
HETATM   24  C   UNL     2      -8.915  10.955  66.089  1.00  0.00    -0.196 A  
HETATM   25  C   UNL     2     -10.333  12.821  65.487  1.00  0.00    -0.301 A  
HETATM   26  C   UNL     2      -9.074   8.958  64.719  1.00  0.00    -0.007 A  
HETATM   27  C   UNL     2     -10.804  12.053  64.435  1.00  0.00    -0.329 A  
HETATM   28  C   UNL     2      -7.979  10.242  66.871  1.00  0.00    -0.112 A  
HETATM   29  C   UNL     2      -9.352  12.297  66.343  1.00  0.00    -0.219 A  
HETATM   30  C   UNL     2      -9.465  10.268  64.978  1.00  0.00    -0.257 A  
HETATM   31  N   UNL     2     -10.381  10.805  64.166  1.00  0.00    -0.356 NA 
BRANCH  29  32
HETATM   32  C   UNL     2      -8.879  13.126  67.554  1.00  0.00    -0.199 C  
HETATM   33  H   UNL     2      -7.268  14.147  68.098  1.00  0.00     0.000 HD 
HETATM   34  O   UNL     2      -7.560  13.637  67.352  1.00  0.00    -0.167 OA 
BRANCH  32  35
HETATM   35  C   UNL     2      -9.777  14.346  67.979  1.00  0.00    -0.221 C  
HETATM   36  C   UNL     2      -9.686  16.814  67.440  1.00  0.00    -0.245 C  
HETATM   37  C   UNL     2     -10.706  16.983  68.579  1.00  0.00    -0.352 C  
HETATM   38  C   UNL     2     -10.434  15.941  69.675  1.00  0.00    -0.295 C  
HETATM   39  C   UNL     2      -9.901  15.407  66.853  1.00  0.00    -0.251 C  
HETATM   40  N   UNL     2      -9.366  14.996  69.271  1.00  0.00    -0.193 NA 
HETATM   41  C   UNL     2      -8.121  15.798  69.123  1.00  0.00    -0.237 C  
HETATM   42  C   UNL     2      -8.241  16.859  67.998  1.00  0.00    -0.203 C  
BRANCH  42  43
HETATM   43  C   UNL     2      -7.859  18.236  68.491  1.00  0.00    -0.313 C  
HETATM   44  C   UNL     2      -6.737  18.516  69.168  1.00  0.00    -0.280 C  
ENDBRANCH  42  43
ENDBRANCH  32  35
ENDBRANCH  29  32
ENDBRANCH   4  22
TORSDOF 6
ENDMDL
MODEL      120
REMARK 921   NORMALIZED FREE ENERGY PREDICTED BY IDOCK:   -4.06 KCAL/MOL
REMARK 922        TOTAL FREE ENERGY PREDICTED BY IDOCK:   -8.56 KCAL/MOL
REMARK 923 INTER-LIGAND FREE ENERGY PREDICTED BY IDOCK:   -7.93 KCAL/MOL
REMARK 924 INTRA-LIGAND FREE ENERGY PREDICTED BY IDOCK:   -0.64 KCAL/MOL
REMARK 927      BINDING AFFINITY PREDICTED BY RF-SCORE:    0.00 PKD
ROOT
HETATM    1  C   UNL     1      -9.415   9.981  64.144  1.00  0.00    -0.314 C  
HETATM    2  C   UNL     1      -9.896   9.823  65.585  1.00  0.00    -0.371 C  
HETATM    3  C   UNL     2      -6.195   8.699  64.279  1.00  0.00    -0.067 C  
HETATM    4  O   UNL     2      -7.072   8.443  65.364  1.00  0.00    -0.078 OA 
ENDROOT
BRANCH   2   5
HETATM    5  C   UNL     1      -9.838  11.094  66.499  1.00  0.00    -0.242 C  
HETATM    6  O   UNL     1      -7.477  11.694  66.115  1.00  0.00     0.103 OA 
HETATM    7  C   UNL     1     -10.647  10.677  67.739  1.00  0.00    -0.236 C  
HETATM    8  C   UNL     1      -8.366  11.359  66.903  1.00  0.00    -0.159 C  
HETATM    9  H   UNL     1      -7.232  11.738  68.569  1.00  0.00     0.000 HD 
HETATM   10  N   UNL     1      -9.946  10.014  68.707  1.00  0.00    -0.165 N  
HETATM   11  O   UNL     1     -11.857  10.826  67.861  1.00  0.00    -0.553 OA 
HETATM   12  O   UNL     1      -8.435  10.442  70.319  1.00  0.00     0.132 OA 
HETATM   13  N   UNL     1      -8.065  11.253  68.236  1.00  0.00    -0.130 N  
HETATM   14  C   UNL     1      -8.787  10.554  69.147  1.00  0.00    -0.151 C  
HETATM   15  H   UNL     1     -10.288   9.132  69.089  1.00  0.00     0.000 HD 
BRANCH   5  16
HETATM   16  C   UNL     1     -10.449  12.322  65.792  1.00  0.00    -0.287 A  
HETATM   17  C   UNL     1     -12.183  13.301  64.383  1.00  0.00    -0.449 A  
HETATM   18  C   UNL     1     -11.446  12.192  64.807  1.00  0.00    -0.377 A  
HETATM   19  C   UNL     1     -10.106  13.624  66.198  1.00  0.00    -0.311 A  
HETATM   20  C   UNL     1     -11.915  14.561  64.907  1.00  0.00    -0.425 A  
HETATM   21  C   UNL     1     -10.854  14.727  65.789  1.00  0.00    -0.334 A  
ENDBRANCH   5  16
ENDBRANCH   2   5
BRANCH   4  22
HETATM   22  C   UNL     2      -6.547   8.557  66.613  1.00  0.00    -0.060 A  
HETATM   23  C   UNL     2      -5.596   9.467  67.029  1.00  0.00    -0.040 A  
HETATM   24  C   UNL     2      -6.672   7.606  68.885  1.00  0.00    -0.050 A  
HETATM   25  C   UNL     2      -6.641   6.772  71.156  1.00  0.00    -0.053 A  
HETATM   26  C   UNL     2      -5.180   9.447  68.363  1.00  0.00    -0.034 A  
HETATM   27  C   UNL     2      -5.663   7.713  71.430  1.00  0.00    -0.035 A  
HETATM   28  C   UNL     2      -7.118   7.700  67.548  1.00  0.00    -0.086 A  
HETATM   29  C   UNL     2      -7.168   6.677  69.859  1.00  0.00    -0.080 A  
HETATM   30  C   UNL     2      -5.665   8.521  69.281  1.00  0.00    -0.035 A  
HETATM   31  N   UNL     2      -5.167   8.569  70.520  1.00  0.00    -0.022 NA 
BRANCH  29  32
HETATM   32  C   UNL     2      -8.306   5.677  69.572  1.00  0.00    -0.103 C  
HETATM   33  H   UNL     2      -8.492   3.775  69.039  1.00  0.00     0.000 HD 
HETATM   34  O   UNL     2      -7.791   4.391  69.216  1.00  0.00    -0.058 OA 
BRANCH  32  35
HETATM   35  C   UNL     2      -9.357   5.442  70.718  1.00  0.00    -0.159 C  
HETATM   36  C   UNL     2     -11.684   6.344  71.124  1.00  0.00    -0.359 C  
HETATM   37  C   UNL     2     -11.535   5.765  72.542  1.00  0.00    -0.349 C  
HETATM   38  C   UNL     2     -10.069   5.865  72.991  1.00  0.00    -0.181 C  
HETATM   39  C   UNL     2     -10.817   5.474  70.195  1.00  0.00    -0.299 C  
HETATM   40  N   UNL     2      -9.201   6.363  71.898  1.00  0.00    -0.149 NA 
HETATM   41  C   UNL     2      -9.652   7.747  71.591  1.00  0.00    -0.155 C  
HETATM   42  C   UNL     2     -11.111   7.783  71.066  1.00  0.00    -0.273 C  
BRANCH  42  43
HETATM   43  C   UNL     2     -11.955   8.768  71.842  1.00  0.00    -0.435 C  
HETATM   44  C   UNL     2     -12.353   9.959  71.376  1.00  0.00    -0.498 C  
ENDBRANCH  42  43
ENDBRANCH  32  35
ENDBRANCH  29  32
ENDBRANCH   4  22
TORSDOF 6
ENDMDL
MODEL      121
REMARK 921   NORMALIZED FREE ENERGY PREDICTED BY IDOCK:   -4.04 KCAL/MOL
REMARK 922        TOTAL FREE ENERGY PREDICTED BY IDOCK:   -8.54 KCAL/MOL
REMARK 923 INTER-LIGAND FREE ENERGY PREDICTED BY IDOCK:   -9.48 KCAL/MOL
REMARK 924 INTRA-LIGAND FREE ENERGY PREDICTED BY IDOCK:    0.95 KCAL/MOL
REMARK 927      BINDING AFFINITY PREDICTED BY RF-SCORE:    0.00 PKD
ROOT
HETATM    1  C   UNL     1     -10.308   9.670  70.007  1.00  0.00    -0.298 C  
HETATM    2  C   UNL     1     -10.351   9.337  68.518  1.00  0.00    -0.237 C  
HETATM    3  C   UNL     2     -11.935  12.730  70.143  1.00  0.00    -0.296 C  
HETATM    4  O   UNL     2     -12.046  11.956  68.960  1.00  0.00    -0.284 OA 
ENDROOT
BRANCH   2   5
HETATM    5  C   UNL     1      -9.058   9.630  67.684  1.00  0.00    -0.141 C  
HETATM    6  O   UNL     1      -8.808  12.016  68.254  1.00  0.00    -0.179 OA 
HETATM    7  C   UNL     1      -9.299   8.864  66.372  1.00  0.00    -0.204 C  
HETATM    8  C   UNL     1      -8.979  11.150  67.392  1.00  0.00    -0.139 C  
HETATM    9  H   UNL     1      -8.680  12.441  65.827  1.00  0.00     0.000 HD 
HETATM   10  N   UNL     1     -10.005   9.538  65.415  1.00  0.00    -0.411 N  
HETATM   11  O   UNL     1      -8.979   7.696  66.180  1.00  0.00    -0.166 OA 
HETATM   12  O   UNL     1      -9.711  11.205  63.932  1.00  0.00    -0.240 OA 
HETATM   13  N   UNL     1      -9.061  11.529  66.077  1.00  0.00    -0.210 N  
HETATM   14  C   UNL     1      -9.609  10.788  65.083  1.00  0.00    -0.245 C  
HETATM   15  H   UNL     1     -10.812   9.109  64.961  1.00  0.00     0.000 HD 
BRANCH   5  16
HETATM   16  C   UNL     1      -7.792   9.140  68.419  1.00  0.00    -0.102 A  
HETATM   17  C   UNL     1      -6.572   7.367  69.567  1.00  0.00    -0.037 A  
HETATM   18  C   UNL     1      -7.777   7.936  69.148  1.00  0.00    -0.100 A  
HETATM   19  C   UNL     1      -6.576   9.831  68.285  1.00  0.00    -0.056 A  
HETATM   20  C   UNL     1      -5.366   8.006  69.297  1.00  0.00    -0.030 A  
HETATM   21  C   UNL     1      -5.371   9.254  68.686  1.00  0.00    -0.034 A  
ENDBRANCH   5  16
ENDBRANCH   2   5
BRANCH   4  22
HETATM   22  C   UNL     2     -11.940  12.625  67.780  1.00  0.00    -0.243 A  
HETATM   23  C   UNL     2     -12.275  12.149  66.529  1.00  0.00     0.277 A  
HETATM   24  C   UNL     2     -11.279  14.794  66.811  1.00  0.00    -0.344 A  
HETATM   25  C   UNL     2     -10.643  16.841  65.690  1.00  0.00    -0.258 A  
HETATM   26  C   UNL     2     -12.111  12.986  65.422  1.00  0.00    -0.490 A  
HETATM   27  C   UNL     2     -10.985  16.230  64.495  1.00  0.00    -0.068 A  
HETATM   28  C   UNL     2     -11.523  13.945  67.913  1.00  0.00    -0.350 A  
HETATM   29  C   UNL     2     -10.764  16.130  66.894  1.00  0.00    -0.247 A  
HETATM   30  C   UNL     2     -11.590  14.272  65.530  1.00  0.00    -0.338 A  
HETATM   31  N   UNL     2     -11.439  14.968  64.400  1.00  0.00    -0.285 NA 
BRANCH  29  32
HETATM   32  C   UNL     2     -10.449  16.834  68.228  1.00  0.00    -0.341 C  
HETATM   33  H   UNL     2      -9.489  16.427  69.916  1.00  0.00     0.000 HD 
HETATM   34  O   UNL     2      -9.683  15.992  69.093  1.00  0.00    -0.224 OA 
BRANCH  32  35
HETATM   35  C   UNL     2      -9.691  18.210  68.148  1.00  0.00    -0.325 C  
HETATM   36  C   UNL     2      -8.491  19.402  66.269  1.00  0.00    -0.346 C  
HETATM   37  C   UNL     2      -7.932  20.325  67.366  1.00  0.00    -0.366 C  
HETATM   38  C   UNL     2      -7.725  19.523  68.661  1.00  0.00    -0.355 C  
HETATM   39  C   UNL     2      -9.857  18.895  66.766  1.00  0.00    -0.387 C  
HETATM   40  N   UNL     2      -8.238  18.139  68.528  1.00  0.00    -0.308 NA 
HETATM   41  C   UNL     2      -7.416  17.479  67.478  1.00  0.00    -0.188 C  
HETATM   42  C   UNL     2      -7.580  18.159  66.095  1.00  0.00    -0.278 C  
BRANCH  42  43
HETATM   43  C   UNL     2      -6.242  18.510  65.487  1.00  0.00    -0.306 C  
HETATM   44  C   UNL     2      -6.037  19.521  64.632  1.00  0.00    -0.306 C  
ENDBRANCH  42  43
ENDBRANCH  32  35
ENDBRANCH  29  32
ENDBRANCH   4  22
TORSDOF 6
ENDMDL
MODEL      122
REMARK 921   NORMALIZED FREE ENERGY PREDICTED BY IDOCK:   -4.03 KCAL/MOL
REMARK 922        TOTAL FREE ENERGY PREDICTED BY IDOCK:   -8.52 KCAL/MOL
REMARK 923 INTER-LIGAND FREE ENERGY PREDICTED BY IDOCK:   -8.33 KCAL/MOL
REMARK 924 INTRA-LIGAND FREE ENERGY PREDICTED BY IDOCK:   -0.19 KCAL/MOL
REMARK 927      BINDING AFFINITY PREDICTED BY RF-SCORE:    0.00 PKD
ROOT
HETATM    1  C   UNL     1      -9.400  10.484  62.765  1.00  0.00    -0.342 C  
HETATM    2  C   UNL     1      -8.494  11.090  63.834  1.00  0.00     0.214 C  
HETATM    3  C   UNL     2     -12.510  11.782  63.586  1.00  0.00    -0.370 C  
HETATM    4  O   UNL     2     -11.357  12.361  64.175  1.00  0.00    -0.327 OA 
ENDROOT
BRANCH   2   5
HETATM    5  C   UNL     1      -8.127  10.180  65.055  1.00  0.00    -0.149 C  
HETATM    6  O   UNL     1     -10.372   9.262  65.497  1.00  0.00     0.137 OA 
HETATM    7  C   UNL     1      -7.149  11.049  65.865  1.00  0.00     0.041 C  
HETATM    8  C   UNL     1      -9.404   9.917  65.891  1.00  0.00    -0.192 C  
HETATM    9  H   UNL     1     -10.058   9.984  67.834  1.00  0.00     0.000 HD 
HETATM   10  N   UNL     1      -7.723  11.916  66.751  1.00  0.00    -0.330 N  
HETATM   11  O   UNL     1      -5.934  11.065  65.701  1.00  0.00    -0.111 OA 
HETATM   12  O   UNL     1      -8.743  11.883  68.757  1.00  0.00    -0.075 OA 
HETATM   13  N   UNL     1      -9.417  10.415  67.169  1.00  0.00    -0.157 N  
HETATM   14  C   UNL     1      -8.645  11.436  67.617  1.00  0.00    -0.130 C  
HETATM   15  H   UNL     1      -7.464  12.903  66.760  1.00  0.00     0.000 HD 
BRANCH   5  16
HETATM   16  C   UNL     1      -7.482   8.855  64.595  1.00  0.00    -0.104 A  
HETATM   17  C   UNL     1      -5.832   7.667  63.249  1.00  0.00    -0.050 A  
HETATM   18  C   UNL     1      -6.620   8.796  63.485  1.00  0.00    -0.089 A  
HETATM   19  C   UNL     1      -7.650   7.680  65.348  1.00  0.00    -0.094 A  
HETATM   20  C   UNL     1      -5.916   6.566  64.096  1.00  0.00    -0.030 A  
HETATM   21  C   UNL     1      -6.849   6.560  65.125  1.00  0.00    -0.047 A  
ENDBRANCH   5  16
ENDBRANCH   2   5
BRANCH   4  22
HETATM   22  C   UNL     2     -11.433  12.661  65.500  1.00  0.00    -0.340 A  
HETATM   23  C   UNL     2     -11.878  11.830  66.509  1.00  0.00    -0.011 A  
HETATM   24  C   UNL     2     -10.970  14.448  67.133  1.00  0.00    -0.305 A  
HETATM   25  C   UNL     2     -10.610  16.101  68.864  1.00  0.00    -0.275 A  
HETATM   26  C   UNL     2     -11.874  12.304  67.823  1.00  0.00    -0.341 A  
HETATM   27  C   UNL     2     -11.110  15.181  69.770  1.00  0.00    -0.278 A  
HETATM   28  C   UNL     2     -10.923  13.912  65.827  1.00  0.00    -0.285 A  
HETATM   29  C   UNL     2     -10.540  15.766  67.502  1.00  0.00    -0.309 A  
HETATM   30  C   UNL     2     -11.469  13.595  68.149  1.00  0.00    -0.313 A  
HETATM   31  N   UNL     2     -11.546  13.954  69.434  1.00  0.00    -0.279 NA 
BRANCH  29  32
HETATM   32  C   UNL     2      -9.919  16.764  66.505  1.00  0.00    -0.298 C  
HETATM   33  H   UNL     2     -10.487  17.790  64.905  1.00  0.00     0.000 HD 
HETATM   34  O   UNL     2     -10.870  17.175  65.520  1.00  0.00    -0.391 OA 
BRANCH  32  35
HETATM   35  C   UNL     2      -9.291  18.076  67.104  1.00  0.00    -0.259 C  
HETATM   36  C   UNL     2      -7.895  19.926  66.097  1.00  0.00    -0.340 C  
HETATM   37  C   UNL     2      -7.628  20.358  67.550  1.00  0.00    -0.346 C  
HETATM   38  C   UNL     2      -7.579  19.119  68.458  1.00  0.00    -0.334 C  
HETATM   39  C   UNL     2      -9.274  19.242  66.081  1.00  0.00    -0.287 C  
HETATM   40  N   UNL     2      -7.928  17.887  67.711  1.00  0.00    -0.226 NA 
HETATM   41  C   UNL     2      -6.876  17.703  66.676  1.00  0.00    -0.217 C  
HETATM   42  C   UNL     2      -6.855  18.866  65.650  1.00  0.00    -0.292 C  
BRANCH  42  43
HETATM   43  C   UNL     2      -5.469  19.450  65.502  1.00  0.00    -0.184 C  
HETATM   44  C   UNL     2      -5.196  20.613  64.895  1.00  0.00    -0.212 C  
ENDBRANCH  42  43
ENDBRANCH  32  35
ENDBRANCH  29  32
ENDBRANCH   4  22
TORSDOF 6
ENDMDL
MODEL      123
REMARK 921   NORMALIZED FREE ENERGY PREDICTED BY IDOCK:   -3.98 KCAL/MOL
REMARK 922        TOTAL FREE ENERGY PREDICTED BY IDOCK:   -8.45 KCAL/MOL
REMARK 923 INTER-LIGAND FREE ENERGY PREDICTED BY IDOCK:   -6.42 KCAL/MOL
REMARK 924 INTRA-LIGAND FREE ENERGY PREDICTED BY IDOCK:   -2.03 KCAL/MOL
REMARK 927      BINDING AFFINITY PREDICTED BY RF-SCORE:    0.00 PKD
ROOT
HETATM    1  C   UNL     1      -7.839  10.892  69.140  1.00  0.00    -0.119 C  
HETATM    2  C   UNL     1      -8.069  10.901  67.631  1.00  0.00    -0.115 C  
HETATM    3  C   UNL     2      -6.764   7.646  69.722  1.00  0.00    -0.039 C  
HETATM    4  O   UNL     2      -6.787   8.123  68.386  1.00  0.00    -0.065 OA 
ENDROOT
BRANCH   2   5
HETATM    5  C   UNL     1      -9.545  10.730  67.134  1.00  0.00    -0.185 C  
HETATM    6  O   UNL     1      -9.056   9.933  64.853  1.00  0.00    -0.189 OA 
HETATM    7  C   UNL     1     -10.257  11.969  67.704  1.00  0.00    -0.199 C  
HETATM    8  C   UNL     1      -9.566  10.784  65.586  1.00  0.00    -0.216 C  
HETATM    9  H   UNL     1     -10.561  11.717  64.054  1.00  0.00     0.000 HD 
HETATM   10  N   UNL     1     -10.185  13.097  66.937  1.00  0.00    -0.243 N  
HETATM   11  O   UNL     1     -10.790  12.018  68.807  1.00  0.00    -0.219 OA 
HETATM   12  O   UNL     1     -11.074  13.938  65.048  1.00  0.00    -0.322 OA 
HETATM   13  N   UNL     1     -10.242  11.832  65.016  1.00  0.00    -0.262 N  
HETATM   14  C   UNL     1     -10.518  13.009  65.629  1.00  0.00    -0.279 C  
HETATM   15  H   UNL     1      -9.888  13.986  67.340  1.00  0.00     0.000 HD 
BRANCH   5  16
HETATM   16  C   UNL     1     -10.163   9.414  67.652  1.00  0.00    -0.281 A  
HETATM   17  C   UNL     1     -10.928   7.136  67.239  1.00  0.00    -0.333 A  
HETATM   18  C   UNL     1     -10.635   8.421  66.775  1.00  0.00    -0.227 A  
HETATM   19  C   UNL     1     -10.166   9.120  69.027  1.00  0.00    -0.219 A  
HETATM   20  C   UNL     1     -10.788   6.831  68.589  1.00  0.00    -0.277 A  
HETATM   21  C   UNL     1     -10.440   7.832  69.488  1.00  0.00    -0.225 A  
ENDBRANCH   5  16
ENDBRANCH   2   5
BRANCH   4  22
HETATM   22  C   UNL     2      -7.262   7.269  67.440  1.00  0.00    -0.090 A  
HETATM   23  C   UNL     2      -7.411   7.529  66.093  1.00  0.00    -0.082 A  
HETATM   24  C   UNL     2      -8.103   4.973  67.120  1.00  0.00    -0.107 A  
HETATM   25  C   UNL     2      -8.980   2.771  66.631  1.00  0.00    -0.165 A  
HETATM   26  C   UNL     2      -7.906   6.522  65.261  1.00  0.00    -0.109 A  
HETATM   27  C   UNL     2      -9.109   3.175  65.313  1.00  0.00    -0.148 A  
HETATM   28  C   UNL     2      -7.536   5.991  67.918  1.00  0.00    -0.085 A  
HETATM   29  C   UNL     2      -8.484   3.672  67.587  1.00  0.00    -0.105 A  
HETATM   30  C   UNL     2      -8.286   5.274  65.747  1.00  0.00    -0.123 A  
HETATM   31  N   UNL     2      -8.785   4.401  64.867  1.00  0.00    -0.129 NA 
BRANCH  29  32
HETATM   32  C   UNL     2      -8.276   3.200  69.040  1.00  0.00    -0.059 C  
HETATM   33  H   UNL     2      -6.773   2.615  70.195  1.00  0.00     0.000 HD 
HETATM   34  O   UNL     2      -6.901   2.906  69.300  1.00  0.00    -0.036 OA 
BRANCH  32  35
HETATM   35  C   UNL     2      -8.756   4.169  70.182  1.00  0.00    -0.074 C  
HETATM   36  C   UNL     2      -8.218   4.316  72.648  1.00  0.00    -0.097 C  
HETATM   37  C   UNL     2      -9.417   5.277  72.734  1.00  0.00    -0.157 C  
HETATM   38  C   UNL     2     -10.492   4.855  71.721  1.00  0.00    -0.144 C  
HETATM   39  C   UNL     2      -7.642   4.448  71.226  1.00  0.00    -0.064 C  
HETATM   40  N   UNL     2     -10.023   3.737  70.868  1.00  0.00    -0.115 NA 
HETATM   41  C   UNL     2      -9.803   2.575  71.770  1.00  0.00    -0.156 C  
HETATM   42  C   UNL     2      -8.689   2.849  72.814  1.00  0.00    -0.090 C  
BRANCH  42  43
HETATM   43  C   UNL     2      -9.162   2.555  74.219  1.00  0.00    -0.097 C  
HETATM   44  C   UNL     2     -10.341   1.995  74.522  1.00  0.00    -0.175 C  
ENDBRANCH  42  43
ENDBRANCH  32  35
ENDBRANCH  29  32
ENDBRANCH   4  22
TORSDOF 6
ENDMDL
MODEL      124
REMARK 921   NORMALIZED FREE ENERGY PREDICTED BY IDOCK:   -3.96 KCAL/MOL
REMARK 922        TOTAL FREE ENERGY PREDICTED BY IDOCK:   -8.43 KCAL/MOL
REMARK 923 INTER-LIGAND FREE ENERGY PREDICTED BY IDOCK:   -6.21 KCAL/MOL
REMARK 924 INTRA-LIGAND FREE ENERGY PREDICTED BY IDOCK:   -2.23 KCAL/MOL
REMARK 927      BINDING AFFINITY PREDICTED BY RF-SCORE:    0.00 PKD
ROOT
HETATM    1  C   UNL     1     -10.538  10.127  70.443  1.00  0.00    -0.287 C  
HETATM    2  C   UNL     1      -9.259   9.816  69.670  1.00  0.00    -0.239 C  
HETATM    3  C   UNL     2     -12.216   7.092  70.379  1.00  0.00    -0.036 C  
HETATM    4  O   UNL     2     -10.844   7.115  70.020  1.00  0.00    -0.241 OA 
ENDROOT
BRANCH   2   5
HETATM    5  C   UNL     1      -9.210  10.256  68.167  1.00  0.00    -0.137 C  
HETATM    6  O   UNL     1      -7.089  11.511  68.238  1.00  0.00    -0.071 OA 
HETATM    7  C   UNL     1     -10.668  10.638  67.860  1.00  0.00    -0.248 C  
HETATM    8  C   UNL     1      -8.306  11.507  68.036  1.00  0.00    -0.146 C  
HETATM    9  H   UNL     1      -8.320  13.383  67.206  1.00  0.00     0.000 HD 
HETATM   10  N   UNL     1     -11.021  11.922  68.170  1.00  0.00    -0.213 N  
HETATM   11  O   UNL     1     -11.520   9.857  67.451  1.00  0.00    -0.022 OA 
HETATM   12  O   UNL     1     -10.719  14.011  67.390  1.00  0.00    -0.278 OA 
HETATM   13  N   UNL     1      -8.913  12.665  67.621  1.00  0.00    -0.176 N  
HETATM   14  C   UNL     1     -10.239  12.930  67.721  1.00  0.00    -0.224 C  
HETATM   15  H   UNL     1     -11.853  12.115  68.726  1.00  0.00     0.000 HD 
BRANCH   5  16
HETATM   16  C   UNL     1      -8.707   9.110  67.262  1.00  0.00    -0.122 A  
HETATM   17  C   UNL     1      -8.587   8.050  65.069  1.00  0.00    -0.037 A  
HETATM   18  C   UNL     1      -9.233   8.897  65.975  1.00  0.00    -0.287 A  
HETATM   19  C   UNL     1      -7.620   8.312  67.659  1.00  0.00    -0.098 A  
HETATM   20  C   UNL     1      -7.429   7.378  65.444  1.00  0.00    -0.090 A  
HETATM   21  C   UNL     1      -6.965   7.483  66.750  1.00  0.00    -0.078 A  
ENDBRANCH   5  16
ENDBRANCH   2   5
BRANCH   4  22
HETATM   22  C   UNL     2     -10.483   6.374  68.938  1.00  0.00    -0.223 A  
HETATM   23  C   UNL     2     -11.139   6.310  67.726  1.00  0.00    -0.361 A  
HETATM   24  C   UNL     2      -8.759   4.812  68.121  1.00  0.00    -0.111 A  
HETATM   25  C   UNL     2      -7.178   3.245  67.171  1.00  0.00    -0.059 A  
HETATM   26  C   UNL     2     -10.614   5.500  66.716  1.00  0.00    -0.360 A  
HETATM   27  C   UNL     2      -7.950   3.248  66.022  1.00  0.00    -0.088 A  
HETATM   28  C   UNL     2      -9.280   5.693  69.095  1.00  0.00    -0.136 A  
HETATM   29  C   UNL     2      -7.572   4.021  68.273  1.00  0.00    -0.066 A  
HETATM   30  C   UNL     2      -9.470   4.728  66.898  1.00  0.00    -0.155 A  
HETATM   31  N   UNL     2      -9.081   3.960  65.877  1.00  0.00    -0.139 NA 
BRANCH  29  32
HETATM   32  C   UNL     2      -6.676   4.072  69.527  1.00  0.00    -0.037 C  
HETATM   33  H   UNL     2      -6.021   5.432  70.812  1.00  0.00     0.000 HD 
HETATM   34  O   UNL     2      -6.573   5.402  70.040  1.00  0.00    -0.042 OA 
BRANCH  32  35
HETATM   35  C   UNL     2      -7.083   3.149  70.734  1.00  0.00    -0.033 C  
HETATM   36  C   UNL     2      -9.320   2.442  71.675  1.00  0.00    -0.188 C  
HETATM   37  C   UNL     2      -8.520   1.935  72.887  1.00  0.00    -0.062 C  
HETATM   38  C   UNL     2      -7.306   2.846  73.123  1.00  0.00    -0.045 C  
HETATM   39  C   UNL     2      -8.385   2.354  70.454  1.00  0.00    -0.076 C  
HETATM   40  N   UNL     2      -7.176   3.864  72.054  1.00  0.00    -0.052 NA 
HETATM   41  C   UNL     2      -8.385   4.728  72.139  1.00  0.00    -0.119 C  
HETATM   42  C   UNL     2      -9.689   3.936  71.859  1.00  0.00    -0.239 C  
BRANCH  42  43
HETATM   43  C   UNL     2     -10.709   4.144  72.954  1.00  0.00    -0.230 C  
HETATM   44  C   UNL     2     -10.732   5.198  73.781  1.00  0.00    -0.352 C  
ENDBRANCH  42  43
ENDBRANCH  32  35
ENDBRANCH  29  32
ENDBRANCH   4  22
TORSDOF 6
ENDMDL
MODEL      125
REMARK 921   NORMALIZED FREE ENERGY PREDICTED BY IDOCK:   -3.95 KCAL/MOL
REMARK 922        TOTAL FREE ENERGY PREDICTED BY IDOCK:   -8.41 KCAL/MOL
REMARK 923 INTER-LIGAND FREE ENERGY PREDICTED BY IDOCK:   -7.86 KCAL/MOL
REMARK 924 INTRA-LIGAND FREE ENERGY PREDICTED BY IDOCK:   -0.55 KCAL/MOL
REMARK 927      BINDING AFFINITY PREDICTED BY RF-SCORE:    0.00 PKD
ROOT
HETATM    1  C   UNL     1     -12.197   7.764  72.068  1.00  0.00    -0.342 C  
HETATM    2  C   UNL     1     -11.707   6.610  71.197  1.00  0.00    -0.399 C  
HETATM    3  C   UNL     2     -11.743  10.513  70.003  1.00  0.00    -0.312 C  
HETATM    4  O   UNL     2     -11.682   9.218  69.429  1.00  0.00     0.287 OA 
ENDROOT
BRANCH   2   5
HETATM    5  C   UNL     1     -10.254   6.086  71.460  1.00  0.00    -0.249 C  
HETATM    6  O   UNL     1     -10.746   4.645  73.400  1.00  0.00    -0.199 OA 
HETATM    7  C   UNL     1      -9.383   7.336  71.250  1.00  0.00    -0.154 C  
HETATM    8  C   UNL     1     -10.145   5.616  72.932  1.00  0.00    -0.176 C  
HETATM    9  H   UNL     1      -8.935   5.841  74.573  1.00  0.00     0.000 HD 
HETATM   10  N   UNL     1      -9.233   8.143  72.344  1.00  0.00    -0.201 N  
HETATM   11  O   UNL     1      -8.906   7.679  70.175  1.00  0.00    -0.144 OA 
HETATM   12  O   UNL     1      -8.125   8.177  74.303  1.00  0.00    -0.234 OA 
HETATM   13  N   UNL     1      -9.281   6.313  73.738  1.00  0.00    -0.128 N  
HETATM   14  C   UNL     1      -8.852   7.579  73.513  1.00  0.00    -0.209 C  
HETATM   15  H   UNL     1      -9.405   9.146  72.281  1.00  0.00     0.000 HD 
BRANCH   5  16
HETATM   16  C   UNL     1      -9.882   4.949  70.485  1.00  0.00    -0.297 A  
HETATM   17  C   UNL     1      -9.661   4.111  68.206  1.00  0.00    -0.148 A  
HETATM   18  C   UNL     1     -10.236   4.993  69.124  1.00  0.00    -0.227 A  
HETATM   19  C   UNL     1      -9.073   3.881  70.910  1.00  0.00    -0.179 A  
HETATM   20  C   UNL     1      -8.752   3.150  68.634  1.00  0.00    -0.145 A  
HETATM   21  C   UNL     1      -8.484   3.013  69.991  1.00  0.00    -0.090 A  
ENDBRANCH   5  16
ENDBRANCH   2   5
BRANCH   4  22
HETATM   22  C   UNL     2     -10.691   8.997  68.523  1.00  0.00    -0.095 A  
HETATM   23  C   UNL     2     -10.496   7.852  67.778  1.00  0.00    -0.278 A  
HETATM   24  C   UNL     2      -8.738  10.060  67.459  1.00  0.00    -0.125 A  
HETATM   25  C   UNL     2      -6.777  10.934  66.343  1.00  0.00    -0.134 A  
HETATM   26  C   UNL     2      -9.426   7.805  66.880  1.00  0.00    -0.238 A  
HETATM   27  C   UNL     2      -6.677   9.719  65.685  1.00  0.00    -0.092 A  
HETATM   28  C   UNL     2      -9.868  10.096  68.305  1.00  0.00    -0.162 A  
HETATM   29  C   UNL     2      -7.810  11.137  67.271  1.00  0.00    -0.137 A  
HETATM   30  C   UNL     2      -8.530   8.860  66.733  1.00  0.00    -0.115 A  
HETATM   31  N   UNL     2      -7.520   8.690  65.874  1.00  0.00    -0.084 NA 
BRANCH  29  32
HETATM   32  C   UNL     2      -7.962  12.513  67.951  1.00  0.00    -0.157 C  
HETATM   33  H   UNL     2      -6.784  13.912  68.718  1.00  0.00     0.000 HD 
HETATM   34  O   UNL     2      -6.690  13.064  68.299  1.00  0.00    -0.077 OA 
BRANCH  32  35
HETATM   35  C   UNL     2      -8.734  13.625  67.148  1.00  0.00    -0.216 C  
HETATM   36  C   UNL     2      -9.604  15.910  67.787  1.00  0.00    -0.218 C  
HETATM   37  C   UNL     2     -10.383  15.857  66.461  1.00  0.00    -0.304 C  
HETATM   38  C   UNL     2     -10.800  14.408  66.164  1.00  0.00    -0.309 C  
HETATM   39  C   UNL     2      -8.337  15.056  67.595  1.00  0.00    -0.175 C  
HETATM   40  N   UNL     2     -10.230  13.466  67.156  1.00  0.00    -0.245 NA 
HETATM   41  C   UNL     2     -10.823  13.823  68.473  1.00  0.00    -0.263 C  
HETATM   42  C   UNL     2     -10.428  15.253  68.924  1.00  0.00    -0.241 C  
BRANCH  42  43
HETATM   43  C   UNL     2     -11.642  16.072  69.298  1.00  0.00    -0.331 C  
HETATM   44  C   UNL     2     -12.543  15.714  70.223  1.00  0.00    -0.319 C  
ENDBRANCH  42  43
ENDBRANCH  32  35
ENDBRANCH  29  32
ENDBRANCH   4  22
TORSDOF 6
ENDMDL
MODEL      126
REMARK 921   NORMALIZED FREE ENERGY PREDICTED BY IDOCK:   -3.92 KCAL/MOL
REMARK 922        TOTAL FREE ENERGY PREDICTED BY IDOCK:   -8.37 KCAL/MOL
REMARK 923 INTER-LIGAND FREE ENERGY PREDICTED BY IDOCK:   -8.34 KCAL/MOL
REMARK 924 INTRA-LIGAND FREE ENERGY PREDICTED BY IDOCK:   -0.03 KCAL/MOL
REMARK 927      BINDING AFFINITY PREDICTED BY RF-SCORE:    0.00 PKD
ROOT
HETATM    1  C   UNL     1     -10.330  14.261  65.335  1.00  0.00    -0.391 C  
HETATM    2  C   UNL     1     -11.208  14.647  66.523  1.00  0.00    -0.346 C  
HETATM    3  C   UNL     2     -10.183  10.806  65.595  1.00  0.00    -0.257 C  
HETATM    4  O   UNL     2     -11.161  11.501  66.352  1.00  0.00    -0.296 OA 
ENDROOT
BRANCH   2   5
HETATM    5  C   UNL     1     -10.478  15.157  67.812  1.00  0.00    -0.247 C  
HETATM    6  O   UNL     1      -9.245  13.092  68.357  1.00  0.00    -0.198 OA 
HETATM    7  C   UNL     1     -11.561  15.978  68.533  1.00  0.00    -0.316 C  
HETATM    8  C   UNL     1     -10.081  13.939  68.683  1.00  0.00    -0.203 C  
HETATM    9  H   UNL     1     -10.205  13.280  70.622  1.00  0.00     0.000 HD 
HETATM   10  N   UNL     1     -12.394  15.267  69.351  1.00  0.00    -0.586 N  
HETATM   11  O   UNL     1     -11.762  17.173  68.353  1.00  0.00     0.349 OA 
HETATM   12  O   UNL     1     -12.365  14.264  71.365  1.00  0.00    -0.334 OA 
HETATM   13  N   UNL     1     -10.677  13.843  69.914  1.00  0.00     0.245 N  
HETATM   14  C   UNL     1     -11.845  14.436  70.265  1.00  0.00    -0.313 C  
HETATM   15  H   UNL     1     -13.407  15.361  69.273  1.00  0.00     0.000 HD 
BRANCH   5  16
HETATM   16  C   UNL     1      -9.242  16.011  67.457  1.00  0.00    -0.214 A  
HETATM   17  C   UNL     1      -6.829  16.216  67.172  1.00  0.00    -0.240 A  
HETATM   18  C   UNL     1      -7.934  15.578  67.741  1.00  0.00    -0.157 A  
HETATM   19  C   UNL     1      -9.385  17.206  66.729  1.00  0.00    -0.268 A  
HETATM   20  C   UNL     1      -7.008  17.315  66.339  1.00  0.00    -0.310 A  
HETATM   21  C   UNL     1      -8.284  17.830  66.145  1.00  0.00    -0.193 A  
ENDBRANCH   5  16
ENDBRANCH   2   5
BRANCH   4  22
HETATM   22  C   UNL     2     -11.341  11.094  67.637  1.00  0.00    -0.284 A  
HETATM   23  C   UNL     2     -12.274  11.578  68.532  1.00  0.00     0.038 A  
HETATM   24  C   UNL     2     -10.511   9.496  69.321  1.00  0.00    -0.226 A  
HETATM   25  C   UNL     2      -9.798   8.020  71.101  1.00  0.00    -0.198 A  
HETATM   26  C   UNL     2     -12.325  11.030  69.816  1.00  0.00    -0.331 A  
HETATM   27  C   UNL     2     -10.754   8.617  71.905  1.00  0.00    -0.344 A  
HETATM   28  C   UNL     2     -10.533  10.026  68.012  1.00  0.00    -0.260 A  
HETATM   29  C   UNL     2      -9.634   8.457  69.777  1.00  0.00    -0.170 A  
HETATM   30  C   UNL     2     -11.448  10.035  70.237  1.00  0.00    -0.300 A  
HETATM   31  N   UNL     2     -11.562   9.613  71.500  1.00  0.00    -0.387 NA 
BRANCH  29  32
HETATM   32  C   UNL     2      -8.617   7.745  68.862  1.00  0.00    -0.132 C  
HETATM   33  H   UNL     2      -6.649   7.675  68.625  1.00  0.00     0.000 HD 
HETATM   34  O   UNL     2      -7.275   8.114  69.188  1.00  0.00    -0.069 OA 
BRANCH  32  35
HETATM   35  C   UNL     2      -8.660   6.172  68.834  1.00  0.00    -0.121 C  
HETATM   36  C   UNL     2      -8.446   4.482  66.967  1.00  0.00    -0.104 C  
HETATM   37  C   UNL     2      -8.964   3.457  67.991  1.00  0.00    -0.180 C  
HETATM   38  C   UNL     2      -9.961   4.136  68.943  1.00  0.00     0.099 C  
HETATM   39  C   UNL     2      -7.710   5.576  67.764  1.00  0.00    -0.092 C  
HETATM   40  N   UNL     2     -10.042   5.595  68.693  1.00  0.00    -0.168 NA 
HETATM   41  C   UNL     2     -10.580   5.762  67.316  1.00  0.00    -0.279 C  
HETATM   42  C   UNL     2      -9.632   5.168  66.242  1.00  0.00    -0.174 C  
BRANCH  42  43
HETATM   43  C   UNL     2     -10.364   4.221  65.319  1.00  0.00    -0.220 C  
HETATM   44  C   UNL     2      -9.768   3.405  64.440  1.00  0.00    -0.168 C  
ENDBRANCH  42  43
ENDBRANCH  32  35
ENDBRANCH  29  32
ENDBRANCH   4  22
TORSDOF 6
ENDMDL
MODEL      127
REMARK 921   NORMALIZED FREE ENERGY PREDICTED BY IDOCK:   -3.92 KCAL/MOL
REMARK 922        TOTAL FREE ENERGY PREDICTED BY IDOCK:   -8.37 KCAL/MOL
REMARK 923 INTER-LIGAND FREE ENERGY PREDICTED BY IDOCK:   -6.43 KCAL/MOL
REMARK 924 INTRA-LIGAND FREE ENERGY PREDICTED BY IDOCK:   -1.94 KCAL/MOL
REMARK 927      BINDING AFFINITY PREDICTED BY RF-SCORE:    0.00 PKD
ROOT
HETATM    1  C   UNL     1      -7.610   5.494  73.247  1.00  0.00    -0.096 C  
HETATM    2  C   UNL     1      -8.901   6.308  73.300  1.00  0.00    -0.126 C  
HETATM    3  C   UNL     2      -5.864   7.015  70.665  1.00  0.00    -0.027 C  
HETATM    4  O   UNL     2      -6.986   7.688  71.212  1.00  0.00    -0.049 OA 
ENDROOT
BRANCH   2   5
HETATM    5  C   UNL     1     -10.160   5.693  72.599  1.00  0.00    -0.208 C  
HETATM    6  O   UNL     1     -11.132   4.554  74.558  1.00  0.00    -0.203 OA 
HETATM    7  C   UNL     1      -9.612   5.211  71.244  1.00  0.00    -0.162 C  
HETATM    8  C   UNL     1     -10.654   4.478  73.422  1.00  0.00    -0.225 C  
HETATM    9  H   UNL     1     -11.201   2.518  73.168  1.00  0.00     0.000 HD 
HETATM   10  N   UNL     1      -9.064   3.959  71.241  1.00  0.00    -0.108 N  
HETATM   11  O   UNL     1      -9.564   5.897  70.230  1.00  0.00    -0.158 OA 
HETATM   12  O   UNL     1      -9.720   1.807  71.300  1.00  0.00    -0.133 OA 
HETATM   13  N   UNL     1     -10.591   3.253  72.811  1.00  0.00    -0.125 N  
HETATM   14  C   UNL     1      -9.781   2.941  71.769  1.00  0.00    -0.154 C  
HETATM   15  H   UNL     1      -8.137   3.795  70.848  1.00  0.00     0.000 HD 
BRANCH   5  16
HETATM   16  C   UNL     1     -11.278   6.744  72.432  1.00  0.00    -0.300 A  
HETATM   17  C   UNL     1     -11.983   9.075  72.314  1.00  0.00    -0.332 A  
HETATM   18  C   UNL     1     -11.069   8.103  72.728  1.00  0.00    -0.407 A  
HETATM   19  C   UNL     1     -12.514   6.387  71.866  1.00  0.00    -0.219 A  
HETATM   20  C   UNL     1     -13.136   8.705  71.629  1.00  0.00    -0.381 A  
HETATM   21  C   UNL     1     -13.417   7.358  71.435  1.00  0.00    -0.405 A  
ENDBRANCH   5  16
ENDBRANCH   2   5
BRANCH   4  22
HETATM   22  C   UNL     2      -7.831   8.284  70.329  1.00  0.00    -0.092 A  
HETATM   23  C   UNL     2      -8.821   9.200  70.623  1.00  0.00    -0.278 A  
HETATM   24  C   UNL     2      -8.380   8.420  67.928  1.00  0.00    -0.131 A  
HETATM   25  C   UNL     2      -9.072   8.647  65.621  1.00  0.00    -0.221 A  
HETATM   26  C   UNL     2      -9.590   9.722  69.580  1.00  0.00    -0.239 A  
HETATM   27  C   UNL     2     -10.048   9.528  66.058  1.00  0.00    -0.249 A  
HETATM   28  C   UNL     2      -7.577   7.966  68.999  1.00  0.00    -0.099 A  
HETATM   29  C   UNL     2      -8.211   8.048  66.554  1.00  0.00    -0.115 A  
HETATM   30  C   UNL     2      -9.417   9.327  68.257  1.00  0.00    -0.138 A  
HETATM   31  N   UNL     2     -10.237   9.862  67.347  1.00  0.00    -0.208 NA 
BRANCH  29  32
HETATM   32  C   UNL     2      -7.082   7.121  66.059  1.00  0.00    -0.073 C  
HETATM   33  H   UNL     2      -5.115   7.200  65.820  1.00  0.00     0.000 HD 
HETATM   34  O   UNL     2      -5.810   7.771  66.125  1.00  0.00    -0.036 OA 
BRANCH  32  35
HETATM   35  C   UNL     2      -6.922   5.737  66.789  1.00  0.00    -0.065 C  
HETATM   36  C   UNL     2      -6.323   3.423  65.967  1.00  0.00    -0.032 C  
HETATM   37  C   UNL     2      -6.800   2.935  67.346  1.00  0.00    -0.045 C  
HETATM   38  C   UNL     2      -7.959   3.818  67.835  1.00  0.00    -0.084 C  
HETATM   39  C   UNL     2      -5.809   4.862  66.156  1.00  0.00    -0.022 C  
HETATM   40  N   UNL     2      -8.200   4.953  66.913  1.00  0.00    -0.107 NA 
HETATM   41  C   UNL     2      -8.625   4.366  65.615  1.00  0.00    -0.119 C  
HETATM   42  C   UNL     2      -7.514   3.491  64.978  1.00  0.00    -0.073 C  
BRANCH  42  43
HETATM   43  C   UNL     2      -8.032   2.120  64.608  1.00  0.00    -0.074 C  
HETATM   44  C   UNL     2      -9.222   1.885  64.040  1.00  0.00    -0.114 C  
ENDBRANCH  42  43
ENDBRANCH  32  35
ENDBRANCH  29  32
ENDBRANCH   4  22
TORSDOF 6
ENDMDL
MODEL      128
REMARK 921   NORMALIZED FREE ENERGY PREDICTED BY IDOCK:   -3.91 KCAL/MOL
REMARK 922        TOTAL FREE ENERGY PREDICTED BY IDOCK:   -8.36 KCAL/MOL
REMARK 923 INTER-LIGAND FREE ENERGY PREDICTED BY IDOCK:   -7.25 KCAL/MOL
REMARK 924 INTRA-LIGAND FREE ENERGY PREDICTED BY IDOCK:   -1.11 KCAL/MOL
REMARK 927      BINDING AFFINITY PREDICTED BY RF-SCORE:    0.00 PKD
ROOT
HETATM    1  C   UNL     1      -9.675   9.505  64.868  1.00  0.00    -0.065 C  
HETATM    2  C   UNL     1     -10.151   9.920  66.258  1.00  0.00    -0.311 C  
HETATM    3  C   UNL     2      -7.279   7.099  65.578  1.00  0.00    -0.070 C  
HETATM    4  O   UNL     2      -8.161   7.502  66.612  1.00  0.00    -0.118 OA 
ENDROOT
BRANCH   2   5
HETATM    5  C   UNL     1      -9.552  11.241  66.850  1.00  0.00    -0.210 C  
HETATM    6  O   UNL     1      -9.213  10.463  69.166  1.00  0.00    -0.180 OA 
HETATM    7  C   UNL     1     -10.413  12.342  66.208  1.00  0.00    -0.238 C  
HETATM    8  C   UNL     1      -9.761  11.246  68.385  1.00  0.00    -0.194 C  
HETATM    9  H   UNL     1     -10.467  12.465  69.876  1.00  0.00     0.000 HD 
HETATM   10  N   UNL     1     -11.576  12.639  66.861  1.00  0.00    -0.353 N  
HETATM   11  O   UNL     1     -10.163  12.883  65.137  1.00  0.00    -0.288 OA 
HETATM   12  O   UNL     1     -12.270  13.718  68.709  1.00  0.00    -0.350 OA 
HETATM   13  N   UNL     1     -10.578  12.224  68.892  1.00  0.00    -0.182 N  
HETATM   14  C   UNL     1     -11.523  12.894  68.188  1.00  0.00    -0.315 C  
HETATM   15  H   UNL     1     -12.465  12.667  66.359  1.00  0.00     0.000 HD 
BRANCH   5  16
HETATM   16  C   UNL     1      -8.058  11.389  66.494  1.00  0.00    -0.141 A  
HETATM   17  C   UNL     1      -5.806  12.109  67.094  1.00  0.00    -0.139 A  
HETATM   18  C   UNL     1      -7.191  12.200  67.250  1.00  0.00    -0.144 A  
HETATM   19  C   UNL     1      -7.490  10.622  65.462  1.00  0.00    -0.063 A  
HETATM   20  C   UNL     1      -5.264  11.234  66.158  1.00  0.00    -0.115 A  
HETATM   21  C   UNL     1      -6.107  10.516  65.319  1.00  0.00    -0.110 A  
ENDBRANCH   5  16
ENDBRANCH   2   5
BRANCH   4  22
HETATM   22  C   UNL     2      -7.613   7.699  67.841  1.00  0.00    -0.117 A  
HETATM   23  C   UNL     2      -6.706   8.679  68.192  1.00  0.00    -0.065 A  
HETATM   24  C   UNL     2      -7.627   6.842  70.153  1.00  0.00    -0.099 A  
HETATM   25  C   UNL     2      -7.492   6.111  72.456  1.00  0.00    -0.097 A  
HETATM   26  C   UNL     2      -6.256   8.740  69.514  1.00  0.00    -0.040 A  
HETATM   27  C   UNL     2      -6.563   7.117  72.663  1.00  0.00    -0.056 A  
HETATM   28  C   UNL     2      -8.111   6.853  68.826  1.00  0.00    -0.121 A  
HETATM   29  C   UNL     2      -8.045   5.930  71.178  1.00  0.00    -0.121 A  
HETATM   30  C   UNL     2      -6.665   7.829  70.483  1.00  0.00    -0.038 A  
HETATM   31  N   UNL     2      -6.139   7.959  71.705  1.00  0.00    -0.035 NA 
BRANCH  29  32
HETATM   32  C   UNL     2      -9.130   4.856  70.965  1.00  0.00    -0.140 C  
HETATM   33  H   UNL     2      -9.591   3.068  71.689  1.00  0.00     0.000 HD 
HETATM   34  O   UNL     2      -8.923   3.730  71.821  1.00  0.00    -0.100 OA 
BRANCH  32  35
HETATM   35  C   UNL     2     -10.626   5.303  71.157  1.00  0.00    -0.173 C  
HETATM   36  C   UNL     2     -11.903   7.368  70.457  1.00  0.00    -0.187 C  
HETATM   37  C   UNL     2     -13.002   6.872  71.413  1.00  0.00    -0.339 C  
HETATM   38  C   UNL     2     -12.359   6.157  72.612  1.00  0.00     0.201 C  
HETATM   39  C   UNL     2     -11.156   6.121  69.950  1.00  0.00    -0.481 C  
HETATM   40  N   UNL     2     -10.892   6.032  72.445  1.00  0.00    -0.234 NA 
HETATM   41  C   UNL     2     -10.346   7.416  72.428  1.00  0.00    -0.222 C  
HETATM   42  C   UNL     2     -10.873   8.237  71.222  1.00  0.00    -0.285 C  
BRANCH  42  43
HETATM   43  C   UNL     2     -11.454   9.560  71.665  1.00  0.00    -0.433 C  
HETATM   44  C   UNL     2     -12.365  10.258  70.973  1.00  0.00    -0.483 C  
ENDBRANCH  42  43
ENDBRANCH  32  35
ENDBRANCH  29  32
ENDBRANCH   4  22
TORSDOF 6
ENDMDL
MODEL      129
REMARK 921   NORMALIZED FREE ENERGY PREDICTED BY IDOCK:   -3.89 KCAL/MOL
REMARK 922        TOTAL FREE ENERGY PREDICTED BY IDOCK:   -8.34 KCAL/MOL
REMARK 923 INTER-LIGAND FREE ENERGY PREDICTED BY IDOCK:   -7.79 KCAL/MOL
REMARK 924 INTRA-LIGAND FREE ENERGY PREDICTED BY IDOCK:   -0.55 KCAL/MOL
REMARK 927      BINDING AFFINITY PREDICTED BY RF-SCORE:    0.00 PKD
ROOT
HETATM    1  C   UNL     1     -11.021  15.122  69.882  1.00  0.00    -0.291 C  
HETATM    2  C   UNL     1      -9.641  15.279  69.248  1.00  0.00    -0.249 C  
HETATM    3  C   UNL     2     -11.611  11.718  69.571  1.00  0.00    -0.332 C  
HETATM    4  O   UNL     2     -10.292  12.198  69.366  1.00  0.00     0.138 OA 
ENDROOT
BRANCH   2   5
HETATM    5  C   UNL     1      -9.591  15.794  67.769  1.00  0.00    -0.214 C  
HETATM    6  O   UNL     1      -7.368  14.912  67.166  1.00  0.00    -0.179 OA 
HETATM    7  C   UNL     1     -10.190  17.207  67.864  1.00  0.00    -0.330 C  
HETATM    8  C   UNL     1      -8.112  15.885  67.316  1.00  0.00    -0.184 C  
HETATM    9  H   UNL     1      -6.817  17.196  66.415  1.00  0.00     0.000 HD 
HETATM   10  N   UNL     1      -9.310  18.202  68.184  1.00  0.00    -0.280 N  
HETATM   11  O   UNL     1     -11.384  17.464  67.757  1.00  0.00     0.006 OA 
HETATM   12  O   UNL     1      -7.654  19.391  67.230  1.00  0.00    -0.237 OA 
HETATM   13  N   UNL     1      -7.634  17.136  67.022  1.00  0.00    -0.175 N  
HETATM   14  C   UNL     1      -8.162  18.300  67.475  1.00  0.00    -0.237 C  
HETATM   15  H   UNL     1      -9.513  18.857  68.940  1.00  0.00     0.000 HD 
BRANCH   5  16
HETATM   16  C   UNL     1     -10.404  14.879  66.829  1.00  0.00    -0.269 A  
HETATM   17  C   UNL     1     -12.484  13.728  66.284  1.00  0.00    -0.441 A  
HETATM   18  C   UNL     1     -11.631  14.313  67.223  1.00  0.00    -0.401 A  
HETATM   19  C   UNL     1      -9.995  14.678  65.499  1.00  0.00    -0.384 A  
HETATM   20  C   UNL     1     -12.113  13.666  64.945  1.00  0.00    -0.426 A  
HETATM   21  C   UNL     1     -10.855  14.111  64.558  1.00  0.00    -0.336 A  
ENDBRANCH   5  16
ENDBRANCH   2   5
BRANCH   4  22
HETATM   22  C   UNL     2      -9.607  11.672  68.315  1.00  0.00    -0.198 A  
HETATM   23  C   UNL     2      -8.657  12.314  67.546  1.00  0.00    -0.174 A  
HETATM   24  C   UNL     2      -9.316   9.604  67.004  1.00  0.00    -0.180 A  
HETATM   25  C   UNL     2      -8.931   7.676  65.594  1.00  0.00    -0.036 A  
HETATM   26  C   UNL     2      -8.041  11.609  66.508  1.00  0.00    -0.075 A  
HETATM   27  C   UNL     2      -8.025   8.445  64.883  1.00  0.00    -0.136 A  
HETATM   28  C   UNL     2      -9.867  10.325  68.087  1.00  0.00    -0.166 A  
HETATM   29  C   UNL     2      -9.623   8.243  66.676  1.00  0.00    -0.299 A  
HETATM   30  C   UNL     2      -8.374  10.294  66.200  1.00  0.00    -0.140 A  
HETATM   31  N   UNL     2      -7.750   9.732  65.160  1.00  0.00    -0.118 NA 
BRANCH  29  32
HETATM   32  C   UNL     2     -10.579   7.366  67.509  1.00  0.00    -0.269 C  
HETATM   33  H   UNL     2     -11.880   5.901  67.197  1.00  0.00     0.000 HD 
HETATM   34  O   UNL     2     -11.291   6.441  66.683  1.00  0.00    -0.171 OA 
BRANCH  32  35
HETATM   35  C   UNL     2      -9.944   6.531  68.682  1.00  0.00    -0.146 C  
HETATM   36  C   UNL     2      -7.555   6.120  69.398  1.00  0.00    -0.098 C  
HETATM   37  C   UNL     2      -8.135   5.010  70.291  1.00  0.00    -0.085 C  
HETATM   38  C   UNL     2      -9.352   4.373  69.601  1.00  0.00    -0.158 C  
HETATM   39  C   UNL     2      -8.654   7.187  69.240  1.00  0.00    -0.137 C  
HETATM   40  N   UNL     2      -9.697   5.085  68.347  1.00  0.00    -0.144 NA 
HETATM   41  C   UNL     2      -8.541   4.913  67.427  1.00  0.00    -0.104 C  
HETATM   42  C   UNL     2      -7.250   5.569  67.981  1.00  0.00    -0.072 C  
BRANCH  42  43
HETATM   43  C   UNL     2      -6.092   4.598  67.981  1.00  0.00    -0.031 C  
HETATM   44  C   UNL     2      -6.185   3.304  67.648  1.00  0.00    -0.032 C  
ENDBRANCH  42  43
ENDBRANCH  32  35
ENDBRANCH  29  32
ENDBRANCH   4  22
TORSDOF 6
ENDMDL
MODEL      130
REMARK 921   NORMALIZED FREE ENERGY PREDICTED BY IDOCK:   -3.86 KCAL/MOL
REMARK 922        TOTAL FREE ENERGY PREDICTED BY IDOCK:   -8.29 KCAL/MOL
REMARK 923 INTER-LIGAND FREE ENERGY PREDICTED BY IDOCK:   -6.36 KCAL/MOL
REMARK 924 INTRA-LIGAND FREE ENERGY PREDICTED BY IDOCK:   -1.94 KCAL/MOL
REMARK 927      BINDING AFFINITY PREDICTED BY RF-SCORE:    0.00 PKD
ROOT
HETATM    1  C   UNL     1      -9.568   4.561  65.865  1.00  0.00    -0.191 C  
HETATM    2  C   UNL     1      -9.252   5.586  66.951  1.00  0.00    -0.119 C  
HETATM    3  C   UNL     2      -9.483   1.563  67.607  1.00  0.00    -0.041 C  
HETATM    4  O   UNL     2      -9.536   2.774  68.344  1.00  0.00    -0.197 OA 
ENDROOT
BRANCH   2   5
HETATM    5  C   UNL     1      -7.778   6.113  67.028  1.00  0.00    -0.100 C  
HETATM    6  O   UNL     1      -6.627   3.932  67.008  1.00  0.00    -0.044 OA 
HETATM    7  C   UNL     1      -7.865   7.267  68.041  1.00  0.00    -0.118 C  
HETATM    8  C   UNL     1      -6.870   4.991  67.592  1.00  0.00    -0.060 C  
HETATM    9  H   UNL     1      -5.435   4.698  69.027  1.00  0.00     0.000 HD 
HETATM   10  N   UNL     1      -7.749   6.909  69.355  1.00  0.00    -0.103 N  
HETATM   11  O   UNL     1      -8.109   8.431  67.748  1.00  0.00    -0.119 OA 
HETATM   12  O   UNL     1      -6.165   6.263  70.817  1.00  0.00    -0.036 OA 
HETATM   13  N   UNL     1      -6.272   5.234  68.802  1.00  0.00    -0.029 N  
HETATM   14  C   UNL     1      -6.706   6.131  69.721  1.00  0.00    -0.052 C  
HETATM   15  H   UNL     1      -8.434   7.222  70.044  1.00  0.00     0.000 HD 
BRANCH   5  16
HETATM   16  C   UNL     1      -7.280   6.588  65.646  1.00  0.00    -0.073 A  
HETATM   17  C   UNL     1      -7.754   7.387  63.392  1.00  0.00    -0.125 A  
HETATM   18  C   UNL     1      -8.146   6.699  64.543  1.00  0.00    -0.073 A  
HETATM   19  C   UNL     1      -5.958   7.037  65.481  1.00  0.00    -0.036 A  
HETATM   20  C   UNL     1      -6.483   7.945  63.309  1.00  0.00    -0.068 A  
HETATM   21  C   UNL     1      -5.574   7.741  64.340  1.00  0.00    -0.037 A  
ENDBRANCH   5  16
ENDBRANCH   2   5
BRANCH   4  22
HETATM   22  C   UNL     2      -8.729   2.860  69.436  1.00  0.00    -0.078 A  
HETATM   23  C   UNL     2      -7.525   2.212  69.624  1.00  0.00    -0.043 A  
HETATM   24  C   UNL     2      -8.517   3.957  71.634  1.00  0.00    -0.100 A  
HETATM   25  C   UNL     2      -8.167   4.917  73.827  1.00  0.00    -0.106 A  
HETATM   26  C   UNL     2      -6.820   2.430  70.811  1.00  0.00    -0.032 A  
HETATM   27  C   UNL     2      -6.995   4.184  73.900  1.00  0.00    -0.061 A  
HETATM   28  C   UNL     2      -9.168   3.767  70.394  1.00  0.00    -0.213 A  
HETATM   29  C   UNL     2      -8.980   4.813  72.687  1.00  0.00    -0.132 A  
HETATM   30  C   UNL     2      -7.304   3.251  71.825  1.00  0.00    -0.047 A  
HETATM   31  N   UNL     2      -6.564   3.355  72.934  1.00  0.00    -0.027 NA 
BRANCH  29  32
HETATM   32  C   UNL     2     -10.249   5.682  72.577  1.00  0.00    -0.190 C  
HETATM   33  H   UNL     2     -11.386   6.784  73.772  1.00  0.00     0.000 HD 
HETATM   34  O   UNL     2     -10.604   6.248  73.840  1.00  0.00    -0.282 OA 
BRANCH  32  35
HETATM   35  C   UNL     2     -10.215   6.867  71.543  1.00  0.00    -0.196 C  
HETATM   36  C   UNL     2     -10.921   9.290  71.685  1.00  0.00    -0.433 C  
HETATM   37  C   UNL     2     -10.767   9.305  70.154  1.00  0.00    -0.269 C  
HETATM   38  C   UNL     2     -11.151   7.931  69.583  1.00  0.00    -0.026 C  
HETATM   39  C   UNL     2      -9.937   8.234  72.222  1.00  0.00    -0.366 C  
HETATM   40  N   UNL     2     -11.431   6.954  70.662  1.00  0.00    -0.316 NA 
HETATM   41  C   UNL     2     -12.620   7.461  71.398  1.00  0.00    -0.370 C  
HETATM   42  C   UNL     2     -12.346   8.827  72.080  1.00  0.00    -0.458 C  
BRANCH  42  43
HETATM   43  C   UNL     2     -13.401   9.848  71.719  1.00  0.00    -0.501 C  
HETATM   44  C   UNL     2     -13.242  11.174  71.825  1.00  0.00    -0.486 C  
ENDBRANCH  42  43
ENDBRANCH  32  35
ENDBRANCH  29  32
ENDBRANCH   4  22
TORSDOF 6
ENDMDL
MODEL      131
REMARK 921   NORMALIZED FREE ENERGY PREDICTED BY IDOCK:   -3.86 KCAL/MOL
REMARK 922        TOTAL FREE ENERGY PREDICTED BY IDOCK:   -8.29 KCAL/MOL
REMARK 923 INTER-LIGAND FREE ENERGY PREDICTED BY IDOCK:   -7.66 KCAL/MOL
REMARK 924 INTRA-LIGAND FREE ENERGY PREDICTED BY IDOCK:   -0.63 KCAL/MOL
REMARK 927      BINDING AFFINITY PREDICTED BY RF-SCORE:    0.00 PKD
ROOT
HETATM    1  C   UNL     1     -10.439   9.882  66.523  1.00  0.00    -0.213 C  
HETATM    2  C   UNL     1     -11.372  10.424  67.603  1.00  0.00    -0.162 C  
HETATM    3  C   UNL     2      -9.550   6.775  67.782  1.00  0.00    -0.124 C  
HETATM    4  O   UNL     2     -10.650   7.453  68.366  1.00  0.00    -0.198 OA 
ENDROOT
BRANCH   2   5
HETATM    5  C   UNL     1     -10.761  11.439  68.628  1.00  0.00    -0.241 C  
HETATM    6  O   UNL     1     -11.034  13.493  67.292  1.00  0.00    -0.273 OA 
HETATM    7  C   UNL     1      -9.545  10.685  69.194  1.00  0.00    -0.177 C  
HETATM    8  C   UNL     1     -10.283  12.700  67.866  1.00  0.00    -0.220 C  
HETATM    9  H   UNL     1      -8.639  13.915  67.704  1.00  0.00     0.000 HD 
HETATM   10  N   UNL     1      -8.390  10.800  68.472  1.00  0.00    -0.131 N  
HETATM   11  O   UNL     1      -9.579   9.946  70.171  1.00  0.00    -0.245 OA 
HETATM   12  O   UNL     1      -6.773  12.311  68.066  1.00  0.00    -0.067 OA 
HETATM   13  N   UNL     1      -8.936  12.957  67.885  1.00  0.00    -0.185 N  
HETATM   14  C   UNL     1      -7.969  12.038  68.124  1.00  0.00    -0.152 C  
HETATM   15  H   UNL     1      -7.858   9.973  68.202  1.00  0.00     0.000 HD 
BRANCH   5  16
HETATM   16  C   UNL     1     -11.779  11.808  69.728  1.00  0.00    -0.408 A  
HETATM   17  C   UNL     1     -13.161  11.156  71.630  1.00  0.00    -0.529 A  
HETATM   18  C   UNL     1     -12.465  10.824  70.464  1.00  0.00    -0.447 A  
HETATM   19  C   UNL     1     -11.967  13.148  70.107  1.00  0.00    -0.381 A  
HETATM   20  C   UNL     1     -13.213  12.477  72.060  1.00  0.00    -0.524 A  
HETATM   21  C   UNL     1     -12.644  13.478  71.281  1.00  0.00    -0.427 A  
ENDBRANCH   5  16
ENDBRANCH   2   5
BRANCH   4  22
HETATM   22  C   UNL     2     -10.731   7.429  69.724  1.00  0.00    -0.241 A  
HETATM   23  C   UNL     2     -11.834   7.746  70.490  1.00  0.00    -0.063 A  
HETATM   24  C   UNL     2      -9.432   6.910  71.755  1.00  0.00    -0.155 A  
HETATM   25  C   UNL     2      -8.296   6.479  73.847  1.00  0.00    -0.120 A  
HETATM   26  C   UNL     2     -11.740   7.651  71.881  1.00  0.00    -0.328 A  
HETATM   27  C   UNL     2      -9.461   6.856  74.494  1.00  0.00    -0.188 A  
HETATM   28  C   UNL     2      -9.585   6.951  70.351  1.00  0.00    -0.171 A  
HETATM   29  C   UNL     2      -8.240   6.511  72.445  1.00  0.00    -0.105 A  
HETATM   30  C   UNL     2     -10.563   7.279  72.525  1.00  0.00    -0.247 A  
HETATM   31  N   UNL     2     -10.576   7.261  73.861  1.00  0.00    -0.297 NA 
BRANCH  29  32
HETATM   32  C   UNL     2      -6.966   6.025  71.724  1.00  0.00    -0.073 C  
HETATM   33  H   UNL     2      -5.018   6.395  71.772  1.00  0.00     0.000 HD 
HETATM   34  O   UNL     2      -5.803   6.694  72.216  1.00  0.00    -0.037 OA 
BRANCH  32  35
HETATM   35  C   UNL     2      -6.659   4.483  71.777  1.00  0.00    -0.026 C  
HETATM   36  C   UNL     2      -6.069   2.788  69.998  1.00  0.00    -0.024 C  
HETATM   37  C   UNL     2      -6.351   1.729  71.077  1.00  0.00    -0.019 C  
HETATM   38  C   UNL     2      -7.476   2.218  72.002  1.00  0.00    -0.040 C  
HETATM   39  C   UNL     2      -5.597   4.057  70.731  1.00  0.00    -0.012 C  
HETATM   40  N   UNL     2      -7.878   3.607  71.678  1.00  0.00    -0.060 NA 
HETATM   41  C   UNL     2      -8.435   3.579  70.299  1.00  0.00    -0.056 C  
HETATM   42  C   UNL     2      -7.376   3.155  69.249  1.00  0.00    -0.048 C  
BRANCH  42  43
HETATM   43  C   UNL     2      -7.877   2.022  68.382  1.00  0.00    -0.056 C  
HETATM   44  C   UNL     2      -9.124   1.534  68.417  1.00  0.00    -0.186 C  
ENDBRANCH  42  43
ENDBRANCH  32  35
ENDBRANCH  29  32
ENDBRANCH   4  22
TORSDOF 6
ENDMDL
MODEL      132
REMARK 921   NORMALIZED FREE ENERGY PREDICTED BY IDOCK:   -3.85 KCAL/MOL
REMARK 922        TOTAL FREE ENERGY PREDICTED BY IDOCK:   -8.27 KCAL/MOL
REMARK 923 INTER-LIGAND FREE ENERGY PREDICTED BY IDOCK:   -5.47 KCAL/MOL
REMARK 924 INTRA-LIGAND FREE ENERGY PREDICTED BY IDOCK:   -2.80 KCAL/MOL
REMARK 927      BINDING AFFINITY PREDICTED BY RF-SCORE:    0.00 PKD
ROOT
HETATM    1  C   UNL     1      -7.288  11.467  66.019  1.00  0.00     0.223 C  
HETATM    2  C   UNL     1      -8.582  10.695  66.268  1.00  0.00    -0.156 C  
HETATM    3  C   UNL     2      -5.161  10.174  68.435  1.00  0.00    -0.035 C  
HETATM    4  O   UNL     2      -6.369   9.484  68.156  1.00  0.00    -0.056 OA 
ENDROOT
BRANCH   2   5
HETATM    5  C   UNL     1      -9.698  11.421  67.093  1.00  0.00    -0.200 C  
HETATM    6  O   UNL     1     -11.392  11.598  65.310  1.00  0.00    -0.257 OA 
HETATM    7  C   UNL     1      -8.912  12.448  67.927  1.00  0.00    -0.184 C  
HETATM    8  C   UNL     1     -10.647  12.160  66.117  1.00  0.00    -0.255 C  
HETATM    9  H   UNL     1     -11.504  14.004  65.844  1.00  0.00     0.000 HD 
HETATM   10  N   UNL     1      -8.663  13.643  67.311  1.00  0.00    -0.209 N  
HETATM   11  O   UNL     1      -8.442  12.228  69.037  1.00  0.00     0.167 OA 
HETATM   12  O   UNL     1      -9.750  15.526  66.734  1.00  0.00    -0.226 OA 
HETATM   13  N   UNL     1     -10.678  13.529  66.206  1.00  0.00    -0.286 N  
HETATM   14  C   UNL     1      -9.697  14.299  66.737  1.00  0.00    -0.275 C  
HETATM   15  H   UNL     1      -7.720  14.031  67.286  1.00  0.00     0.000 HD 
BRANCH   5  16
HETATM   16  C   UNL     1     -10.478  10.427  67.980  1.00  0.00    -0.232 A  
HETATM   17  C   UNL     1     -10.899   8.143  68.723  1.00  0.00     0.025 A  
HETATM   18  C   UNL     1     -10.426   9.039  67.760  1.00  0.00    -0.305 A  
HETATM   19  C   UNL     1     -11.177  10.878  69.113  1.00  0.00    -0.318 A  
HETATM   20  C   UNL     1     -11.462   8.618  69.902  1.00  0.00     0.144 A  
HETATM   21  C   UNL     1     -11.632   9.985  70.082  1.00  0.00    -0.320 A  
ENDBRANCH   5  16
ENDBRANCH   2   5
BRANCH   4  22
HETATM   22  C   UNL     2      -7.064   9.013  69.226  1.00  0.00    -0.058 A  
HETATM   23  C   UNL     2      -7.480   9.740  70.324  1.00  0.00    -0.173 A  
HETATM   24  C   UNL     2      -8.105   6.975  70.143  1.00  0.00    -0.130 A  
HETATM   25  C   UNL     2      -9.148   5.068  71.206  1.00  0.00    -0.176 A  
HETATM   26  C   UNL     2      -8.201   9.090  71.329  1.00  0.00    -0.165 A  
HETATM   27  C   UNL     2      -9.475   5.903  72.261  1.00  0.00    -0.147 A  
HETATM   28  C   UNL     2      -7.439   7.678  69.115  1.00  0.00    -0.095 A  
HETATM   29  C   UNL     2      -8.432   5.579  70.112  1.00  0.00    -0.117 A  
HETATM   30  C   UNL     2      -8.487   7.729  71.281  1.00  0.00    -0.119 A  
HETATM   31  N   UNL     2      -9.148   7.205  72.318  1.00  0.00    -0.132 NA 
BRANCH  29  32
HETATM   32  C   UNL     2      -8.130   4.665  68.907  1.00  0.00    -0.081 C  
HETATM   33  H   UNL     2      -7.604   2.780  68.586  1.00  0.00     0.000 HD 
HETATM   34  O   UNL     2      -7.790   3.343  69.329  1.00  0.00    -0.051 OA 
BRANCH  32  35
HETATM   35  C   UNL     2      -9.259   4.519  67.821  1.00  0.00    -0.131 C  
HETATM   36  C   UNL     2      -9.279   3.551  65.486  1.00  0.00    -0.156 C  
HETATM   37  C   UNL     2     -10.648   4.238  65.338  1.00  0.00    -0.152 C  
HETATM   38  C   UNL     2     -10.659   5.549  66.139  1.00  0.00    -0.077 C  
HETATM   39  C   UNL     2      -9.103   3.224  66.981  1.00  0.00    -0.196 C  
HETATM   40  N   UNL     2      -9.411   5.715  66.923  1.00  0.00    -0.130 NA 
HETATM   41  C   UNL     2      -8.301   5.821  65.939  1.00  0.00    -0.130 C  
HETATM   42  C   UNL     2      -8.141   4.528  65.097  1.00  0.00    -0.103 C  
BRANCH  42  43
HETATM   43  C   UNL     2      -8.126   4.830  63.616  1.00  0.00    -0.101 C  
HETATM   44  C   UNL     2      -7.722   5.990  63.081  1.00  0.00    -0.095 C  
ENDBRANCH  42  43
ENDBRANCH  32  35
ENDBRANCH  29  32
ENDBRANCH   4  22
TORSDOF 6
ENDMDL
MODEL      133
REMARK 921   NORMALIZED FREE ENERGY PREDICTED BY IDOCK:   -3.84 KCAL/MOL
REMARK 922        TOTAL FREE ENERGY PREDICTED BY IDOCK:   -8.27 KCAL/MOL
REMARK 923 INTER-LIGAND FREE ENERGY PREDICTED BY IDOCK:   -7.85 KCAL/MOL
REMARK 924 INTRA-LIGAND FREE ENERGY PREDICTED BY IDOCK:   -0.42 KCAL/MOL
REMARK 927      BINDING AFFINITY PREDICTED BY RF-SCORE:    0.00 PKD
ROOT
HETATM    1  C   UNL     1      -7.030   7.525  65.318  1.00  0.00    -0.059 C  
HETATM    2  C   UNL     1      -7.144   7.871  66.801  1.00  0.00    -0.077 C  
HETATM    3  C   UNL     2      -8.517  10.261  63.789  1.00  0.00    -0.179 C  
HETATM    4  O   UNL     2      -8.163  10.360  65.159  1.00  0.00    -0.158 OA 
ENDROOT
BRANCH   2   5
HETATM    5  C   UNL     1      -8.312   7.200  67.601  1.00  0.00    -0.117 C  
HETATM    6  O   UNL     1      -6.958   6.113  69.351  1.00  0.00    -0.063 OA 
HETATM    7  C   UNL     1      -9.248   6.681  66.496  1.00  0.00    -0.158 C  
HETATM    8  C   UNL     1      -7.749   6.005  68.410  1.00  0.00    -0.099 C  
HETATM    9  H   UNL     1      -8.136   4.024  68.773  1.00  0.00     0.000 HD 
HETATM   10  N   UNL     1      -8.947   5.443  66.000  1.00  0.00    -0.143 N  
HETATM   11  O   UNL     1     -10.159   7.329  65.995  1.00  0.00     0.203 OA 
HETATM   12  O   UNL     1      -9.095   3.279  66.602  1.00  0.00    -0.146 OA 
HETATM   13  N   UNL     1      -8.210   4.760  68.070  1.00  0.00    -0.095 N  
HETATM   14  C   UNL     1      -8.756   4.428  66.874  1.00  0.00    -0.112 C  
HETATM   15  H   UNL     1      -8.868   5.287  64.995  1.00  0.00     0.000 HD 
BRANCH   5  16
HETATM   16  C   UNL     1      -9.014   8.216  68.526  1.00  0.00    -0.137 A  
HETATM   17  C   UNL     1     -10.838   8.778  70.045  1.00  0.00    -0.231 A  
HETATM   18  C   UNL     1     -10.323   8.008  68.999  1.00  0.00    -0.228 A  
HETATM   19  C   UNL     1      -8.318   9.333  69.020  1.00  0.00    -0.123 A  
HETATM   20  C   UNL     1     -10.071   9.790  70.611  1.00  0.00    -0.252 A  
HETATM   21  C   UNL     1      -8.824  10.090  70.076  1.00  0.00    -0.117 A  
ENDBRANCH   5  16
ENDBRANCH   2   5
BRANCH   4  22
HETATM   22  C   UNL     2      -9.068  10.954  65.982  1.00  0.00    -0.191 A  
HETATM   23  C   UNL     2     -10.367  10.547  66.211  1.00  0.00    -0.276 A  
HETATM   24  C   UNL     2      -9.345  12.828  67.561  1.00  0.00    -0.189 A  
HETATM   25  C   UNL     2      -9.802  14.630  69.110  1.00  0.00    -0.130 A  
HETATM   26  C   UNL     2     -11.155  11.276  67.105  1.00  0.00    -0.364 A  
HETATM   27  C   UNL     2     -11.090  14.134  69.222  1.00  0.00    -0.250 A  
HETATM   28  C   UNL     2      -8.557  12.028  66.704  1.00  0.00    -0.143 A  
HETATM   29  C   UNL     2      -8.886  13.996  68.255  1.00  0.00    -0.184 A  
HETATM   30  C   UNL     2     -10.688  12.418  67.750  1.00  0.00    -0.221 A  
HETATM   31  N   UNL     2     -11.543  13.059  68.554  1.00  0.00    -0.305 NA 
BRANCH  29  32
HETATM   32  C   UNL     2      -7.433  14.507  68.184  1.00  0.00    -0.126 C  
HETATM   33  H   UNL     2      -5.748  14.023  67.258  1.00  0.00     0.000 HD 
HETATM   34  O   UNL     2      -6.643  13.708  67.301  1.00  0.00    -0.254 OA 
BRANCH  32  35
HETATM   35  C   UNL     2      -7.223  16.004  67.752  1.00  0.00    -0.143 C  
HETATM   36  C   UNL     2      -8.555  18.113  68.163  1.00  0.00    -0.282 C  
HETATM   37  C   UNL     2      -7.669  18.746  67.076  1.00  0.00    -0.244 C  
HETATM   38  C   UNL     2      -7.310  17.690  66.019  1.00  0.00    -0.266 C  
HETATM   39  C   UNL     2      -7.720  17.004  68.829  1.00  0.00    -0.249 C  
HETATM   40  N   UNL     2      -7.803  16.347  66.408  1.00  0.00    -0.295 NA 
HETATM   41  C   UNL     2      -9.288  16.432  66.445  1.00  0.00    -0.292 C  
HETATM   42  C   UNL     2      -9.790  17.429  67.521  1.00  0.00    -0.277 C  
BRANCH  42  43
HETATM   43  C   UNL     2     -10.761  18.430  66.939  1.00  0.00    -0.303 C  
HETATM   44  C   UNL     2     -10.457  19.314  65.978  1.00  0.00    -0.573 C  
ENDBRANCH  42  43
ENDBRANCH  32  35
ENDBRANCH  29  32
ENDBRANCH   4  22
TORSDOF 6
ENDMDL
MODEL      134
REMARK 921   NORMALIZED FREE ENERGY PREDICTED BY IDOCK:   -3.81 KCAL/MOL
REMARK 922        TOTAL FREE ENERGY PREDICTED BY IDOCK:   -8.22 KCAL/MOL
REMARK 923 INTER-LIGAND FREE ENERGY PREDICTED BY IDOCK:   -5.28 KCAL/MOL
REMARK 924 INTRA-LIGAND FREE ENERGY PREDICTED BY IDOCK:   -2.94 KCAL/MOL
REMARK 927      BINDING AFFINITY PREDICTED BY RF-SCORE:    0.00 PKD
ROOT
HETATM    1  C   UNL     1     -10.100   9.433  70.957  1.00  0.00    -0.353 C  
HETATM    2  C   UNL     1      -9.096   8.825  71.933  1.00  0.00    -0.291 C  
HETATM    3  C   UNL     2     -12.453   6.906  70.623  1.00  0.00    -0.123 C  
HETATM    4  O   UNL     2     -11.520   6.826  71.688  1.00  0.00    -0.255 OA 
ENDROOT
BRANCH   2   5
HETATM    5  C   UNL     1      -7.790   8.212  71.322  1.00  0.00    -0.102 C  
HETATM    6  O   UNL     1      -6.150   9.559  72.577  1.00  0.00    -0.300 OA 
HETATM    7  C   UNL     1      -8.132   8.062  69.829  1.00  0.00    -0.115 C  
HETATM    8  C   UNL     1      -6.630   9.225  71.491  1.00  0.00     0.022 C  
HETATM    9  H   UNL     1      -5.140  10.113  70.396  1.00  0.00     0.000 HD 
HETATM   10  N   UNL     1      -7.911   9.169  69.058  1.00  0.00    -0.088 N  
HETATM   11  O   UNL     1      -8.653   7.071  69.332  1.00  0.00    -0.132 OA 
HETATM   12  O   UNL     1      -6.192  10.303  68.150  1.00  0.00    -0.051 OA 
HETATM   13  N   UNL     1      -6.086   9.735  70.340  1.00  0.00    -0.065 N  
HETATM   14  C   UNL     1      -6.705   9.777  69.135  1.00  0.00    -0.053 C  
HETATM   15  H   UNL     1      -8.638   9.529  68.440  1.00  0.00     0.000 HD 
BRANCH   5  16
HETATM   16  C   UNL     1      -7.444   6.858  71.977  1.00  0.00    -0.092 A  
HETATM   17  C   UNL     1      -6.001   4.899  72.138  1.00  0.00    -0.020 A  
HETATM   18  C   UNL     1      -6.510   5.975  71.406  1.00  0.00    -0.049 A  
HETATM   19  C   UNL     1      -7.974   6.517  73.233  1.00  0.00    -0.099 A  
HETATM   20  C   UNL     1      -6.442   4.666  73.436  1.00  0.00    -0.051 A  
HETATM   21  C   UNL     1      -7.453   5.455  73.971  1.00  0.00    -0.090 A  
ENDBRANCH   5  16
ENDBRANCH   2   5
BRANCH   4  22
HETATM   22  C   UNL     2     -10.971   5.605  71.929  1.00  0.00    -0.235 A  
HETATM   23  C   UNL     2     -11.194   4.803  73.030  1.00  0.00    -0.344 A  
HETATM   24  C   UNL     2      -9.456   3.914  70.967  1.00  0.00    -0.237 A  
HETATM   25  C   UNL     2      -7.975   2.167  70.189  1.00  0.00    -0.052 A  
HETATM   26  C   UNL     2     -10.551   3.565  73.105  1.00  0.00    -0.269 A  
HETATM   27  C   UNL     2      -8.260   1.480  71.357  1.00  0.00    -0.043 A  
HETATM   28  C   UNL     2     -10.176   5.128  70.892  1.00  0.00    -0.299 A  
HETATM   29  C   UNL     2      -8.557   3.424  69.963  1.00  0.00    -0.109 A  
HETATM   30  C   UNL     2      -9.666   3.125  72.125  1.00  0.00    -0.160 A  
HETATM   31  N   UNL     2      -9.077   1.941  72.320  1.00  0.00    -0.072 NA 
BRANCH  29  32
HETATM   32  C   UNL     2      -8.293   4.156  68.632  1.00  0.00    -0.083 C  
HETATM   33  H   UNL     2      -6.859   4.252  67.265  1.00  0.00     0.000 HD 
HETATM   34  O   UNL     2      -7.021   3.801  68.085  1.00  0.00    -0.049 OA 
BRANCH  32  35
HETATM   35  C   UNL     2      -9.351   3.956  67.485  1.00  0.00    -0.191 C  
HETATM   36  C   UNL     2      -9.194   2.990  65.155  1.00  0.00    -0.149 C  
HETATM   37  C   UNL     2     -10.584   3.610  64.929  1.00  0.00     0.105 C  
HETATM   38  C   UNL     2     -10.702   4.919  65.725  1.00  0.00    -0.143 C  
HETATM   39  C   UNL     2      -9.087   2.671  66.657  1.00  0.00    -0.138 C  
HETATM   40  N   UNL     2      -9.510   5.144  66.577  1.00  0.00    -0.139 NA 
HETATM   41  C   UNL     2      -8.353   5.303  65.656  1.00  0.00    -0.126 C  
HETATM   42  C   UNL     2      -8.084   4.020  64.827  1.00  0.00    -0.093 C  
BRANCH  42  43
HETATM   43  C   UNL     2      -8.001   4.323  63.349  1.00  0.00    -0.084 C  
HETATM   44  C   UNL     2      -7.791   3.405  62.396  1.00  0.00    -0.062 C  
ENDBRANCH  42  43
ENDBRANCH  32  35
ENDBRANCH  29  32
ENDBRANCH   4  22
TORSDOF 6
ENDMDL
MODEL      135
REMARK 921   NORMALIZED FREE ENERGY PREDICTED BY IDOCK:   -3.79 KCAL/MOL
REMARK 922        TOTAL FREE ENERGY PREDICTED BY IDOCK:   -8.19 KCAL/MOL
REMARK 923 INTER-LIGAND FREE ENERGY PREDICTED BY IDOCK:   -8.06 KCAL/MOL
REMARK 924 INTRA-LIGAND FREE ENERGY PREDICTED BY IDOCK:   -0.14 KCAL/MOL
REMARK 927      BINDING AFFINITY PREDICTED BY RF-SCORE:    0.00 PKD
ROOT
HETATM    1  C   UNL     1      -5.609   8.697  66.178  1.00  0.00    -0.038 C  
HETATM    2  C   UNL     1      -6.369   7.491  66.724  1.00  0.00    -0.049 C  
HETATM    3  C   UNL     2      -6.205  11.119  68.588  1.00  0.00    -0.043 C  
HETATM    4  O   UNL     2      -6.501   9.767  68.899  1.00  0.00    -0.045 OA 
ENDROOT
BRANCH   2   5
HETATM    5  C   UNL     1      -7.783   7.204  66.113  1.00  0.00    -0.098 C  
HETATM    6  O   UNL     1      -7.213   7.540  63.738  1.00  0.00    -0.068 OA 
HETATM    7  C   UNL     1      -8.741   7.904  67.092  1.00  0.00    -0.131 C  
HETATM    8  C   UNL     1      -7.878   7.877  64.721  1.00  0.00    -0.125 C  
HETATM    9  H   UNL     1      -9.123   9.098  63.642  1.00  0.00     0.000 HD 
HETATM   10  N   UNL     1      -8.965   9.231  66.853  1.00  0.00    -0.129 N  
HETATM   11  O   UNL     1      -9.227   7.377  68.086  1.00  0.00    -0.134 OA 
HETATM   12  O   UNL     1     -10.099  10.541  65.417  1.00  0.00    -0.271 OA 
HETATM   13  N   UNL     1      -8.801   8.882  64.585  1.00  0.00    -0.115 N  
HETATM   14  C   UNL     1      -9.320   9.610  65.604  1.00  0.00    -0.237 C  
HETATM   15  H   UNL     1      -8.867   9.921  67.599  1.00  0.00     0.000 HD 
BRANCH   5  16
HETATM   16  C   UNL     1      -8.056   5.688  66.016  1.00  0.00    -0.109 A  
HETATM   17  C   UNL     1      -7.460   3.395  66.594  1.00  0.00    -0.076 A  
HETATM   18  C   UNL     1      -7.104   4.735  66.423  1.00  0.00    -0.075 A  
HETATM   19  C   UNL     1      -9.320   5.215  65.623  1.00  0.00    -0.149 A  
HETATM   20  C   UNL     1      -8.760   2.978  66.330  1.00  0.00    -0.133 A  
HETATM   21  C   UNL     1      -9.681   3.881  65.813  1.00  0.00    -0.169 A  
ENDBRANCH   5  16
ENDBRANCH   2   5
BRANCH   4  22
HETATM   22  C   UNL     2      -7.669   9.533  69.555  1.00  0.00    -0.100 A  
HETATM   23  C   UNL     2      -7.890   8.582  70.531  1.00  0.00    -0.086 A  
HETATM   24  C   UNL     2     -10.000  10.315  69.747  1.00  0.00    -0.222 A  
HETATM   25  C   UNL     2     -12.322  10.929  70.039  1.00  0.00    -0.385 A  
HETATM   26  C   UNL     2      -9.159   8.491  71.110  1.00  0.00    -0.238 A  
HETATM   27  C   UNL     2     -12.416   9.914  70.976  1.00  0.00    -0.346 A  
HETATM   28  C   UNL     2      -8.688  10.423  69.233  1.00  0.00    -0.160 A  
HETATM   29  C   UNL     2     -11.104  11.151  69.377  1.00  0.00    -0.314 A  
HETATM   30  C   UNL     2     -10.218   9.304  70.716  1.00  0.00    -0.286 A  
HETATM   31  N   UNL     2     -11.398   9.102  71.310  1.00  0.00    -0.306 NA 
BRANCH  29  32
HETATM   32  C   UNL     2     -10.982  12.325  68.384  1.00  0.00    -0.236 C  
HETATM   33  H   UNL     2     -12.071  13.160  66.952  1.00  0.00     0.000 HD 
HETATM   34  O   UNL     2     -12.147  12.437  67.564  1.00  0.00    -0.491 OA 
BRANCH  32  35
HETATM   35  C   UNL     2     -10.718  13.751  68.994  1.00  0.00    -0.182 C  
HETATM   36  C   UNL     2     -11.404  16.077  68.279  1.00  0.00    -0.326 C  
HETATM   37  C   UNL     2     -10.373  16.572  69.309  1.00  0.00    -0.318 C  
HETATM   38  C   UNL     2      -9.193  15.590  69.373  1.00  0.00    -0.280 C  
HETATM   39  C   UNL     2     -11.916  14.714  68.780  1.00  0.00    -0.301 C  
HETATM   40  N   UNL     2      -9.438  14.393  68.533  1.00  0.00    -0.210 NA 
HETATM   41  C   UNL     2      -9.526  14.869  67.127  1.00  0.00    -0.225 C  
HETATM   42  C   UNL     2     -10.722  15.831  66.909  1.00  0.00    -0.299 C  
BRANCH  42  43
HETATM   43  C   UNL     2     -10.286  17.118  66.247  1.00  0.00    -0.340 C  
HETATM   44  C   UNL     2      -9.034  17.596  66.267  1.00  0.00    -0.211 C  
ENDBRANCH  42  43
ENDBRANCH  32  35
ENDBRANCH  29  32
ENDBRANCH   4  22
TORSDOF 6
ENDMDL
MODEL      136
REMARK 921   NORMALIZED FREE ENERGY PREDICTED BY IDOCK:   -3.79 KCAL/MOL
REMARK 922        TOTAL FREE ENERGY PREDICTED BY IDOCK:   -8.19 KCAL/MOL
REMARK 923 INTER-LIGAND FREE ENERGY PREDICTED BY IDOCK:   -9.97 KCAL/MOL
REMARK 924 INTRA-LIGAND FREE ENERGY PREDICTED BY IDOCK:    1.78 KCAL/MOL
REMARK 927      BINDING AFFINITY PREDICTED BY RF-SCORE:    0.00 PKD
ROOT
HETATM    1  C   UNL     1      -7.644   8.612  69.233  1.00  0.00    -0.094 C  
HETATM    2  C   UNL     1      -8.758   9.643  69.395  1.00  0.00    -0.173 C  
HETATM    3  C   UNL     2      -6.676   9.058  65.932  1.00  0.00    -0.072 C  
HETATM    4  O   UNL     2      -7.488  10.050  66.540  1.00  0.00    -0.101 OA 
ENDROOT
BRANCH   2   5
HETATM    5  C   UNL     1     -10.232   9.121  69.293  1.00  0.00    -0.215 C  
HETATM    6  O   UNL     1      -9.979   7.089  70.668  1.00  0.00    -0.186 OA 
HETATM    7  C   UNL     1     -10.598   9.377  67.821  1.00  0.00    -0.258 C  
HETATM    8  C   UNL     1     -10.248   7.598  69.576  1.00  0.00    -0.209 C  
HETATM    9  H   UNL     1     -10.981   5.854  68.782  1.00  0.00     0.000 HD 
HETATM   10  N   UNL     1     -10.244   8.390  66.944  1.00  0.00    -0.294 N  
HETATM   11  O   UNL     1     -11.094  10.415  67.399  1.00  0.00    -0.299 OA 
HETATM   12  O   UNL     1     -10.898   6.323  66.341  1.00  0.00    -0.139 OA 
HETATM   13  N   UNL     1     -10.636   6.783  68.543  1.00  0.00    -0.209 N  
HETATM   14  C   UNL     1     -10.597   7.116  67.230  1.00  0.00    -0.327 C  
HETATM   15  H   UNL     1      -9.725   8.609  66.093  1.00  0.00     0.000 HD 
BRANCH   5  16
HETATM   16  C   UNL     1     -11.164   9.876  70.264  1.00  0.00    -0.364 A  
HETATM   17  C   UNL     1     -12.503  11.841  70.804  1.00  0.00    -0.405 A  
HETATM   18  C   UNL     1     -11.454  11.243  70.101  1.00  0.00    -0.336 A  
HETATM   19  C   UNL     1     -11.846   9.186  71.281  1.00  0.00    -0.396 A  
HETATM   20  C   UNL     1     -13.255  11.096  71.705  1.00  0.00    -0.486 A  
HETATM   21  C   UNL     1     -12.905   9.777  71.968  1.00  0.00    -0.491 A  
ENDBRANCH   5  16
ENDBRANCH   2   5
BRANCH   4  22
HETATM   22  C   UNL     2      -8.507  10.549  65.790  1.00  0.00    -0.175 A  
HETATM   23  C   UNL     2      -9.113   9.939  64.711  1.00  0.00    -0.283 A  
HETATM   24  C   UNL     2     -10.015  12.488  65.578  1.00  0.00    -0.248 A  
HETATM   25  C   UNL     2     -11.549  14.322  65.203  1.00  0.00    -0.355 A  
HETATM   26  C   UNL     2     -10.161  10.598  64.063  1.00  0.00    -0.378 A  
HETATM   27  C   UNL     2     -12.043  13.615  64.120  1.00  0.00    -0.435 A  
HETATM   28  C   UNL     2      -9.006  11.763  66.250  1.00  0.00    -0.176 A  
HETATM   29  C   UNL     2     -10.499  13.783  65.962  1.00  0.00    -0.297 A  
HETATM   30  C   UNL     2     -10.596  11.863  64.446  1.00  0.00    -0.319 A  
HETATM   31  N   UNL     2     -11.579  12.415  63.729  1.00  0.00    -0.429 NA 
BRANCH  29  32
HETATM   32  C   UNL     2      -9.996  14.538  67.209  1.00  0.00    -0.236 C  
HETATM   33  H   UNL     2      -9.557  14.129  69.099  1.00  0.00     0.000 HD 
HETATM   34  O   UNL     2      -9.866  13.663  68.331  1.00  0.00    -0.225 OA 
BRANCH  32  35
HETATM   35  C   UNL     2      -8.632  15.309  67.075  1.00  0.00    -0.227 C  
HETATM   36  C   UNL     2      -6.307  14.849  67.954  1.00  0.00    -0.174 C  
HETATM   37  C   UNL     2      -5.989  16.297  67.540  1.00  0.00    -0.188 C  
HETATM   38  C   UNL     2      -7.236  17.174  67.728  1.00  0.00    -0.157 C  
HETATM   39  C   UNL     2      -7.416  14.349  67.010  1.00  0.00     0.228 C  
HETATM   40  N   UNL     2      -8.413  16.365  68.124  1.00  0.00    -0.183 NA 
HETATM   41  C   UNL     2      -8.098  15.776  69.453  1.00  0.00    -0.209 C  
HETATM   42  C   UNL     2      -6.883  14.814  69.392  1.00  0.00    -0.162 C  
BRANCH  42  43
HETATM   43  C   UNL     2      -5.845  15.164  70.434  1.00  0.00    -0.131 C  
HETATM   44  C   UNL     2      -5.265  14.279  71.256  1.00  0.00    -0.154 C  
ENDBRANCH  42  43
ENDBRANCH  32  35
ENDBRANCH  29  32
ENDBRANCH   4  22
TORSDOF 6
ENDMDL
MODEL      137
REMARK 921   NORMALIZED FREE ENERGY PREDICTED BY IDOCK:   -3.78 KCAL/MOL
REMARK 922        TOTAL FREE ENERGY PREDICTED BY IDOCK:   -8.18 KCAL/MOL
REMARK 923 INTER-LIGAND FREE ENERGY PREDICTED BY IDOCK:   -7.65 KCAL/MOL
REMARK 924 INTRA-LIGAND FREE ENERGY PREDICTED BY IDOCK:   -0.53 KCAL/MOL
REMARK 927      BINDING AFFINITY PREDICTED BY RF-SCORE:    0.00 PKD
ROOT
HETATM    1  C   UNL     1      -6.658  10.897  66.630  1.00  0.00    -0.120 C  
HETATM    2  C   UNL     1      -6.898   9.774  65.624  1.00  0.00    -0.096 C  
HETATM    3  C   UNL     2      -5.487   9.184  69.409  1.00  0.00    -0.035 C  
HETATM    4  O   UNL     2      -5.532   8.505  68.165  1.00  0.00    -0.034 OA 
ENDROOT
BRANCH   2   5
HETATM    5  C   UNL     1      -8.372   9.268  65.458  1.00  0.00    -0.139 C  
HETATM    6  O   UNL     1      -8.869   8.855  67.838  1.00  0.00    -0.132 OA 
HETATM    7  C   UNL     1      -8.302   8.373  64.209  1.00  0.00    -0.083 C  
HETATM    8  C   UNL     1      -8.753   8.413  66.692  1.00  0.00    -0.131 C  
HETATM    9  H   UNL     1      -9.588   6.597  67.154  1.00  0.00     0.000 HD 
HETATM   10  N   UNL     1      -7.938   7.075  64.433  1.00  0.00    -0.198 N  
HETATM   11  O   UNL     1      -8.465   8.768  63.061  1.00  0.00    -0.191 OA 
HETATM   12  O   UNL     1      -8.809   5.175  65.268  1.00  0.00    -0.151 OA 
HETATM   13  N   UNL     1      -9.021   7.087  66.463  1.00  0.00    -0.142 N  
HETATM   14  C   UNL     1      -8.591   6.378  65.391  1.00  0.00    -0.081 C  
HETATM   15  H   UNL     1      -7.191   6.641  63.890  1.00  0.00     0.000 HD 
BRANCH   5  16
HETATM   16  C   UNL     1      -9.352  10.446  65.275  1.00  0.00    -0.263 A  
HETATM   17  C   UNL     1     -10.482  12.045  63.821  1.00  0.00    -0.469 A  
HETATM   18  C   UNL     1      -9.415  11.179  64.075  1.00  0.00    -0.241 A  
HETATM   19  C   UNL     1     -10.298  10.749  66.270  1.00  0.00    -0.303 A  
HETATM   20  C   UNL     1     -11.482  12.221  64.770  1.00  0.00    -0.382 A  
HETATM   21  C   UNL     1     -11.372  11.599  66.008  1.00  0.00    -0.261 A  
ENDBRANCH   5  16
ENDBRANCH   2   5
BRANCH   4  22
HETATM   22  C   UNL     2      -5.989   7.224  68.184  1.00  0.00    -0.030 A  
HETATM   23  C   UNL     2      -5.724   6.240  67.253  1.00  0.00    -0.013 A  
HETATM   24  C   UNL     2      -7.351   5.650  69.505  1.00  0.00    -0.067 A  
HETATM   25  C   UNL     2      -8.679   3.986  70.656  1.00  0.00    -0.120 A  
HETATM   26  C   UNL     2      -6.271   4.968  67.442  1.00  0.00    -0.035 A  
HETATM   27  C   UNL     2      -8.362   3.106  69.635  1.00  0.00    -0.055 A  
HETATM   28  C   UNL     2      -6.726   6.903  69.319  1.00  0.00    -0.050 A  
HETATM   29  C   UNL     2      -8.192   5.302  70.613  1.00  0.00    -0.109 A  
HETATM   30  C   UNL     2      -7.101   4.665  68.517  1.00  0.00    -0.057 A  
HETATM   31  N   UNL     2      -7.600   3.427  68.575  1.00  0.00    -0.053 NA 
BRANCH  29  32
HETATM   32  C   UNL     2      -8.488   6.260  71.785  1.00  0.00    -0.129 C  
HETATM   33  H   UNL     2      -7.464   7.335  73.100  1.00  0.00     0.000 HD 
HETATM   34  O   UNL     2      -7.281   6.745  72.379  1.00  0.00    -0.084 OA 
BRANCH  32  35
HETATM   35  C   UNL     2      -9.376   7.520  71.471  1.00  0.00    -0.139 C  
HETATM   36  C   UNL     2     -11.570   8.352  72.412  1.00  0.00    -0.450 C  
HETATM   37  C   UNL     2     -11.588   9.314  71.212  1.00  0.00    -0.419 C  
HETATM   38  C   UNL     2     -10.935   8.637  69.996  1.00  0.00    -0.203 C  
HETATM   39  C   UNL     2     -10.091   8.067  72.734  1.00  0.00    -0.378 C  
HETATM   40  N   UNL     2     -10.363   7.317  70.354  1.00  0.00    -0.205 NA 
HETATM   41  C   UNL     2     -11.504   6.456  70.765  1.00  0.00    -0.353 C  
HETATM   42  C   UNL     2     -12.221   6.998  72.028  1.00  0.00    -0.317 C  
BRANCH  42  43
HETATM   43  C   UNL     2     -13.711   7.121  71.811  1.00  0.00    -0.361 C  
HETATM   44  C   UNL     2     -14.389   8.276  71.829  1.00  0.00    -0.574 C  
ENDBRANCH  42  43
ENDBRANCH  32  35
ENDBRANCH  29  32
ENDBRANCH   4  22
TORSDOF 6
ENDMDL
MODEL      138
REMARK 921   NORMALIZED FREE ENERGY PREDICTED BY IDOCK:   -3.73 KCAL/MOL
REMARK 922        TOTAL FREE ENERGY PREDICTED BY IDOCK:   -8.12 KCAL/MOL
REMARK 923 INTER-LIGAND FREE ENERGY PREDICTED BY IDOCK:   -5.97 KCAL/MOL
REMARK 924 INTRA-LIGAND FREE ENERGY PREDICTED BY IDOCK:   -2.14 KCAL/MOL
REMARK 927      BINDING AFFINITY PREDICTED BY RF-SCORE:    0.00 PKD
ROOT
HETATM    1  C   UNL     1      -7.514   9.621  70.287  1.00  0.00    -0.165 C  
HETATM    2  C   UNL     1      -8.383   8.419  69.928  1.00  0.00    -0.124 C  
HETATM    3  C   UNL     2      -5.417   8.334  72.732  1.00  0.00    -0.043 C  
HETATM    4  O   UNL     2      -6.167   7.429  71.938  1.00  0.00    -0.040 OA 
ENDROOT
BRANCH   2   5
HETATM    5  C   UNL     1      -9.809   8.351  70.575  1.00  0.00    -0.204 C  
HETATM    6  O   UNL     1      -9.148   8.740  72.919  1.00  0.00    -0.311 OA 
HETATM    7  C   UNL     1     -10.481   7.184  69.833  1.00  0.00    -0.223 C  
HETATM    8  C   UNL     1      -9.665   8.001  72.077  1.00  0.00    -0.203 C  
HETATM    9  H   UNL     1     -10.424   6.702  73.472  1.00  0.00     0.000 HD 
HETATM   10  N   UNL     1     -10.245   5.941  70.351  1.00  0.00    -0.199 N  
HETATM   11  O   UNL     1     -11.120   7.297  68.794  1.00  0.00    -0.060 OA 
HETATM   12  O   UNL     1     -10.868   4.674  72.104  1.00  0.00    -0.106 OA 
HETATM   13  N   UNL     1     -10.198   6.804  72.483  1.00  0.00    -0.176 N  
HETATM   14  C   UNL     1     -10.447   5.745  71.674  1.00  0.00    -0.231 C  
HETATM   15  H   UNL     1      -9.925   5.178  69.754  1.00  0.00     0.000 HD 
BRANCH   5  16
HETATM   16  C   UNL     1     -10.574   9.678  70.385  1.00  0.00    -0.354 A  
HETATM   17  C   UNL     1     -11.255  11.537  68.961  1.00  0.00    -0.324 A  
HETATM   18  C   UNL     1     -10.370  10.499  69.261  1.00  0.00    -0.248 A  
HETATM   19  C   UNL     1     -11.590  10.050  71.283  1.00  0.00    -0.430 A  
HETATM   20  C   UNL     1     -12.338  11.796  69.795  1.00  0.00    -0.175 A  
HETATM   21  C   UNL     1     -12.485  11.074  70.974  1.00  0.00    -0.512 A  
ENDBRANCH   5  16
ENDBRANCH   2   5
BRANCH   4  22
HETATM   22  C   UNL     2      -6.748   6.384  72.586  1.00  0.00    -0.065 A  
HETATM   23  C   UNL     2      -7.165   6.358  73.902  1.00  0.00    -0.085 A  
HETATM   24  C   UNL     2      -7.529   4.067  72.262  1.00  0.00    -0.062 A  
HETATM   25  C   UNL     2      -8.317   1.783  72.130  1.00  0.00    -0.053 A  
HETATM   26  C   UNL     2      -7.758   5.195  74.399  1.00  0.00    -0.089 A  
HETATM   27  C   UNL     2      -8.658   1.882  73.469  1.00  0.00    -0.058 A  
HETATM   28  C   UNL     2      -6.998   5.282  71.774  1.00  0.00    -0.070 A  
HETATM   29  C   UNL     2      -7.721   2.878  71.484  1.00  0.00    -0.048 A  
HETATM   30  C   UNL     2      -7.913   4.048  73.626  1.00  0.00    -0.088 A  
HETATM   31  N   UNL     2      -8.456   2.979  74.218  1.00  0.00    -0.069 NA 
BRANCH  29  32
HETATM   32  C   UNL     2      -7.405   2.791  69.977  1.00  0.00    -0.043 C  
HETATM   33  H   UNL     2      -7.417   1.415  68.549  1.00  0.00     0.000 HD 
HETATM   34  O   UNL     2      -7.612   1.468  69.477  1.00  0.00    -0.042 OA 
BRANCH  32  35
HETATM   35  C   UNL     2      -8.194   3.764  69.025  1.00  0.00    -0.064 C  
HETATM   36  C   UNL     2      -9.379   3.421  66.819  1.00  0.00    -0.190 C  
HETATM   37  C   UNL     2      -9.411   4.956  66.729  1.00  0.00    -0.141 C  
HETATM   38  C   UNL     2      -8.148   5.540  67.383  1.00  0.00    -0.101 C  
HETATM   39  C   UNL     2      -9.381   3.061  68.317  1.00  0.00    -0.253 C  
HETATM   40  N   UNL     2      -7.332   4.481  68.023  1.00  0.00    -0.065 NA 
HETATM   41  C   UNL     2      -6.873   3.578  66.932  1.00  0.00    -0.053 C  
HETATM   42  C   UNL     2      -8.057   2.873  66.222  1.00  0.00    -0.083 C  
BRANCH  42  43
HETATM   43  C   UNL     2      -7.989   3.050  64.722  1.00  0.00    -0.082 C  
HETATM   44  C   UNL     2      -6.858   3.022  64.005  1.00  0.00    -0.036 C  
ENDBRANCH  42  43
ENDBRANCH  32  35
ENDBRANCH  29  32
ENDBRANCH   4  22
TORSDOF 6
ENDMDL
MODEL      139
REMARK 921   NORMALIZED FREE ENERGY PREDICTED BY IDOCK:   -3.73 KCAL/MOL
REMARK 922        TOTAL FREE ENERGY PREDICTED BY IDOCK:   -8.11 KCAL/MOL
REMARK 923 INTER-LIGAND FREE ENERGY PREDICTED BY IDOCK:   -6.02 KCAL/MOL
REMARK 924 INTRA-LIGAND FREE ENERGY PREDICTED BY IDOCK:   -2.10 KCAL/MOL
REMARK 927      BINDING AFFINITY PREDICTED BY RF-SCORE:    0.00 PKD
ROOT
HETATM    1  C   UNL     1      -8.883   5.601  65.509  1.00  0.00    -0.135 C  
HETATM    2  C   UNL     1      -9.581   6.916  65.848  1.00  0.00     0.209 C  
HETATM    3  C   UNL     2      -9.409   3.708  68.367  1.00  0.00    -0.165 C  
HETATM    4  O   UNL     2     -10.173   4.889  68.187  1.00  0.00    -0.122 OA 
ENDROOT
BRANCH   2   5
HETATM    5  C   UNL     1      -8.675   8.098  66.335  1.00  0.00    -0.168 C  
HETATM    6  O   UNL     1      -9.425   9.803  64.719  1.00  0.00    -0.274 OA 
HETATM    7  C   UNL     1      -7.326   7.417  66.622  1.00  0.00    -0.084 C  
HETATM    8  C   UNL     1      -8.509   9.116  65.180  1.00  0.00    -0.167 C  
HETATM    9  H   UNL     1      -7.041  10.152  64.190  1.00  0.00     0.000 HD 
HETATM   10  N   UNL     1      -6.489   7.288  65.549  1.00  0.00    -0.044 N  
HETATM   11  O   UNL     1      -7.011   6.926  67.700  1.00  0.00    -0.077 OA 
HETATM   12  O   UNL     1      -5.135   8.556  64.276  1.00  0.00    -0.042 OA 
HETATM   13  N   UNL     1      -7.242   9.282  64.683  1.00  0.00    -0.098 N  
HETATM   14  C   UNL     1      -6.235   8.382  64.795  1.00  0.00    -0.064 C  
HETATM   15  H   UNL     1      -6.066   6.387  65.321  1.00  0.00     0.000 HD 
BRANCH   5  16
HETATM   16  C   UNL     1      -9.263   8.775  67.591  1.00  0.00    -0.148 A  
HETATM   17  C   UNL     1      -8.937   9.925  69.717  1.00  0.00    -0.242 A  
HETATM   18  C   UNL     1      -8.469   9.072  68.714  1.00  0.00    -0.131 A  
HETATM   19  C   UNL     1     -10.596   9.221  67.604  1.00  0.00    -0.324 A  
HETATM   20  C   UNL     1     -10.215  10.467  69.634  1.00  0.00    -0.245 A  
HETATM   21  C   UNL     1     -11.056  10.088  68.595  1.00  0.00    -0.223 A  
ENDBRANCH   5  16
ENDBRANCH   2   5
BRANCH   4  22
HETATM   22  C   UNL     2     -10.340   5.681  69.280  1.00  0.00    -0.270 A  
HETATM   23  C   UNL     2     -11.475   6.389  69.620  1.00  0.00    -0.446 A  
HETATM   24  C   UNL     2      -9.195   6.486  71.310  1.00  0.00    -0.155 A  
HETATM   25  C   UNL     2      -8.212   7.397  73.324  1.00  0.00    -0.146 A  
HETATM   26  C   UNL     2     -11.473   7.145  70.795  1.00  0.00    -0.342 A  
HETATM   27  C   UNL     2      -9.398   8.081  73.528  1.00  0.00    -0.215 A  
HETATM   28  C   UNL     2      -9.257   5.678  70.152  1.00  0.00    -0.170 A  
HETATM   29  C   UNL     2      -8.066   6.584  72.189  1.00  0.00    -0.106 A  
HETATM   30  C   UNL     2     -10.355   7.238  71.619  1.00  0.00    -0.197 A  
HETATM   31  N   UNL     2     -10.453   8.023  72.696  1.00  0.00    -0.314 NA 
BRANCH  29  32
HETATM   32  C   UNL     2      -6.771   5.769  71.999  1.00  0.00    -0.063 C  
HETATM   33  H   UNL     2      -4.838   5.967  72.395  1.00  0.00     0.000 HD 
HETATM   34  O   UNL     2      -5.635   6.469  72.512  1.00  0.00    -0.036 OA 
BRANCH  32  35
HETATM   35  C   UNL     2      -6.736   4.327  72.627  1.00  0.00    -0.050 C  
HETATM   36  C   UNL     2      -8.061   2.224  72.169  1.00  0.00    -0.053 C  
HETATM   37  C   UNL     2      -7.460   1.697  73.484  1.00  0.00    -0.029 C  
HETATM   38  C   UNL     2      -7.278   2.860  74.472  1.00  0.00    -0.042 C  
HETATM   39  C   UNL     2      -7.046   3.222  71.583  1.00  0.00    -0.032 C  
HETATM   40  N   UNL     2      -7.606   4.161  73.843  1.00  0.00    -0.079 NA 
HETATM   41  C   UNL     2      -9.051   4.115  73.495  1.00  0.00    -0.102 C  
HETATM   42  C   UNL     2      -9.366   3.012  72.450  1.00  0.00    -0.160 C  
BRANCH  42  43
HETATM   43  C   UNL     2     -10.490   2.114  72.914  1.00  0.00    -0.241 C  
HETATM   44  C   UNL     2     -10.887   1.990  74.187  1.00  0.00    -0.227 C  
ENDBRANCH  42  43
ENDBRANCH  32  35
ENDBRANCH  29  32
ENDBRANCH   4  22
TORSDOF 6
ENDMDL
MODEL      140
REMARK 921   NORMALIZED FREE ENERGY PREDICTED BY IDOCK:   -3.69 KCAL/MOL
REMARK 922        TOTAL FREE ENERGY PREDICTED BY IDOCK:   -8.06 KCAL/MOL
REMARK 923 INTER-LIGAND FREE ENERGY PREDICTED BY IDOCK:   -9.46 KCAL/MOL
REMARK 924 INTRA-LIGAND FREE ENERGY PREDICTED BY IDOCK:    1.41 KCAL/MOL
REMARK 927      BINDING AFFINITY PREDICTED BY RF-SCORE:    0.00 PKD
ROOT
HETATM    1  C   UNL     1      -7.549   7.255  69.990  1.00  0.00    -0.090 C  
HETATM    2  C   UNL     1      -8.757   8.188  70.033  1.00  0.00    -0.131 C  
HETATM    3  C   UNL     2      -6.134   7.990  66.910  1.00  0.00    -0.053 C  
HETATM    4  O   UNL     2      -7.107   8.877  67.438  1.00  0.00    -0.077 OA 
ENDROOT
BRANCH   2   5
HETATM    5  C   UNL     1     -10.150   7.568  69.673  1.00  0.00    -0.189 C  
HETATM    6  O   UNL     1      -9.886   5.413  70.842  1.00  0.00    -0.170 OA 
HETATM    7  C   UNL     1     -10.348   7.969  68.202  1.00  0.00    -0.200 C  
HETATM    8  C   UNL     1     -10.060   6.026  69.785  1.00  0.00    -0.191 C  
HETATM    9  H   UNL     1     -10.519   4.338  68.714  1.00  0.00     0.000 HD 
HETATM   10  N   UNL     1      -9.794   7.126  67.280  1.00  0.00    -0.155 N  
HETATM   11  O   UNL     1     -10.881   9.008  67.830  1.00  0.00    -0.178 OA 
HETATM   12  O   UNL     1     -10.170   5.100  66.373  1.00  0.00    -0.214 OA 
HETATM   13  N   UNL     1     -10.235   5.313  68.627  1.00  0.00    -0.173 N  
HETATM   14  C   UNL     1     -10.060   5.803  67.375  1.00  0.00    -0.175 C  
HETATM   15  H   UNL     1      -9.194   7.485  66.537  1.00  0.00     0.000 HD 
BRANCH   5  16
HETATM   16  C   UNL     1     -11.265   8.127  70.583  1.00  0.00    -0.268 A  
HETATM   17  C   UNL     1     -12.404  10.028  71.600  1.00  0.00    -0.486 A  
HETATM   18  C   UNL     1     -11.265   9.464  71.021  1.00  0.00    -0.412 A  
HETATM   19  C   UNL     1     -12.382   7.338  70.909  1.00  0.00    -0.287 A  
HETATM   20  C   UNL     1     -13.548   9.259  71.784  1.00  0.00    -0.465 A  
HETATM   21  C   UNL     1     -13.526   7.906  71.469  1.00  0.00    -0.352 A  
ENDBRANCH   5  16
ENDBRANCH   2   5
BRANCH   4  22
HETATM   22  C   UNL     2      -8.038   9.350  66.566  1.00  0.00    -0.111 A  
HETATM   23  C   UNL     2      -8.635   8.650  65.537  1.00  0.00    -0.200 A  
HETATM   24  C   UNL     2      -9.362  11.355  66.012  1.00  0.00    -0.235 A  
HETATM   25  C   UNL     2     -10.712  13.236  65.308  1.00  0.00    -0.322 A  
HETATM   26  C   UNL     2      -9.588   9.297  64.745  1.00  0.00     0.162 A  
HETATM   27  C   UNL     2     -11.206  12.432  64.295  1.00  0.00    -0.353 A  
HETATM   28  C   UNL     2      -8.455  10.649  66.834  1.00  0.00    -0.127 A  
HETATM   29  C   UNL     2      -9.753  12.722  66.196  1.00  0.00    -0.246 A  
HETATM   30  C   UNL     2      -9.933  10.632  64.935  1.00  0.00    -0.318 A  
HETATM   31  N   UNL     2     -10.826  11.158  64.092  1.00  0.00    -0.352 NA 
BRANCH  29  32
HETATM   32  C   UNL     2      -9.255  13.595  67.365  1.00  0.00    -0.222 C  
HETATM   33  H   UNL     2      -7.543  14.379  67.990  1.00  0.00     0.000 HD 
HETATM   34  O   UNL     2      -7.850  13.841  67.269  1.00  0.00    -0.162 OA 
BRANCH  32  35
HETATM   35  C   UNL     2      -9.948  14.994  67.557  1.00  0.00    -0.226 C  
HETATM   36  C   UNL     2      -9.211  17.359  67.055  1.00  0.00    -0.252 C  
HETATM   37  C   UNL     2     -10.412  17.793  67.913  1.00  0.00    -0.401 C  
HETATM   38  C   UNL     2     -10.636  16.776  69.042  1.00  0.00    -0.343 C  
HETATM   39  C   UNL     2      -9.573  15.997  66.435  1.00  0.00    -0.309 C  
HETATM   40  N   UNL     2      -9.727  15.612  68.911  1.00  0.00    -0.207 NA 
HETATM   41  C   UNL     2      -8.343  16.133  69.069  1.00  0.00    -0.247 C  
HETATM   42  C   UNL     2      -7.964  17.135  67.948  1.00  0.00    -0.193 C  
BRANCH  42  43
HETATM   43  C   UNL     2      -7.428  18.428  68.519  1.00  0.00    -0.309 C  
HETATM   44  C   UNL     2      -6.529  18.506  69.510  1.00  0.00    -0.222 C  
ENDBRANCH  42  43
ENDBRANCH  32  35
ENDBRANCH  29  32
ENDBRANCH   4  22
TORSDOF 6
ENDMDL
MODEL      141
REMARK 921   NORMALIZED FREE ENERGY PREDICTED BY IDOCK:   -3.66 KCAL/MOL
REMARK 922        TOTAL FREE ENERGY PREDICTED BY IDOCK:   -8.02 KCAL/MOL
REMARK 923 INTER-LIGAND FREE ENERGY PREDICTED BY IDOCK:   -7.79 KCAL/MOL
REMARK 924 INTRA-LIGAND FREE ENERGY PREDICTED BY IDOCK:   -0.23 KCAL/MOL
REMARK 927      BINDING AFFINITY PREDICTED BY RF-SCORE:    0.00 PKD
ROOT
HETATM    1  C   UNL     1     -10.105   9.644  69.840  1.00  0.00    -0.279 C  
HETATM    2  C   UNL     1     -10.256   9.332  68.353  1.00  0.00    -0.231 C  
HETATM    3  C   UNL     2     -11.724  12.697  70.138  1.00  0.00    -0.168 C  
HETATM    4  O   UNL     2     -11.919  11.940  68.955  1.00  0.00    -0.299 OA 
ENDROOT
BRANCH   2   5
HETATM    5  C   UNL     1      -9.026   9.641  67.432  1.00  0.00    -0.141 C  
HETATM    6  O   UNL     1      -8.815  12.047  67.927  1.00  0.00    -0.159 OA 
HETATM    7  C   UNL     1      -9.325   8.834  66.157  1.00  0.00    -0.234 C  
HETATM    8  C   UNL     1      -9.013  11.154  67.100  1.00  0.00    -0.145 C  
HETATM    9  H   UNL     1      -8.852  12.412  65.488  1.00  0.00     0.000 HD 
HETATM   10  N   UNL     1     -10.110   9.461  65.231  1.00  0.00    -0.276 N  
HETATM   11  O   UNL     1      -8.982   7.672  65.974  1.00  0.00    -0.171 OA 
HETATM   12  O   UNL     1      -9.961  11.097  63.692  1.00  0.00    -0.292 OA 
HETATM   13  N   UNL     1      -9.188  11.496  65.783  1.00  0.00    -0.219 N  
HETATM   14  C   UNL     1      -9.774  10.713  64.844  1.00  0.00    -0.284 C  
HETATM   15  H   UNL     1     -10.930   8.997  64.840  1.00  0.00     0.000 HD 
BRANCH   5  16
HETATM   16  C   UNL     1      -7.703   9.207  68.098  1.00  0.00    -0.092 A  
HETATM   17  C   UNL     1      -5.272   9.332  68.239  1.00  0.00    -0.037 A  
HETATM   18  C   UNL     1      -6.454   9.473  67.508  1.00  0.00    -0.062 A  
HETATM   19  C   UNL     1      -7.704   8.630  69.380  1.00  0.00    -0.091 A  
HETATM   20  C   UNL     1      -5.313   8.890  69.557  1.00  0.00    -0.034 A  
HETATM   21  C   UNL     1      -6.526   8.508  70.116  1.00  0.00    -0.038 A  
ENDBRANCH   5  16
ENDBRANCH   2   5
BRANCH   4  22
HETATM   22  C   UNL     2     -11.899  12.626  67.780  1.00  0.00    -0.323 A  
HETATM   23  C   UNL     2     -12.403  12.200  66.568  1.00  0.00     0.606 A  
HETATM   24  C   UNL     2     -11.206  14.768  66.774  1.00  0.00    -0.344 A  
HETATM   25  C   UNL     2     -10.562  16.794  65.619  1.00  0.00    -0.258 A  
HETATM   26  C   UNL     2     -12.307  13.048  65.462  1.00  0.00    -0.527 A  
HETATM   27  C   UNL     2     -11.075  16.232  64.462  1.00  0.00    -0.160 A  
HETATM   28  C   UNL     2     -11.382  13.913  67.885  1.00  0.00    -0.320 A  
HETATM   29  C   UNL     2     -10.597  16.065  66.819  1.00  0.00    -0.297 A  
HETATM   30  C   UNL     2     -11.692  14.295  65.530  1.00  0.00    -0.353 A  
HETATM   31  N   UNL     2     -11.621  15.005  64.400  1.00  0.00    -0.322 NA 
BRANCH  29  32
HETATM   32  C   UNL     2     -10.089  16.718  68.120  1.00  0.00    -0.282 C  
HETATM   33  H   UNL     2      -9.973  16.262  70.046  1.00  0.00     0.000 HD 
HETATM   34  O   UNL     2     -10.286  15.859  69.245  1.00  0.00    -0.215 OA 
BRANCH  32  35
HETATM   35  C   UNL     2      -8.583  17.170  68.151  1.00  0.00    -0.232 C  
HETATM   36  C   UNL     2      -6.499  16.276  67.034  1.00  0.00    -0.161 C  
HETATM   37  C   UNL     2      -5.727  17.188  68.003  1.00  0.00    -0.123 C  
HETATM   38  C   UNL     2      -6.479  17.275  69.341  1.00  0.00    -0.235 C  
HETATM   39  C   UNL     2      -7.869  16.937  66.794  1.00  0.00    -0.279 C  
HETATM   40  N   UNL     2      -7.782  16.572  69.276  1.00  0.00    -0.203 NA 
HETATM   41  C   UNL     2      -7.481  15.134  69.045  1.00  0.00    -0.161 C  
HETATM   42  C   UNL     2      -6.768  14.896  67.689  1.00  0.00    -0.200 C  
BRANCH  42  43
HETATM   43  C   UNL     2      -5.503  14.088  67.861  1.00  0.00    -0.086 C  
HETATM   44  C   UNL     2      -5.452  12.865  68.406  1.00  0.00    -0.063 C  
ENDBRANCH  42  43
ENDBRANCH  32  35
ENDBRANCH  29  32
ENDBRANCH   4  22
TORSDOF 6
ENDMDL
MODEL      142
REMARK 921   NORMALIZED FREE ENERGY PREDICTED BY IDOCK:   -3.65 KCAL/MOL
REMARK 922        TOTAL FREE ENERGY PREDICTED BY IDOCK:   -8.01 KCAL/MOL
REMARK 923 INTER-LIGAND FREE ENERGY PREDICTED BY IDOCK:   -6.96 KCAL/MOL
REMARK 924 INTRA-LIGAND FREE ENERGY PREDICTED BY IDOCK:   -1.05 KCAL/MOL
REMARK 927      BINDING AFFINITY PREDICTED BY RF-SCORE:    0.00 PKD
ROOT
HETATM    1  C   UNL     1      -7.397  13.873  68.610  1.00  0.00    -0.117 C  
HETATM    2  C   UNL     1      -8.092  13.747  67.257  1.00  0.00    -0.154 C  
HETATM    3  C   UNL     2      -5.375  11.056  68.685  1.00  0.00    -0.040 C  
HETATM    4  O   UNL     2      -5.949  11.444  67.448  1.00  0.00    -0.057 OA 
ENDROOT
BRANCH   2   5
HETATM    5  C   UNL     1      -9.548  13.170  67.254  1.00  0.00    -0.233 C  
HETATM    6  O   UNL     1      -9.114  11.119  68.552  1.00  0.00    -0.165 OA 
HETATM    7  C   UNL     1     -10.038  13.446  65.822  1.00  0.00    -0.288 C  
HETATM    8  C   UNL     1      -9.486  11.641  67.498  1.00  0.00    -0.171 C  
HETATM    9  H   UNL     1     -10.213   9.890  66.717  1.00  0.00     0.000 HD 
HETATM   10  N   UNL     1      -9.716  12.495  64.894  1.00  0.00    -0.484 N  
HETATM   11  O   UNL     1     -10.603  14.474  65.467  1.00  0.00    -0.310 OA 
HETATM   12  O   UNL     1     -10.338  10.418  64.290  1.00  0.00    -0.282 OA 
HETATM   13  N   UNL     1      -9.923  10.837  66.476  1.00  0.00    -0.206 N  
HETATM   14  C   UNL     1      -9.998  11.202  65.173  1.00  0.00    -0.272 C  
HETATM   15  H   UNL     1      -9.274  12.754  64.012  1.00  0.00     0.000 HD 
BRANCH   5  16
HETATM   16  C   UNL     1     -10.430  13.865  68.314  1.00  0.00    -0.252 A  
HETATM   17  C   UNL     1     -11.347  15.905  69.286  1.00  0.00    -0.355 A  
HETATM   18  C   UNL     1     -10.363  15.253  68.539  1.00  0.00    -0.231 A  
HETATM   19  C   UNL     1     -11.414  13.143  69.009  1.00  0.00    -0.345 A  
HETATM   20  C   UNL     1     -12.392  15.181  69.849  1.00  0.00    -0.314 A  
HETATM   21  C   UNL     1     -12.407  13.795  69.739  1.00  0.00    -0.311 A  
ENDBRANCH   5  16
ENDBRANCH   2   5
BRANCH   4  22
HETATM   22  C   UNL     2      -6.459  10.450  66.672  1.00  0.00    -0.080 A  
HETATM   23  C   UNL     2      -6.530  10.434  65.294  1.00  0.00    -0.105 A  
HETATM   24  C   UNL     2      -7.481   8.208  66.782  1.00  0.00    -0.090 A  
HETATM   25  C   UNL     2      -8.524   6.027  66.706  1.00  0.00    -0.110 A  
HETATM   26  C   UNL     2      -7.077   9.315  64.660  1.00  0.00    -0.096 A  
HETATM   27  C   UNL     2      -8.565   6.154  65.328  1.00  0.00    -0.077 A  
HETATM   28  C   UNL     2      -6.860   9.325  67.385  1.00  0.00    -0.077 A  
HETATM   29  C   UNL     2      -7.991   7.067  67.484  1.00  0.00    -0.113 A  
HETATM   30  C   UNL     2      -7.583   8.229  65.368  1.00  0.00    -0.096 A  
HETATM   31  N   UNL     2      -8.119   7.232  64.659  1.00  0.00    -0.113 NA 
BRANCH  29  32
HETATM   32  C   UNL     2      -7.882   6.894  69.012  1.00  0.00    -0.111 C  
HETATM   33  H   UNL     2      -7.976   8.035  70.631  1.00  0.00     0.000 HD 
HETATM   34  O   UNL     2      -8.043   8.142  69.690  1.00  0.00    -0.113 OA 
BRANCH  32  35
HETATM   35  C   UNL     2      -8.874   5.878  69.689  1.00  0.00    -0.131 C  
HETATM   36  C   UNL     2      -9.459   5.398  72.100  1.00  0.00    -0.164 C  
HETATM   37  C   UNL     2     -10.152   4.135  71.560  1.00  0.00    -0.184 C  
HETATM   38  C   UNL     2      -9.384   3.605  70.340  1.00  0.00    -0.168 C  
HETATM   39  C   UNL     2      -9.515   6.452  70.979  1.00  0.00    -0.181 C  
HETATM   40  N   UNL     2      -8.284   4.521  69.953  1.00  0.00    -0.066 NA 
HETATM   41  C   UNL     2      -7.325   4.539  71.090  1.00  0.00    -0.048 C  
HETATM   42  C   UNL     2      -7.961   5.113  72.382  1.00  0.00    -0.102 C  
BRANCH  42  43
HETATM   43  C   UNL     2      -7.766   4.182  73.557  1.00  0.00    -0.081 C  
HETATM   44  C   UNL     2      -6.909   4.399  74.564  1.00  0.00    -0.066 C  
ENDBRANCH  42  43
ENDBRANCH  32  35
ENDBRANCH  29  32
ENDBRANCH   4  22
TORSDOF 6
ENDMDL
MODEL      143
REMARK 921   NORMALIZED FREE ENERGY PREDICTED BY IDOCK:   -3.62 KCAL/MOL
REMARK 922        TOTAL FREE ENERGY PREDICTED BY IDOCK:   -7.96 KCAL/MOL
REMARK 923 INTER-LIGAND FREE ENERGY PREDICTED BY IDOCK:   -7.04 KCAL/MOL
REMARK 924 INTRA-LIGAND FREE ENERGY PREDICTED BY IDOCK:   -0.93 KCAL/MOL
REMARK 927      BINDING AFFINITY PREDICTED BY RF-SCORE:    0.00 PKD
ROOT
HETATM    1  C   UNL     1     -11.849  12.270  65.475  1.00  0.00    -0.420 C  
HETATM    2  C   UNL     1     -11.463  11.286  66.577  1.00  0.00     0.016 C  
HETATM    3  C   UNL     2      -9.515  11.585  63.002  1.00  0.00    -0.320 C  
HETATM    4  O   UNL     2      -9.665  10.659  64.066  1.00  0.00    -0.263 OA 
ENDROOT
BRANCH   2   5
HETATM    5  C   UNL     1     -10.607  11.846  67.764  1.00  0.00    -0.233 C  
HETATM    6  O   UNL     1      -8.843  10.124  67.766  1.00  0.00    -0.125 OA 
HETATM    7  C   UNL     1     -11.666  12.293  68.786  1.00  0.00    -0.340 C  
HETATM    8  C   UNL     1      -9.759  10.696  68.362  1.00  0.00    -0.166 C  
HETATM    9  H   UNL     1      -9.301   9.852  70.174  1.00  0.00     0.000 HD 
HETATM   10  N   UNL     1     -12.114  11.321  69.637  1.00  0.00    -0.326 N  
HETATM   11  O   UNL     1     -12.173  13.408  68.820  1.00  0.00    -0.295 OA 
HETATM   12  O   UNL     1     -11.414  10.179  71.445  1.00  0.00    -0.327 OA 
HETATM   13  N   UNL     1     -10.034  10.338  69.657  1.00  0.00    -0.227 N  
HETATM   14  C   UNL     1     -11.201  10.578  70.303  1.00  0.00    -0.313 C  
HETATM   15  H   UNL     1     -13.113  11.159  69.767  1.00  0.00     0.000 HD 
BRANCH   5  16
HETATM   16  C   UNL     1      -9.711  13.017  67.307  1.00  0.00    -0.225 A  
HETATM   17  C   UNL     1      -9.332  14.946  65.865  1.00  0.00    -0.216 A  
HETATM   18  C   UNL     1      -9.969  13.730  66.121  1.00  0.00    -0.318 A  
HETATM   19  C   UNL     1      -8.669  13.481  68.128  1.00  0.00    -0.174 A  
HETATM   20  C   UNL     1      -8.404  15.454  66.767  1.00  0.00    -0.285 A  
HETATM   21  C   UNL     1      -8.047  14.704  67.882  1.00  0.00    -0.149 A  
ENDBRANCH   5  16
ENDBRANCH   2   5
BRANCH   4  22
HETATM   22  C   UNL     2      -8.522  10.145  64.595  1.00  0.00    -0.173 A  
HETATM   23  C   UNL     2      -7.374  10.841  64.912  1.00  0.00     0.238 A  
HETATM   24  C   UNL     2      -7.506   8.045  65.393  1.00  0.00    -0.079 A  
HETATM   25  C   UNL     2      -6.343   6.076  66.184  1.00  0.00    -0.042 A  
HETATM   26  C   UNL     2      -6.294  10.147  65.463  1.00  0.00    -0.102 A  
HETATM   27  C   UNL     2      -5.247   6.887  66.424  1.00  0.00    -0.021 A  
HETATM   28  C   UNL     2      -8.601   8.791  64.902  1.00  0.00    -0.177 A  
HETATM   29  C   UNL     2      -7.512   6.633  65.640  1.00  0.00    -0.082 A  
HETATM   30  C   UNL     2      -6.321   8.772  65.673  1.00  0.00    -0.056 A  
HETATM   31  N   UNL     2      -5.216   8.206  66.169  1.00  0.00    -0.025 NA 
BRANCH  29  32
HETATM   32  C   UNL     2      -8.755   5.743  65.438  1.00  0.00    -0.119 C  
HETATM   33  H   UNL     2      -9.159   3.893  64.849  1.00  0.00     0.000 HD 
HETATM   34  O   UNL     2      -8.393   4.441  64.974  1.00  0.00    -0.111 OA 
BRANCH  32  35
HETATM   35  C   UNL     2      -9.695   5.536  66.683  1.00  0.00    -0.159 C  
HETATM   36  C   UNL     2     -10.282   7.005  68.654  1.00  0.00    -0.182 C  
HETATM   37  C   UNL     2     -10.892   5.735  69.272  1.00  0.00    -0.374 C  
HETATM   38  C   UNL     2     -10.077   4.506  68.838  1.00  0.00     0.022 C  
HETATM   39  C   UNL     2     -10.385   6.852  67.125  1.00  0.00    -0.339 C  
HETATM   40  N   UNL     2      -9.028   4.871  67.856  1.00  0.00    -0.107 NA 
HETATM   41  C   UNL     2      -8.087   5.785  68.557  1.00  0.00    -0.108 C  
HETATM   42  C   UNL     2      -8.774   7.103  69.000  1.00  0.00    -0.132 C  
BRANCH  42  43
HETATM   43  C   UNL     2      -8.540   7.384  70.467  1.00  0.00    -0.139 C  
HETATM   44  C   UNL     2      -7.392   7.851  70.977  1.00  0.00    -0.062 C  
ENDBRANCH  42  43
ENDBRANCH  32  35
ENDBRANCH  29  32
ENDBRANCH   4  22
TORSDOF 6
ENDMDL
MODEL      144
REMARK 921   NORMALIZED FREE ENERGY PREDICTED BY IDOCK:   -3.62 KCAL/MOL
REMARK 922        TOTAL FREE ENERGY PREDICTED BY IDOCK:   -7.96 KCAL/MOL
REMARK 923 INTER-LIGAND FREE ENERGY PREDICTED BY IDOCK:   -7.47 KCAL/MOL
REMARK 924 INTRA-LIGAND FREE ENERGY PREDICTED BY IDOCK:   -0.49 KCAL/MOL
REMARK 927      BINDING AFFINITY PREDICTED BY RF-SCORE:    0.00 PKD
ROOT
HETATM    1  C   UNL     1      -7.605   7.531  72.017  1.00  0.00    -0.084 C  
HETATM    2  C   UNL     1      -8.857   8.405  72.015  1.00  0.00    -0.277 C  
HETATM    3  C   UNL     2      -5.926   8.608  69.180  1.00  0.00    -0.042 C  
HETATM    4  O   UNL     2      -6.991   9.401  69.679  1.00  0.00    -0.052 OA 
ENDROOT
BRANCH   2   5
HETATM    5  C   UNL     1     -10.172   7.763  71.458  1.00  0.00    -0.216 C  
HETATM    6  O   UNL     1     -10.883   6.587  73.505  1.00  0.00    -0.272 OA 
HETATM    7  C   UNL     1      -9.773   7.303  70.045  1.00  0.00    -0.175 C  
HETATM    8  C   UNL     1     -10.538   6.530  72.322  1.00  0.00    -0.212 C  
HETATM    9  H   UNL     1     -11.062   4.558  72.114  1.00  0.00     0.000 HD 
HETATM   10  N   UNL     1      -9.199   6.066  69.966  1.00  0.00    -0.148 N  
HETATM   11  O   UNL     1      -9.861   7.997  69.038  1.00  0.00    -0.171 OA 
HETATM   12  O   UNL     1      -9.790   3.897  70.081  1.00  0.00    -0.200 OA 
HETATM   13  N   UNL     1     -10.515   5.310  71.696  1.00  0.00    -0.222 N  
HETATM   14  C   UNL     1      -9.824   5.026  70.565  1.00  0.00    -0.219 C  
HETATM   15  H   UNL     1      -8.319   5.928  69.468  1.00  0.00     0.000 HD 
BRANCH   5  16
HETATM   16  C   UNL     1     -11.329   8.785  71.431  1.00  0.00    -0.364 A  
HETATM   17  C   UNL     1     -13.477   9.564  72.283  1.00  0.00    -0.521 A  
HETATM   18  C   UNL     1     -12.554   8.535  72.076  1.00  0.00    -0.414 A  
HETATM   19  C   UNL     1     -11.147  10.054  70.854  1.00  0.00    -0.385 A  
HETATM   20  C   UNL     1     -13.208  10.848  71.823  1.00  0.00    -0.513 A  
HETATM   21  C   UNL     1     -12.058  11.085  71.079  1.00  0.00    -0.406 A  
ENDBRANCH   5  16
ENDBRANCH   2   5
BRANCH   4  22
HETATM   22  C   UNL     2      -7.853   9.913  68.759  1.00  0.00    -0.091 A  
HETATM   23  C   UNL     2      -8.775  10.919  68.964  1.00  0.00    -0.108 A  
HETATM   24  C   UNL     2      -8.529   9.734  66.395  1.00  0.00    -0.128 A  
HETATM   25  C   UNL     2      -9.339   9.669  64.116  1.00  0.00    -0.148 A  
HETATM   26  C   UNL     2      -9.574  11.331  67.895  1.00  0.00    -0.182 A  
HETATM   27  C   UNL     2     -10.241  10.660  64.466  1.00  0.00    -0.329 A  
HETATM   28  C   UNL     2      -7.691   9.392  67.480  1.00  0.00    -0.091 A  
HETATM   29  C   UNL     2      -8.458   9.159  65.083  1.00  0.00    -0.182 A  
HETATM   30  C   UNL     2      -9.498  10.740  66.637  1.00  0.00    -0.175 A  
HETATM   31  N   UNL     2     -10.339  11.186  65.699  1.00  0.00    -0.249 NA 
BRANCH  29  32
HETATM   32  C   UNL     2      -7.408   8.106  64.675  1.00  0.00    -0.087 C  
HETATM   33  H   UNL     2      -5.454   8.028  64.349  1.00  0.00     0.000 HD 
HETATM   34  O   UNL     2      -6.100   8.677  64.600  1.00  0.00    -0.063 OA 
BRANCH  32  35
HETATM   35  C   UNL     2      -7.293   6.825  65.581  1.00  0.00    -0.079 C  
HETATM   36  C   UNL     2      -6.464   4.479  65.137  1.00  0.00    -0.036 C  
HETATM   37  C   UNL     2      -7.118   4.117  66.482  1.00  0.00    -0.064 C  
HETATM   38  C   UNL     2      -8.379   4.970  66.690  1.00  0.00    -0.107 C  
HETATM   39  C   UNL     2      -6.055   5.961  65.223  1.00  0.00    -0.026 C  
HETATM   40  N   UNL     2      -8.535   5.978  65.614  1.00  0.00    -0.147 NA 
HETATM   41  C   UNL     2      -8.731   5.222  64.348  1.00  0.00    -0.046 C  
HETATM   42  C   UNL     2      -7.496   4.357  63.986  1.00  0.00    -0.063 C  
BRANCH  42  43
HETATM   43  C   UNL     2      -7.884   2.922  63.714  1.00  0.00    -0.080 C  
HETATM   44  C   UNL     2      -9.136   2.448  63.783  1.00  0.00    -0.097 C  
ENDBRANCH  42  43
ENDBRANCH  32  35
ENDBRANCH  29  32
ENDBRANCH   4  22
TORSDOF 6
ENDMDL
MODEL      145
REMARK 921   NORMALIZED FREE ENERGY PREDICTED BY IDOCK:   -3.58 KCAL/MOL
REMARK 922        TOTAL FREE ENERGY PREDICTED BY IDOCK:   -7.91 KCAL/MOL
REMARK 923 INTER-LIGAND FREE ENERGY PREDICTED BY IDOCK:   -8.02 KCAL/MOL
REMARK 924 INTRA-LIGAND FREE ENERGY PREDICTED BY IDOCK:    0.11 KCAL/MOL
REMARK 927      BINDING AFFINITY PREDICTED BY RF-SCORE:    0.00 PKD
ROOT
HETATM    1  C   UNL     1     -10.978  15.516  65.752  1.00  0.00    -0.285 C  
HETATM    2  C   UNL     1     -11.721  15.609  67.083  1.00  0.00     0.239 C  
HETATM    3  C   UNL     2     -10.402  12.109  65.445  1.00  0.00    -0.269 C  
HETATM    4  O   UNL     2     -11.339  12.553  66.413  1.00  0.00    -0.293 OA 
ENDROOT
BRANCH   2   5
HETATM    5  C   UNL     1     -10.883  16.025  68.339  1.00  0.00    -0.310 C  
HETATM    6  O   UNL     1     -11.101  18.470  68.111  1.00  0.00    -0.012 OA 
HETATM    7  C   UNL     1      -9.693  15.050  68.312  1.00  0.00    -0.215 C  
HETATM    8  C   UNL     1     -10.373  17.475  68.148  1.00  0.00    -0.375 C  
HETATM    9  H   UNL     1      -8.642  18.568  68.279  1.00  0.00     0.000 HD 
HETATM   10  N   UNL     1      -8.632  15.435  67.541  1.00  0.00    -0.166 N  
HETATM   11  O   UNL     1      -9.683  13.951  68.852  1.00  0.00    -0.140 OA 
HETATM   12  O   UNL     1      -6.926  16.903  67.593  1.00  0.00    -0.129 OA 
HETATM   13  N   UNL     1      -9.014  17.644  68.063  1.00  0.00    -0.258 N  
HETATM   14  C   UNL     1      -8.128  16.679  67.714  1.00  0.00    -0.176 C  
HETATM   15  H   UNL     1      -8.228  14.800  66.852  1.00  0.00     0.000 HD 
BRANCH   5  16
HETATM   16  C   UNL     1     -11.711  15.894  69.635  1.00  0.00    -0.322 A  
HETATM   17  C   UNL     1     -13.511  14.832  70.891  1.00  0.00    -0.325 A  
HETATM   18  C   UNL     1     -12.922  15.179  69.673  1.00  0.00     0.291 A  
HETATM   19  C   UNL     1     -11.216  16.395  70.852  1.00  0.00    -0.167 A  
HETATM   20  C   UNL     1     -12.922  15.223  72.089  1.00  0.00    -0.452 A  
HETATM   21  C   UNL     1     -11.793  16.033  72.068  1.00  0.00    -0.623 A  
ENDBRANCH   5  16
ENDBRANCH   2   5
BRANCH   4  22
HETATM   22  C   UNL     2     -11.291  11.949  67.631  1.00  0.00    -0.304 A  
HETATM   23  C   UNL     2     -11.810  12.435  68.814  1.00  0.00    -0.358 A  
HETATM   24  C   UNL     2     -10.515   9.907  68.776  1.00  0.00    -0.234 A  
HETATM   25  C   UNL     2      -9.792   7.990  70.062  1.00  0.00    -0.185 A  
HETATM   26  C   UNL     2     -11.680  11.667  69.974  1.00  0.00    -0.402 A  
HETATM   27  C   UNL     2     -10.326   8.608  71.181  1.00  0.00    -0.230 A  
HETATM   28  C   UNL     2     -10.725  10.679  67.611  1.00  0.00    -0.315 A  
HETATM   29  C   UNL     2      -9.856   8.634  68.817  1.00  0.00    -0.180 A  
HETATM   30  C   UNL     2     -11.018  10.443  69.988  1.00  0.00    -0.308 A  
HETATM   31  N   UNL     2     -10.918   9.814  71.162  1.00  0.00    -0.352 NA 
BRANCH  29  32
HETATM   32  C   UNL     2      -9.324   7.915  67.561  1.00  0.00    -0.143 C  
HETATM   33  H   UNL     2      -9.716   7.867  65.617  1.00  0.00     0.000 HD 
HETATM   34  O   UNL     2     -10.044   8.311  66.390  1.00  0.00    -0.256 OA 
BRANCH  32  35
HETATM   35  C   UNL     2      -7.796   8.088  67.232  1.00  0.00    -0.109 C  
HETATM   36  C   UNL     2      -5.940   9.401  68.337  1.00  0.00    -0.044 C  
HETATM   37  C   UNL     2      -5.132   9.112  67.061  1.00  0.00    -0.035 C  
HETATM   38  C   UNL     2      -6.075   9.075  65.848  1.00  0.00    -0.052 C  
HETATM   39  C   UNL     2      -6.931   8.236  68.512  1.00  0.00    -0.069 C  
HETATM   40  N   UNL     2      -7.493   9.196  66.261  1.00  0.00    -0.091 NA 
HETATM   41  C   UNL     2      -7.643  10.540  66.882  1.00  0.00    -0.110 C  
HETATM   42  C   UNL     2      -6.781  10.692  68.162  1.00  0.00    -0.064 C  
BRANCH  42  43
HETATM   43  C   UNL     2      -5.921  11.933  68.107  1.00  0.00    -0.051 C  
HETATM   44  C   UNL     2      -6.266  13.069  67.485  1.00  0.00    -0.143 C  
ENDBRANCH  42  43
ENDBRANCH  32  35
ENDBRANCH  29  32
ENDBRANCH   4  22
TORSDOF 6
ENDMDL
MODEL      146
REMARK 921   NORMALIZED FREE ENERGY PREDICTED BY IDOCK:   -3.57 KCAL/MOL
REMARK 922        TOTAL FREE ENERGY PREDICTED BY IDOCK:   -7.90 KCAL/MOL
REMARK 923 INTER-LIGAND FREE ENERGY PREDICTED BY IDOCK:   -7.84 KCAL/MOL
REMARK 924 INTRA-LIGAND FREE ENERGY PREDICTED BY IDOCK:   -0.05 KCAL/MOL
REMARK 927      BINDING AFFINITY PREDICTED BY RF-SCORE:    0.00 PKD
ROOT
HETATM    1  C   UNL     1      -6.432   9.694  65.939  1.00  0.00    -0.079 C  
HETATM    2  C   UNL     1      -7.361   8.674  66.593  1.00  0.00    -0.081 C  
HETATM    3  C   UNL     2      -7.353  12.657  67.490  1.00  0.00    -0.151 C  
HETATM    4  O   UNL     2      -7.789  11.432  68.056  1.00  0.00    -0.110 OA 
ENDROOT
BRANCH   2   5
HETATM    5  C   UNL     1      -8.637   8.253  65.788  1.00  0.00    -0.182 C  
HETATM    6  O   UNL     1      -7.582   7.985  63.575  1.00  0.00    -0.117 OA 
HETATM    7  C   UNL     1      -9.731   9.180  66.345  1.00  0.00    -0.262 C  
HETATM    8  C   UNL     1      -8.410   8.560  64.286  1.00  0.00    -0.105 C  
HETATM    9  H   UNL     1      -9.340   9.482  62.707  1.00  0.00     0.000 HD 
HETATM   10  N   UNL     1      -9.825  10.408  65.751  1.00  0.00    -0.224 N  
HETATM   11  O   UNL     1     -10.436   8.919  67.313  1.00  0.00    -0.266 OA 
HETATM   12  O   UNL     1     -10.569  11.326  63.836  1.00  0.00    -0.348 OA 
HETATM   13  N   UNL     1      -9.228   9.505  63.721  1.00  0.00    -0.134 N  
HETATM   14  C   UNL     1      -9.898  10.466  64.402  1.00  0.00    -0.328 C  
HETATM   15  H   UNL     1      -9.839  11.260  66.312  1.00  0.00     0.000 HD 
BRANCH   5  16
HETATM   16  C   UNL     1      -8.972   6.763  66.005  1.00  0.00    -0.129 A  
HETATM   17  C   UNL     1     -10.622   4.977  66.202  1.00  0.00    -0.321 A  
HETATM   18  C   UNL     1     -10.281   6.330  66.285  1.00  0.00     0.021 A  
HETATM   19  C   UNL     1      -7.990   5.775  65.814  1.00  0.00    -0.110 A  
HETATM   20  C   UNL     1      -9.657   4.032  65.872  1.00  0.00    -0.195 A  
HETATM   21  C   UNL     1      -8.334   4.427  65.711  1.00  0.00    -0.113 A  
ENDBRANCH   5  16
ENDBRANCH   2   5
BRANCH   4  22
HETATM   22  C   UNL     2      -9.078  11.383  68.488  1.00  0.00    -0.169 A  
HETATM   23  C   UNL     2     -10.126  12.165  68.046  1.00  0.00    -0.204 A  
HETATM   24  C   UNL     2     -10.581  10.192  70.038  1.00  0.00    -0.338 A  
HETATM   25  C   UNL     2     -12.185   9.154  71.522  1.00  0.00    -0.422 A  
HETATM   26  C   UNL     2     -11.395  11.967  68.597  1.00  0.00    -0.331 A  
HETATM   27  C   UNL     2     -13.136  10.024  71.014  1.00  0.00    -0.356 A  
HETATM   28  C   UNL     2      -9.328  10.372  69.410  1.00  0.00    -0.186 A  
HETATM   29  C   UNL     2     -10.862   9.223  71.057  1.00  0.00    -0.385 A  
HETATM   30  C   UNL     2     -11.634  11.032  69.600  1.00  0.00    -0.318 A  
HETATM   31  N   UNL     2     -12.879  10.957  70.081  1.00  0.00    -0.180 NA 
BRANCH  29  32
HETATM   32  C   UNL     2      -9.822   8.209  71.572  1.00  0.00    -0.179 C  
HETATM   33  H   UNL     2      -9.470   7.176  73.228  1.00  0.00     0.000 HD 
HETATM   34  O   UNL     2     -10.111   7.800  72.911  1.00  0.00    -0.248 OA 
BRANCH  32  35
HETATM   35  C   UNL     2      -9.627   6.894  70.730  1.00  0.00    -0.165 C  
HETATM   36  C   UNL     2      -9.336   4.468  71.376  1.00  0.00    -0.206 C  
HETATM   37  C   UNL     2      -8.921   4.248  69.911  1.00  0.00    -0.153 C  
HETATM   38  C   UNL     2      -8.184   5.491  69.389  1.00  0.00    -0.098 C  
HETATM   39  C   UNL     2     -10.304   5.665  71.390  1.00  0.00    -0.287 C  
HETATM   40  N   UNL     2      -8.196   6.586  70.387  1.00  0.00    -0.123 NA 
HETATM   41  C   UNL     2      -7.431   6.097  71.566  1.00  0.00    -0.094 C  
HETATM   42  C   UNL     2      -8.106   4.868  72.230  1.00  0.00    -0.111 C  
BRANCH  42  43
HETATM   43  C   UNL     2      -7.131   3.726  72.401  1.00  0.00    -0.047 C  
HETATM   44  C   UNL     2      -5.876   3.722  71.932  1.00  0.00    -0.009 C  
ENDBRANCH  42  43
ENDBRANCH  32  35
ENDBRANCH  29  32
ENDBRANCH   4  22
TORSDOF 6
ENDMDL
MODEL      147
REMARK 921   NORMALIZED FREE ENERGY PREDICTED BY IDOCK:   -3.55 KCAL/MOL
REMARK 922        TOTAL FREE ENERGY PREDICTED BY IDOCK:   -7.87 KCAL/MOL
REMARK 923 INTER-LIGAND FREE ENERGY PREDICTED BY IDOCK:   -6.02 KCAL/MOL
REMARK 924 INTRA-LIGAND FREE ENERGY PREDICTED BY IDOCK:   -1.85 KCAL/MOL
REMARK 927      BINDING AFFINITY PREDICTED BY RF-SCORE:    0.00 PKD
ROOT
HETATM    1  C   UNL     1      -9.292   5.691  65.864  1.00  0.00    -0.119 C  
HETATM    2  C   UNL     1     -10.061   6.922  66.341  1.00  0.00    -0.043 C  
HETATM    3  C   UNL     2      -9.336   3.643  68.662  1.00  0.00    -0.164 C  
HETATM    4  O   UNL     2     -10.215   4.755  68.623  1.00  0.00    -0.106 OA 
ENDROOT
BRANCH   2   5
HETATM    5  C   UNL     1      -9.214   8.161  66.789  1.00  0.00    -0.206 C  
HETATM    6  O   UNL     1     -10.715   8.987  68.562  1.00  0.00    -0.186 OA 
HETATM    7  C   UNL     1      -8.707   8.745  65.460  1.00  0.00    -0.185 C  
HETATM    8  C   UNL     1     -10.146   9.184  67.485  1.00  0.00    -0.228 C  
HETATM    9  H   UNL     1     -10.604  11.183  67.443  1.00  0.00     0.000 HD 
HETATM   10  N   UNL     1      -9.554   9.617  64.835  1.00  0.00    -0.425 N  
HETATM   11  O   UNL     1      -7.662   8.416  64.910  1.00  0.00    -0.094 OA 
HETATM   12  O   UNL     1     -10.280  11.737  65.041  1.00  0.00    -0.252 OA 
HETATM   13  N   UNL     1     -10.296  10.399  66.868  1.00  0.00    -0.231 N  
HETATM   14  C   UNL     1     -10.069  10.641  65.554  1.00  0.00    -0.280 C  
HETATM   15  H   UNL     1      -9.794   9.498  63.851  1.00  0.00     0.000 HD 
BRANCH   5  16
HETATM   16  C   UNL     1      -8.056   7.743  67.720  1.00  0.00    -0.125 A  
HETATM   17  C   UNL     1      -6.191   6.256  68.231  1.00  0.00    -0.032 A  
HETATM   18  C   UNL     1      -7.402   6.505  67.580  1.00  0.00    -0.095 A  
HETATM   19  C   UNL     1      -7.541   8.643  68.668  1.00  0.00    -0.097 A  
HETATM   20  C   UNL     1      -5.631   7.224  69.058  1.00  0.00    -0.019 A  
HETATM   21  C   UNL     1      -6.323   8.404  69.303  1.00  0.00    -0.038 A  
ENDBRANCH   5  16
ENDBRANCH   2   5
BRANCH   4  22
HETATM   22  C   UNL     2     -10.330   5.482  69.767  1.00  0.00    -0.296 A  
HETATM   23  C   UNL     2     -11.471   6.099  70.240  1.00  0.00    -0.357 A  
HETATM   24  C   UNL     2      -9.057   6.264  71.728  1.00  0.00    -0.144 A  
HETATM   25  C   UNL     2      -7.953   7.141  73.694  1.00  0.00    -0.130 A  
HETATM   26  C   UNL     2     -11.408   6.798  71.448  1.00  0.00    -0.322 A  
HETATM   27  C   UNL     2      -9.155   7.737  74.036  1.00  0.00    -0.167 A  
HETATM   28  C   UNL     2      -9.175   5.509  70.540  1.00  0.00    -0.179 A  
HETATM   29  C   UNL     2      -7.862   6.393  72.510  1.00  0.00    -0.101 A  
HETATM   30  C   UNL     2     -10.228   6.924  72.176  1.00  0.00    -0.193 A  
HETATM   31  N   UNL     2     -10.275   7.650  73.297  1.00  0.00    -0.331 NA 
BRANCH  29  32
HETATM   32  C   UNL     2      -6.543   5.673  72.166  1.00  0.00    -0.058 C  
HETATM   33  H   UNL     2      -4.596   5.982  72.391  1.00  0.00     0.000 HD 
HETATM   34  O   UNL     2      -5.409   6.426  72.603  1.00  0.00    -0.034 OA 
BRANCH  32  35
HETATM   35  C   UNL     2      -6.359   4.213  72.724  1.00  0.00    -0.017 C  
HETATM   36  C   UNL     2      -7.509   2.022  72.209  1.00  0.00    -0.043 C  
HETATM   37  C   UNL     2      -6.818   1.494  73.478  1.00  0.00    -0.018 C  
HETATM   38  C   UNL     2      -6.705   2.624  74.514  1.00  0.00    -0.030 C  
HETATM   39  C   UNL     2      -6.607   3.133  71.639  1.00  0.00    -0.019 C  
HETATM   40  N   UNL     2      -7.168   3.917  73.957  1.00  0.00    -0.060 NA 
HETATM   41  C   UNL     2      -8.615   3.757  73.652  1.00  0.00    -0.090 C  
HETATM   42  C   UNL     2      -8.867   2.678  72.567  1.00  0.00    -0.096 C  
BRANCH  42  43
HETATM   43  C   UNL     2      -9.891   1.663  73.022  1.00  0.00    -0.139 C  
HETATM   44  C   UNL     2     -11.189   1.931  73.222  1.00  0.00    -0.269 C  
ENDBRANCH  42  43
ENDBRANCH  32  35
ENDBRANCH  29  32
ENDBRANCH   4  22
TORSDOF 6
ENDMDL
MODEL      148
REMARK 921   NORMALIZED FREE ENERGY PREDICTED BY IDOCK:   -3.54 KCAL/MOL
REMARK 922        TOTAL FREE ENERGY PREDICTED BY IDOCK:   -7.85 KCAL/MOL
REMARK 923 INTER-LIGAND FREE ENERGY PREDICTED BY IDOCK:   -6.91 KCAL/MOL
REMARK 924 INTRA-LIGAND FREE ENERGY PREDICTED BY IDOCK:   -0.95 KCAL/MOL
REMARK 927      BINDING AFFINITY PREDICTED BY RF-SCORE:    0.00 PKD
ROOT
HETATM    1  C   UNL     1     -10.781  15.905  65.119  1.00  0.00    -0.449 C  
HETATM    2  C   UNL     1     -11.419  15.634  66.479  1.00  0.00     0.165 C  
HETATM    3  C   UNL     2      -9.852  12.730  64.075  1.00  0.00     0.083 C  
HETATM    4  O   UNL     2     -10.751  12.848  65.166  1.00  0.00    -0.289 OA 
ENDROOT
BRANCH   2   5
HETATM    5  C   UNL     1     -10.533  15.893  67.745  1.00  0.00    -0.287 C  
HETATM    6  O   UNL     1     -11.244  18.209  68.202  1.00  0.00     0.068 OA 
HETATM    7  C   UNL     1      -9.190  15.239  67.380  1.00  0.00    -0.195 C  
HETATM    8  C   UNL     1     -10.339  17.419  67.922  1.00  0.00    -0.369 C  
HETATM    9  H   UNL     1      -8.848  18.793  68.234  1.00  0.00     0.000 HD 
HETATM   10  N   UNL     1      -8.322  16.026  66.676  1.00  0.00    -0.268 N  
HETATM   11  O   UNL     1      -8.904  14.068  67.601  1.00  0.00    -0.170 OA 
HETATM   12  O   UNL     1      -6.937  17.768  67.015  1.00  0.00    -0.165 OA 
HETATM   13  N   UNL     1      -9.058  17.895  67.799  1.00  0.00    -0.255 N  
HETATM   14  C   UNL     1      -8.051  17.265  67.147  1.00  0.00    -0.203 C  
HETATM   15  H   UNL     1      -7.888  15.688  65.817  1.00  0.00     0.000 HD 
BRANCH   5  16
HETATM   16  C   UNL     1     -11.161  15.264  69.008  1.00  0.00    -0.263 A  
HETATM   17  C   UNL     1     -11.769  15.420  71.364  1.00  0.00    -0.453 A  
HETATM   18  C   UNL     1     -10.980  15.826  70.285  1.00  0.00    -0.368 A  
HETATM   19  C   UNL     1     -12.033  14.167  68.900  1.00  0.00    -0.376 A  
HETATM   20  C   UNL     1     -12.726  14.426  71.196  1.00  0.00    -0.422 A  
HETATM   21  C   UNL     1     -12.835  13.776  69.973  1.00  0.00     0.078 A  
ENDBRANCH   5  16
ENDBRANCH   2   5
BRANCH   4  22
HETATM   22  C   UNL     2     -10.537  12.023  66.226  1.00  0.00    -0.252 A  
HETATM   23  C   UNL     2     -11.428  11.734  67.239  1.00  0.00    -0.373 A  
HETATM   24  C   UNL     2      -8.861  10.519  67.231  1.00  0.00    -0.138 A  
HETATM   25  C   UNL     2      -7.326   9.036  68.370  1.00  0.00    -0.078 A  
HETATM   26  C   UNL     2     -11.040  10.847  68.247  1.00  0.00    -0.324 A  
HETATM   27  C   UNL     2      -8.299   8.861  69.339  1.00  0.00    -0.112 A  
HETATM   28  C   UNL     2      -9.311  11.366  66.193  1.00  0.00    -0.232 A  
HETATM   29  C   UNL     2      -7.573   9.892  67.285  1.00  0.00    -0.088 A  
HETATM   30  C   UNL     2      -9.775  10.269  68.284  1.00  0.00    -0.142 A  
HETATM   31  N   UNL     2      -9.499   9.467  69.317  1.00  0.00    -0.158 NA 
BRANCH  29  32
HETATM   32  C   UNL     2      -6.515  10.032  66.172  1.00  0.00    -0.086 C  
HETATM   33  H   UNL     2      -4.541  10.152  66.025  1.00  0.00     0.000 HD 
HETATM   34  O   UNL     2      -5.192  10.065  66.712  1.00  0.00    -0.039 OA 
BRANCH  32  35
HETATM   35  C   UNL     2      -6.517   8.936  65.043  1.00  0.00    -0.065 C  
HETATM   36  C   UNL     2      -7.914   6.865  64.664  1.00  0.00    -0.112 C  
HETATM   37  C   UNL     2      -6.864   6.491  63.603  1.00  0.00    -0.049 C  
HETATM   38  C   UNL     2      -5.480   6.992  64.045  1.00  0.00    -0.032 C  
HETATM   39  C   UNL     2      -7.942   8.402  64.743  1.00  0.00    -0.138 C  
HETATM   40  N   UNL     2      -5.567   7.796  65.287  1.00  0.00    -0.036 NA 
HETATM   41  C   UNL     2      -6.055   6.881  66.355  1.00  0.00    -0.034 C  
HETATM   42  C   UNL     2      -7.480   6.345  66.059  1.00  0.00    -0.082 C  
BRANCH  42  43
HETATM   43  C   UNL     2      -7.535   4.838  66.152  1.00  0.00    -0.086 C  
HETATM   44  C   UNL     2      -8.606   4.141  66.557  1.00  0.00    -0.113 C  
ENDBRANCH  42  43
ENDBRANCH  32  35
ENDBRANCH  29  32
ENDBRANCH   4  22
TORSDOF 6
ENDMDL
MODEL      149
REMARK 921   NORMALIZED FREE ENERGY PREDICTED BY IDOCK:   -3.54 KCAL/MOL
REMARK 922        TOTAL FREE ENERGY PREDICTED BY IDOCK:   -7.85 KCAL/MOL
REMARK 923 INTER-LIGAND FREE ENERGY PREDICTED BY IDOCK:   -7.22 KCAL/MOL
REMARK 924 INTRA-LIGAND FREE ENERGY PREDICTED BY IDOCK:   -0.64 KCAL/MOL
REMARK 927      BINDING AFFINITY PREDICTED BY RF-SCORE:    0.00 PKD
ROOT
HETATM    1  C   UNL     1      -7.562   8.320  70.650  1.00  0.00    -0.071 C  
HETATM    2  C   UNL     1      -8.748   9.265  70.825  1.00  0.00    -0.272 C  
HETATM    3  C   UNL     2      -5.909   9.681  67.921  1.00  0.00    -0.040 C  
HETATM    4  O   UNL     2      -6.898  10.462  68.572  1.00  0.00    -0.059 OA 
ENDROOT
BRANCH   2   5
HETATM    5  C   UNL     1     -10.124   8.797  70.242  1.00  0.00    -0.214 C  
HETATM    6  O   UNL     1     -11.254   8.290  72.375  1.00  0.00    -0.339 OA 
HETATM    7  C   UNL     1      -9.724   7.955  69.018  1.00  0.00    -0.162 C  
HETATM    8  C   UNL     1     -10.834   7.895  71.284  1.00  0.00    -0.235 C  
HETATM    9  H   UNL     1     -11.775   6.078  71.415  1.00  0.00     0.000 HD 
HETATM   10  N   UNL     1      -9.443   6.642  69.270  1.00  0.00    -0.142 N  
HETATM   11  O   UNL     1      -9.566   8.404  67.889  1.00  0.00    -0.150 OA 
HETATM   12  O   UNL     1     -10.522   4.725  69.746  1.00  0.00    -0.164 OA 
HETATM   13  N   UNL     1     -11.038   6.587  70.928  1.00  0.00    -0.275 N  
HETATM   14  C   UNL     1     -10.338   5.917  69.980  1.00  0.00    -0.244 C  
HETATM   15  H   UNL     1      -8.580   6.217  68.930  1.00  0.00     0.000 HD 
BRANCH   5  16
HETATM   16  C   UNL     1     -11.009  10.000  69.856  1.00  0.00    -0.339 A  
HETATM   17  C   UNL     1     -12.065  12.119  70.444  1.00  0.00    -0.395 A  
HETATM   18  C   UNL     1     -11.510  10.893  70.821  1.00  0.00    -0.115 A  
HETATM   19  C   UNL     1     -11.247  10.307  68.505  1.00  0.00    -0.271 A  
HETATM   20  C   UNL     1     -12.161  12.458  69.099  1.00  0.00    -0.058 A  
HETATM   21  C   UNL     1     -11.783  11.538  68.128  1.00  0.00    -0.357 A  
ENDBRANCH   5  16
ENDBRANCH   2   5
BRANCH   4  22
HETATM   22  C   UNL     2      -7.753  11.155  67.773  1.00  0.00    -0.112 A  
HETATM   23  C   UNL     2      -8.328  12.380  68.047  1.00  0.00    -0.170 A  
HETATM   24  C   UNL     2      -8.879  11.084  65.580  1.00  0.00    -0.187 A  
HETATM   25  C   UNL     2     -10.087  11.160  63.485  1.00  0.00    -0.437 A  
HETATM   26  C   UNL     2      -9.177  12.954  67.098  1.00  0.00    -0.225 A  
HETATM   27  C   UNL     2     -10.620  12.369  63.900  1.00  0.00    -0.437 A  
HETATM   28  C   UNL     2      -7.973  10.566  66.532  1.00  0.00    -0.132 A  
HETATM   29  C   UNL     2      -9.205  10.466  64.328  1.00  0.00    -0.295 A  
HETATM   30  C   UNL     2      -9.492  12.321  65.899  1.00  0.00    -0.154 A  
HETATM   31  N   UNL     2     -10.347  12.945  65.083  1.00  0.00    -0.300 NA 
BRANCH  29  32
HETATM   32  C   UNL     2      -8.559   9.155  63.837  1.00  0.00    -0.170 C  
HETATM   33  H   UNL     2      -7.449   8.544  62.311  1.00  0.00     0.000 HD 
HETATM   34  O   UNL     2      -7.847   9.352  62.614  1.00  0.00    -0.114 OA 
BRANCH  32  35
HETATM   35  C   UNL     2      -7.571   8.431  64.825  1.00  0.00    -0.102 C  
HETATM   36  C   UNL     2      -5.519   7.002  64.460  1.00  0.00    -0.032 C  
HETATM   37  C   UNL     2      -5.651   6.635  65.949  1.00  0.00    -0.021 C  
HETATM   38  C   UNL     2      -7.136   6.598  66.343  1.00  0.00    -0.067 C  
HETATM   39  C   UNL     2      -6.114   8.412  64.293  1.00  0.00    -0.066 C  
HETATM   40  N   UNL     2      -8.003   7.048  65.228  1.00  0.00    -0.121 NA 
HETATM   41  C   UNL     2      -7.826   6.064  64.127  1.00  0.00    -0.117 C  
HETATM   42  C   UNL     2      -6.371   6.042  63.591  1.00  0.00    -0.029 C  
BRANCH  42  43
HETATM   43  C   UNL     2      -5.810   4.639  63.568  1.00  0.00    -0.017 C  
HETATM   44  C   UNL     2      -5.392   4.006  62.464  1.00  0.00    -0.009 C  
ENDBRANCH  42  43
ENDBRANCH  32  35
ENDBRANCH  29  32
ENDBRANCH   4  22
TORSDOF 6
ENDMDL
MODEL      150
REMARK 921   NORMALIZED FREE ENERGY PREDICTED BY IDOCK:   -3.51 KCAL/MOL
REMARK 922        TOTAL FREE ENERGY PREDICTED BY IDOCK:   -7.82 KCAL/MOL
REMARK 923 INTER-LIGAND FREE ENERGY PREDICTED BY IDOCK:   -7.20 KCAL/MOL
REMARK 924 INTRA-LIGAND FREE ENERGY PREDICTED BY IDOCK:   -0.62 KCAL/MOL
REMARK 927      BINDING AFFINITY PREDICTED BY RF-SCORE:    0.00 PKD
ROOT
HETATM    1  C   UNL     1      -7.336  11.434  68.765  1.00  0.00    -0.114 C  
HETATM    2  C   UNL     1      -8.097  11.464  67.442  1.00  0.00    -0.142 C  
HETATM    3  C   UNL     2      -5.813   8.318  68.689  1.00  0.00    -0.040 C  
HETATM    4  O   UNL     2      -6.365   8.832  67.487  1.00  0.00    -0.055 OA 
ENDROOT
BRANCH   2   5
HETATM    5  C   UNL     1      -9.629  11.137  67.493  1.00  0.00    -0.181 C  
HETATM    6  O   UNL     1     -10.418  13.301  68.375  1.00  0.00    -0.243 OA 
HETATM    7  C   UNL     1      -9.667   9.691  68.017  1.00  0.00    -0.146 C  
HETATM    8  C   UNL     1     -10.311  12.080  68.516  1.00  0.00    -0.217 C  
HETATM    9  H   UNL     1     -11.594  12.007  70.115  1.00  0.00     0.000 HD 
HETATM   10  N   UNL     1      -9.645   9.555  69.377  1.00  0.00    -0.170 N  
HETATM   11  O   UNL     1      -9.629   8.694  67.306  1.00  0.00    -0.151 OA 
HETATM   12  O   UNL     1     -11.017   9.817  71.142  1.00  0.00    -0.348 OA 
HETATM   13  N   UNL     1     -10.868  11.489  69.621  1.00  0.00    -0.075 N  
HETATM   14  C   UNL     1     -10.528  10.271  70.110  1.00  0.00    -0.203 C  
HETATM   15  H   UNL     1      -8.980   8.927  69.828  1.00  0.00     0.000 HD 
BRANCH   5  16
HETATM   16  C   UNL     1     -10.278  11.268  66.099  1.00  0.00    -0.291 A  
HETATM   17  C   UNL     1     -11.973  12.245  64.644  1.00  0.00    -0.437 A  
HETATM   18  C   UNL     1     -11.530  11.884  65.918  1.00  0.00    -0.340 A  
HETATM   19  C   UNL     1      -9.578  10.873  64.946  1.00  0.00    -0.297 A  
HETATM   20  C   UNL     1     -11.193  11.966  63.527  1.00  0.00    -0.501 A  
HETATM   21  C   UNL     1     -10.011  11.250  63.675  1.00  0.00    -0.402 A  
ENDBRANCH   5  16
ENDBRANCH   2   5
BRANCH   4  22
HETATM   22  C   UNL     2      -7.065   7.958  66.715  1.00  0.00    -0.077 A  
HETATM   23  C   UNL     2      -7.315   8.071  65.362  1.00  0.00    -0.069 A  
HETATM   24  C   UNL     2      -8.279   5.814  66.791  1.00  0.00    -0.105 A  
HETATM   25  C   UNL     2      -9.532   3.746  66.692  1.00  0.00    -0.212 A  
HETATM   26  C   UNL     2      -8.046   7.065  64.725  1.00  0.00    -0.096 A  
HETATM   27  C   UNL     2      -9.738   3.999  65.346  1.00  0.00    -0.196 A  
HETATM   28  C   UNL     2      -7.479   6.814  67.387  1.00  0.00    -0.096 A  
HETATM   29  C   UNL     2      -8.804   4.663  67.467  1.00  0.00    -0.112 A  
HETATM   30  C   UNL     2      -8.560   5.969  65.410  1.00  0.00    -0.124 A  
HETATM   31  N   UNL     2      -9.279   5.089  64.707  1.00  0.00    -0.061 NA 
BRANCH  29  32
HETATM   32  C   UNL     2      -8.516   4.346  68.948  1.00  0.00    -0.083 C  
HETATM   33  H   UNL     2      -6.946   3.922  70.083  1.00  0.00     0.000 HD 
HETATM   34  O   UNL     2      -7.123   4.117  69.170  1.00  0.00    -0.049 OA 
BRANCH  32  35
HETATM   35  C   UNL     2      -8.975   5.414  70.009  1.00  0.00    -0.129 C  
HETATM   36  C   UNL     2      -8.565   5.652  72.492  1.00  0.00    -0.124 C  
HETATM   37  C   UNL     2      -9.681   6.711  72.457  1.00  0.00    -0.166 C  
HETATM   38  C   UNL     2     -10.730   6.323  71.403  1.00  0.00    -0.248 C  
HETATM   39  C   UNL     2      -7.902   5.657  71.102  1.00  0.00    -0.110 C  
HETATM   40  N   UNL     2     -10.311   5.126  70.637  1.00  0.00    -0.251 NA 
HETATM   41  C   UNL     2     -10.241   4.001  71.609  1.00  0.00    -0.040 C  
HETATM   42  C   UNL     2      -9.168   4.240  72.703  1.00  0.00    -0.138 C  
BRANCH  42  43
HETATM   43  C   UNL     2      -9.743   4.064  74.090  1.00  0.00    -0.146 C  
HETATM   44  C   UNL     2     -10.327   2.942  74.533  1.00  0.00    -0.212 C  
ENDBRANCH  42  43
ENDBRANCH  32  35
ENDBRANCH  29  32
ENDBRANCH   4  22
TORSDOF 6
ENDMDL
MODEL      151
REMARK 921   NORMALIZED FREE ENERGY PREDICTED BY IDOCK:   -3.50 KCAL/MOL
REMARK 922        TOTAL FREE ENERGY PREDICTED BY IDOCK:   -7.81 KCAL/MOL
REMARK 923 INTER-LIGAND FREE ENERGY PREDICTED BY IDOCK:   -6.68 KCAL/MOL
REMARK 924 INTRA-LIGAND FREE ENERGY PREDICTED BY IDOCK:   -1.12 KCAL/MOL
REMARK 927      BINDING AFFINITY PREDICTED BY RF-SCORE:    0.00 PKD
ROOT
HETATM    1  C   UNL     1      -8.248  10.054  69.754  1.00  0.00    -0.191 C  
HETATM    2  C   UNL     1      -9.094  11.097  69.028  1.00  0.00    -0.036 C  
HETATM    3  C   UNL     2      -5.328  11.794  70.442  1.00  0.00    -0.124 C  
HETATM    4  O   UNL     2      -6.474  12.527  70.040  1.00  0.00    -0.053 OA 
ENDROOT
BRANCH   2   5
HETATM    5  C   UNL     1      -9.131  11.020  67.464  1.00  0.00    -0.138 C  
HETATM    6  O   UNL     1     -11.023   9.456  67.235  1.00  0.00    -0.183 OA 
HETATM    7  C   UNL     1      -7.644  10.964  67.074  1.00  0.00    -0.122 C  
HETATM    8  C   UNL     1      -9.831   9.705  67.039  1.00  0.00    -0.195 C  
HETATM    9  H   UNL     1      -9.553   8.104  65.787  1.00  0.00     0.000 HD 
HETATM   10  N   UNL     1      -7.082   9.718  67.069  1.00  0.00    -0.085 N  
HETATM   11  O   UNL     1      -6.943  11.946  66.862  1.00  0.00    -0.137 OA 
HETATM   12  O   UNL     1      -7.079   7.849  65.815  1.00  0.00    -0.059 OA 
HETATM   13  N   UNL     1      -9.065   8.791  66.361  1.00  0.00    -0.165 N  
HETATM   14  C   UNL     1      -7.711   8.730  66.394  1.00  0.00    -0.099 C  
HETATM   15  H   UNL     1      -6.207   9.537  67.563  1.00  0.00     0.000 HD 
BRANCH   5  16
HETATM   16  C   UNL     1      -9.844  12.248  66.858  1.00  0.00    -0.216 A  
HETATM   17  C   UNL     1      -9.735  14.459  65.835  1.00  0.00    -0.305 A  
HETATM   18  C   UNL     1      -9.167  13.461  66.631  1.00  0.00    -0.223 A  
HETATM   19  C   UNL     1     -11.171  12.152  66.407  1.00  0.00    -0.380 A  
HETATM   20  C   UNL     1     -10.999  14.279  65.283  1.00  0.00    -0.347 A  
HETATM   21  C   UNL     1     -11.731  13.140  65.597  1.00  0.00    -0.402 A  
ENDBRANCH   5  16
ENDBRANCH   2   5
BRANCH   4  22
HETATM   22  C   UNL     2      -6.274  13.530  69.144  1.00  0.00    -0.097 A  
HETATM   23  C   UNL     2      -5.261  13.613  68.210  1.00  0.00    -0.107 A  
HETATM   24  C   UNL     2      -7.214  15.670  68.357  1.00  0.00    -0.115 A  
HETATM   25  C   UNL     2      -7.979  17.794  67.486  1.00  0.00    -0.217 A  
HETATM   26  C   UNL     2      -5.219  14.717  67.356  1.00  0.00     0.356 A  
HETATM   27  C   UNL     2      -6.896  17.768  66.623  1.00  0.00    -0.207 A  
HETATM   28  C   UNL     2      -7.265  14.506  69.157  1.00  0.00    -0.138 A  
HETATM   29  C   UNL     2      -8.163  16.744  68.400  1.00  0.00    -0.224 A  
HETATM   30  C   UNL     2      -6.143  15.756  67.434  1.00  0.00    -0.083 A  
HETATM   31  N   UNL     2      -5.982  16.782  66.593  1.00  0.00    -0.313 NA 
BRANCH  29  32
HETATM   32  C   UNL     2      -9.406  16.740  69.313  1.00  0.00    -0.074 C  
HETATM   33  H   UNL     2     -10.979  17.898  69.660  1.00  0.00     0.000 HD 
HETATM   34  O   UNL     2     -10.213  17.900  69.097  1.00  0.00    -0.354 OA 
BRANCH  32  35
HETATM   35  C   UNL     2     -10.364  15.496  69.210  1.00  0.00    -0.252 C  
HETATM   36  C   UNL     2     -12.860  15.223  69.499  1.00  0.00     0.250 C  
HETATM   37  C   UNL     2     -12.575  13.711  69.524  1.00  0.00     0.095 C  
HETATM   38  C   UNL     2     -11.213  13.453  70.186  1.00  0.00     0.299 C  
HETATM   39  C   UNL     2     -11.757  15.871  68.641  1.00  0.00    -0.328 C  
HETATM   40  N   UNL     2     -10.509  14.721  70.491  1.00  0.00     0.187 NA 
HETATM   41  C   UNL     2     -11.342  15.442  71.490  1.00  0.00    -0.396 C  
HETATM   42  C   UNL     2     -12.736  15.819  70.925  1.00  0.00    -0.422 C  
BRANCH  42  43
HETATM   43  C   UNL     2     -13.848  15.357  71.838  1.00  0.00    -0.619 C  
HETATM   44  C   UNL     2     -13.718  14.403  72.771  1.00  0.00    -0.466 C  
ENDBRANCH  42  43
ENDBRANCH  32  35
ENDBRANCH  29  32
ENDBRANCH   4  22
TORSDOF 6
ENDMDL
MODEL      152
REMARK 921   NORMALIZED FREE ENERGY PREDICTED BY IDOCK:   -3.49 KCAL/MOL
REMARK 922        TOTAL FREE ENERGY PREDICTED BY IDOCK:   -7.79 KCAL/MOL
REMARK 923 INTER-LIGAND FREE ENERGY PREDICTED BY IDOCK:   -8.53 KCAL/MOL
REMARK 924 INTRA-LIGAND FREE ENERGY PREDICTED BY IDOCK:    0.74 KCAL/MOL
REMARK 927      BINDING AFFINITY PREDICTED BY RF-SCORE:    0.00 PKD
ROOT
HETATM    1  C   UNL     1     -10.011  14.952  64.969  1.00  0.00    -0.205 C  
HETATM    2  C   UNL     1     -10.600  15.520  66.258  1.00  0.00    -0.310 C  
HETATM    3  C   UNL     2     -10.775  11.577  65.215  1.00  0.00    -0.279 C  
HETATM    4  O   UNL     2     -11.428  12.485  66.088  1.00  0.00    -0.335 OA 
ENDROOT
BRANCH   2   5
HETATM    5  C   UNL     1      -9.607  15.773  67.444  1.00  0.00    -0.217 C  
HETATM    6  O   UNL     1      -8.862  13.447  67.779  1.00  0.00    -0.177 OA 
HETATM    7  C   UNL     1     -10.352  16.794  68.320  1.00  0.00    -0.319 C  
HETATM    8  C   UNL     1      -9.414  14.453  68.231  1.00  0.00    -0.207 C  
HETATM    9  H   UNL     1      -9.446  13.746  70.156  1.00  0.00     0.000 HD 
HETATM   10  N   UNL     1     -11.223  16.265  69.232  1.00  0.00    -0.325 N  
HETATM   11  O   UNL     1     -10.274  18.010  68.190  1.00  0.00    -0.345 OA 
HETATM   12  O   UNL     1     -11.183  15.184  71.206  1.00  0.00    -0.331 OA 
HETATM   13  N   UNL     1      -9.852  14.441  69.530  1.00  0.00     0.156 N  
HETATM   14  C   UNL     1     -10.782  15.281  70.048  1.00  0.00    -0.279 C  
HETATM   15  H   UNL     1     -12.183  16.605  69.296  1.00  0.00     0.000 HD 
BRANCH   5  16
HETATM   16  C   UNL     1      -8.255  16.320  66.937  1.00  0.00    -0.261 A  
HETATM   17  C   UNL     1      -6.959  18.097  65.884  1.00  0.00    -0.319 A  
HETATM   18  C   UNL     1      -8.178  17.451  66.104  1.00  0.00    -0.237 A  
HETATM   19  C   UNL     1      -7.046  15.766  67.392  1.00  0.00    -0.236 A  
HETATM   20  C   UNL     1      -5.793  17.606  66.463  1.00  0.00    -0.231 A  
HETATM   21  C   UNL     1      -5.832  16.422  67.189  1.00  0.00    -0.146 A  
ENDBRANCH   5  16
ENDBRANCH   2   5
BRANCH   4  22
HETATM   22  C   UNL     2     -11.553  12.100  67.386  1.00  0.00    -0.340 A  
HETATM   23  C   UNL     2     -12.123  12.828  68.411  1.00  0.00    -0.145 A  
HETATM   24  C   UNL     2     -11.098  10.230  68.928  1.00  0.00    -0.278 A  
HETATM   25  C   UNL     2     -10.695   8.511  70.583  1.00  0.00    -0.251 A  
HETATM   26  C   UNL     2     -12.178  12.266  69.689  1.00  0.00    -0.175 A  
HETATM   27  C   UNL     2     -11.260   9.359  71.521  1.00  0.00    -0.386 A  
HETATM   28  C   UNL     2     -11.121  10.802  67.636  1.00  0.00    -0.384 A  
HETATM   29  C   UNL     2     -10.580   8.932  69.248  1.00  0.00    -0.219 A  
HETATM   30  C   UNL     2     -11.649  11.011  69.975  1.00  0.00    -0.344 A  
HETATM   31  N   UNL     2     -11.722  10.590  71.241  1.00  0.00    -0.249 NA 
BRANCH  29  32
HETATM   32  C   UNL     2     -10.014   7.962  68.192  1.00  0.00    -0.180 C  
HETATM   33  H   UNL     2     -10.347   7.499  66.292  1.00  0.00     0.000 HD 
HETATM   34  O   UNL     2     -10.696   8.097  66.943  1.00  0.00    -0.309 OA 
BRANCH  32  35
HETATM   35  C   UNL     2      -8.475   8.062  67.882  1.00  0.00    -0.125 C  
HETATM   36  C   UNL     2      -6.579   6.398  68.045  1.00  0.00    -0.066 C  
HETATM   37  C   UNL     2      -5.651   7.613  67.865  1.00  0.00    -0.032 C  
HETATM   38  C   UNL     2      -6.280   8.848  68.529  1.00  0.00    -0.053 C  
HETATM   39  C   UNL     2      -7.898   6.734  67.325  1.00  0.00    -0.110 C  
HETATM   40  N   UNL     2      -7.643   8.556  69.034  1.00  0.00    -0.093 NA 
HETATM   41  C   UNL     2      -7.493   7.526  70.097  1.00  0.00    -0.086 C  
HETATM   42  C   UNL     2      -6.917   6.196  69.544  1.00  0.00    -0.067 C  
BRANCH  42  43
HETATM   43  C   UNL     2      -5.721   5.735  70.345  1.00  0.00    -0.013 C  
HETATM   44  C   UNL     2      -5.405   6.185  71.566  1.00  0.00    -0.022 C  
ENDBRANCH  42  43
ENDBRANCH  32  35
ENDBRANCH  29  32
ENDBRANCH   4  22
TORSDOF 6
ENDMDL
MODEL      153
REMARK 921   NORMALIZED FREE ENERGY PREDICTED BY IDOCK:   -3.47 KCAL/MOL
REMARK 922        TOTAL FREE ENERGY PREDICTED BY IDOCK:   -7.76 KCAL/MOL
REMARK 923 INTER-LIGAND FREE ENERGY PREDICTED BY IDOCK:   -7.67 KCAL/MOL
REMARK 924 INTRA-LIGAND FREE ENERGY PREDICTED BY IDOCK:   -0.09 KCAL/MOL
REMARK 927      BINDING AFFINITY PREDICTED BY RF-SCORE:    0.00 PKD
ROOT
HETATM    1  C   UNL     1      -8.621  17.989  65.873  1.00  0.00     0.136 C  
HETATM    2  C   UNL     1      -9.259  16.877  66.702  1.00  0.00    -0.278 C  
HETATM    3  C   UNL     2      -5.238  17.262  66.109  1.00  0.00    -0.054 C  
HETATM    4  O   UNL     2      -6.173  16.271  66.504  1.00  0.00    -0.220 OA 
ENDROOT
BRANCH   2   5
HETATM    5  C   UNL     1      -9.676  17.233  68.170  1.00  0.00    -0.284 C  
HETATM    6  O   UNL     1     -11.195  19.107  67.658  1.00  0.00    -0.261 OA 
HETATM    7  C   UNL     1      -8.358  17.109  68.953  1.00  0.00    -0.183 C  
HETATM    8  C   UNL     1     -10.170  18.701  68.213  1.00  0.00    -0.380 C  
HETATM    9  H   UNL     1      -9.892  20.427  69.284  1.00  0.00     0.000 HD 
HETATM   10  N   UNL     1      -7.568  18.225  68.963  1.00  0.00    -0.203 N  
HETATM   11  O   UNL     1      -7.955  16.076  69.475  1.00  0.00    -0.207 OA 
HETATM   12  O   UNL     1      -7.495  20.258  69.926  1.00  0.00     0.163 OA 
HETATM   13  N   UNL     1      -9.429  19.579  68.961  1.00  0.00    -0.375 N  
HETATM   14  C   UNL     1      -8.129  19.407  69.305  1.00  0.00    -0.059 C  
HETATM   15  H   UNL     1      -6.580  18.168  68.718  1.00  0.00     0.000 HD 
BRANCH   5  16
HETATM   16  C   UNL     1     -10.758  16.267  68.696  1.00  0.00    -0.309 A  
HETATM   17  C   UNL     1     -12.148  14.287  68.391  1.00  0.00    -0.297 A  
HETATM   18  C   UNL     1     -11.388  15.330  67.856  1.00  0.00    -0.339 A  
HETATM   19  C   UNL     1     -11.066  16.218  70.067  1.00  0.00    -0.351 A  
HETATM   20  C   UNL     1     -12.322  14.181  69.767  1.00  0.00    -0.350 A  
HETATM   21  C   UNL     1     -11.809  15.166  70.602  1.00  0.00    -0.371 A  
ENDBRANCH   5  16
ENDBRANCH   2   5
BRANCH   4  22
HETATM   22  C   UNL     2      -5.894  15.588  67.646  1.00  0.00    -0.107 A  
HETATM   23  C   UNL     2      -5.415  16.117  68.828  1.00  0.00    -0.108 A  
HETATM   24  C   UNL     2      -5.943  13.332  68.642  1.00  0.00    -0.083 A  
HETATM   25  C   UNL     2      -5.893  11.189  69.763  1.00  0.00    -0.079 A  
HETATM   26  C   UNL     2      -5.197  15.262  69.911  1.00  0.00    -0.100 A  
HETATM   27  C   UNL     2      -5.383  11.843  70.872  1.00  0.00    -0.134 A  
HETATM   28  C   UNL     2      -6.217  14.236  67.591  1.00  0.00    -0.099 A  
HETATM   29  C   UNL     2      -6.175  11.918  68.597  1.00  0.00    -0.055 A  
HETATM   30  C   UNL     2      -5.413  13.889  69.832  1.00  0.00    -0.102 A  
HETATM   31  N   UNL     2      -5.131  13.162  70.918  1.00  0.00    -0.122 NA 
BRANCH  29  32
HETATM   32  C   UNL     2      -6.808  11.202  67.387  1.00  0.00    -0.089 C  
HETATM   33  H   UNL     2      -6.448   9.600  66.274  1.00  0.00     0.000 HD 
HETATM   34  O   UNL     2      -6.058  10.041  67.019  1.00  0.00    -0.054 OA 
BRANCH  32  35
HETATM   35  C   UNL     2      -8.307  10.747  67.530  1.00  0.00    -0.115 C  
HETATM   36  C   UNL     2     -10.225  10.616  65.888  1.00  0.00    -0.314 C  
HETATM   37  C   UNL     2     -11.119  10.421  67.125  1.00  0.00    -0.195 C  
HETATM   38  C   UNL     2     -10.548  11.221  68.307  1.00  0.00    -0.197 C  
HETATM   39  C   UNL     2      -8.837  10.054  66.247  1.00  0.00    -0.160 C  
HETATM   40  N   UNL     2      -9.245  11.839  67.964  1.00  0.00    -0.174 NA 
HETATM   41  C   UNL     2      -9.511  12.815  66.873  1.00  0.00    -0.235 C  
HETATM   42  C   UNL     2     -10.040  12.126  65.588  1.00  0.00    -0.274 C  
BRANCH  42  43
HETATM   43  C   UNL     2     -11.315  12.773  65.097  1.00  0.00    -0.346 C  
HETATM   44  C   UNL     2     -11.362  13.857  64.312  1.00  0.00    -0.309 C  
ENDBRANCH  42  43
ENDBRANCH  32  35
ENDBRANCH  29  32
ENDBRANCH   4  22
TORSDOF 6
ENDMDL
MODEL      154
REMARK 921   NORMALIZED FREE ENERGY PREDICTED BY IDOCK:   -3.46 KCAL/MOL
REMARK 922        TOTAL FREE ENERGY PREDICTED BY IDOCK:   -7.75 KCAL/MOL
REMARK 923 INTER-LIGAND FREE ENERGY PREDICTED BY IDOCK:   -5.70 KCAL/MOL
REMARK 924 INTRA-LIGAND FREE ENERGY PREDICTED BY IDOCK:   -2.05 KCAL/MOL
REMARK 927      BINDING AFFINITY PREDICTED BY RF-SCORE:    0.00 PKD
ROOT
HETATM    1  C   UNL     1      -7.249   9.864  65.516  1.00  0.00    -0.122 C  
HETATM    2  C   UNL     1      -8.716  10.144  65.837  1.00  0.00    -0.159 C  
HETATM    3  C   UNL     2      -6.892   6.545  66.458  1.00  0.00    -0.065 C  
HETATM    4  O   UNL     2      -8.201   7.074  66.325  1.00  0.00    -0.109 OA 
ENDROOT
BRANCH   2   5
HETATM    5  C   UNL     1      -9.021  10.890  67.181  1.00  0.00    -0.141 C  
HETATM    6  O   UNL     1     -11.392  10.253  67.405  1.00  0.00    -0.310 OA 
HETATM    7  C   UNL     1      -8.285  12.231  67.018  1.00  0.00    -0.155 C  
HETATM    8  C   UNL     1     -10.546  11.142  67.283  1.00  0.00    -0.239 C  
HETATM    9  H   UNL     1     -11.870  12.657  67.683  1.00  0.00     0.000 HD 
HETATM   10  N   UNL     1      -8.983  13.214  66.374  1.00  0.00    -0.452 N  
HETATM   11  O   UNL     1      -7.120  12.429  67.344  1.00  0.00    -0.135 OA 
HETATM   12  O   UNL     1     -10.681  14.639  66.765  1.00  0.00    -0.291 OA 
HETATM   13  N   UNL     1     -10.955  12.451  67.284  1.00  0.00    -0.249 N  
HETATM   14  C   UNL     1     -10.238  13.493  66.795  1.00  0.00    -0.264 C  
HETATM   15  H   UNL     1      -8.569  13.726  65.595  1.00  0.00     0.000 HD 
BRANCH   5  16
HETATM   16  C   UNL     1      -8.507  10.090  68.396  1.00  0.00    -0.112 A  
HETATM   17  C   UNL     1      -6.653   9.246  69.737  1.00  0.00    -0.043 A  
HETATM   18  C   UNL     1      -7.157   9.715  68.521  1.00  0.00    -0.069 A  
HETATM   19  C   UNL     1      -9.360   9.810  69.478  1.00  0.00    -0.226 A  
HETATM   20  C   UNL     1      -7.494   9.110  70.836  1.00  0.00    -0.136 A  
HETATM   21  C   UNL     1      -8.854   9.360  70.697  1.00  0.00    -0.275 A  
ENDBRANCH   5  16
ENDBRANCH   2   5
BRANCH   4  22
HETATM   22  C   UNL     2      -9.097   6.735  67.290  1.00  0.00    -0.119 A  
HETATM   23  C   UNL     2     -10.472   6.712  67.168  1.00  0.00    -0.358 A  
HETATM   24  C   UNL     2      -9.262   5.966  69.627  1.00  0.00    -0.151 A  
HETATM   25  C   UNL     2      -9.609   5.245  71.911  1.00  0.00    -0.191 A  
HETATM   26  C   UNL     2     -11.241   6.322  68.268  1.00  0.00    -0.251 A  
HETATM   27  C   UNL     2     -10.970   5.297  71.663  1.00  0.00    -0.050 A  
HETATM   28  C   UNL     2      -8.515   6.298  68.475  1.00  0.00    -0.115 A  
HETATM   29  C   UNL     2      -8.705   5.597  70.896  1.00  0.00    -0.136 A  
HETATM   30  C   UNL     2     -10.673   5.989  69.494  1.00  0.00    -0.335 A  
HETATM   31  N   UNL     2     -11.507   5.670  70.488  1.00  0.00     0.106 NA 
BRANCH  29  32
HETATM   32  C   UNL     2      -7.190   5.472  71.151  1.00  0.00    -0.075 C  
HETATM   33  H   UNL     2      -5.912   5.833  72.625  1.00  0.00     0.000 HD 
HETATM   34  O   UNL     2      -6.846   5.910  72.468  1.00  0.00    -0.074 OA 
BRANCH  32  35
HETATM   35  C   UNL     2      -6.549   4.047  70.965  1.00  0.00    -0.030 C  
HETATM   36  C   UNL     2      -5.905   2.709  68.920  1.00  0.00    -0.023 C  
HETATM   37  C   UNL     2      -5.766   1.518  69.885  1.00  0.00    -0.017 C  
HETATM   38  C   UNL     2      -6.804   1.642  71.012  1.00  0.00    -0.031 C  
HETATM   39  C   UNL     2      -5.607   3.981  69.735  1.00  0.00    -0.016 C  
HETATM   40  N   UNL     2      -7.547   2.922  70.926  1.00  0.00    -0.036 NA 
HETATM   41  C   UNL     2      -8.304   2.890  69.646  1.00  0.00    -0.055 C  
HETATM   42  C   UNL     2      -7.365   2.825  68.413  1.00  0.00    -0.049 C  
BRANCH  42  43
HETATM   43  C   UNL     2      -7.743   1.690  67.489  1.00  0.00    -0.059 C  
HETATM   44  C   UNL     2      -8.095   1.842  66.205  1.00  0.00    -0.080 C  
ENDBRANCH  42  43
ENDBRANCH  32  35
ENDBRANCH  29  32
ENDBRANCH   4  22
TORSDOF 6
ENDMDL
MODEL      155
REMARK 921   NORMALIZED FREE ENERGY PREDICTED BY IDOCK:   -3.44 KCAL/MOL
REMARK 922        TOTAL FREE ENERGY PREDICTED BY IDOCK:   -7.72 KCAL/MOL
REMARK 923 INTER-LIGAND FREE ENERGY PREDICTED BY IDOCK:   -6.35 KCAL/MOL
REMARK 924 INTRA-LIGAND FREE ENERGY PREDICTED BY IDOCK:   -1.38 KCAL/MOL
REMARK 927      BINDING AFFINITY PREDICTED BY RF-SCORE:    0.00 PKD
ROOT
HETATM    1  C   UNL     1     -11.783  11.825  68.489  1.00  0.00    -0.390 C  
HETATM    2  C   UNL     1     -10.346  12.334  68.405  1.00  0.00    -0.231 C  
HETATM    3  C   UNL     2     -11.429   8.849  70.234  1.00  0.00    -0.105 C  
HETATM    4  O   UNL     2     -10.343   9.761  70.225  1.00  0.00    -0.258 OA 
ENDROOT
BRANCH   2   5
HETATM    5  C   UNL     1      -9.578  12.082  67.063  1.00  0.00    -0.200 C  
HETATM    6  O   UNL     1      -9.352  14.430  66.343  1.00  0.00    -0.280 OA 
HETATM    7  C   UNL     1     -10.284  10.847  66.476  1.00  0.00    -0.232 C  
HETATM    8  C   UNL     1      -9.789  13.297  66.125  1.00  0.00    -0.280 C  
HETATM    9  H   UNL     1     -10.331  13.721  64.193  1.00  0.00     0.000 HD 
HETATM   10  N   UNL     1     -11.400  11.103  65.729  1.00  0.00     0.063 N  
HETATM   11  O   UNL     1      -9.961   9.688  66.707  1.00  0.00    -0.198 OA 
HETATM   12  O   UNL     1     -11.949  11.899  63.697  1.00  0.00    -0.473 OA 
HETATM   13  N   UNL     1     -10.471  13.063  64.958  1.00  0.00    -0.315 N  
HETATM   14  C   UNL     1     -11.316  12.025  64.742  1.00  0.00    -0.313 C  
HETATM   15  H   UNL     1     -12.275  10.612  65.911  1.00  0.00     0.000 HD 
BRANCH   5  16
HETATM   16  C   UNL     1      -8.077  11.829  67.313  1.00  0.00    -0.164 A  
HETATM   17  C   UNL     1      -5.909  11.041  66.522  1.00  0.00    -0.124 A  
HETATM   18  C   UNL     1      -7.304  11.034  66.447  1.00  0.00    -0.128 A  
HETATM   19  C   UNL     1      -7.407  12.484  68.361  1.00  0.00    -0.114 A  
HETATM   20  C   UNL     1      -5.264  11.811  67.483  1.00  0.00    -0.074 A  
HETATM   21  C   UNL     1      -6.014  12.506  68.424  1.00  0.00    -0.057 A  
ENDBRANCH   5  16
ENDBRANCH   2   5
BRANCH   4  22
HETATM   22  C   UNL     2      -9.102   9.232  70.052  1.00  0.00    -0.210 A  
HETATM   23  C   UNL     2      -7.898   9.892  70.192  1.00  0.00    -0.186 A  
HETATM   24  C   UNL     2      -7.925   7.135  69.508  1.00  0.00    -0.128 A  
HETATM   25  C   UNL     2      -6.612   5.178  68.958  1.00  0.00    -0.051 A  
HETATM   26  C   UNL     2      -6.712   9.182  69.988  1.00  0.00    -0.047 A  
HETATM   27  C   UNL     2      -5.481   5.965  69.097  1.00  0.00    -0.004 A  
HETATM   28  C   UNL     2      -9.101   7.867  69.789  1.00  0.00    -0.146 A  
HETATM   29  C   UNL     2      -7.882   5.749  69.144  1.00  0.00    -0.090 A  
HETATM   30  C   UNL     2      -6.701   7.841  69.616  1.00  0.00    -0.039 A  
HETATM   31  N   UNL     2      -5.509   7.273  69.408  1.00  0.00    -0.015 NA 
BRANCH  29  32
HETATM   32  C   UNL     2      -9.136   4.856  69.057  1.00  0.00    -0.111 C  
HETATM   33  H   UNL     2     -11.055   4.964  69.547  1.00  0.00     0.000 HD 
HETATM   34  O   UNL     2     -10.282   5.515  69.601  1.00  0.00    -0.216 OA 
BRANCH  32  35
HETATM   35  C   UNL     2      -9.546   4.338  67.629  1.00  0.00    -0.165 C  
HETATM   36  C   UNL     2      -8.258   4.047  65.474  1.00  0.00    -0.105 C  
HETATM   37  C   UNL     2      -9.635   3.863  64.811  1.00  0.00    -0.177 C  
HETATM   38  C   UNL     2     -10.675   4.738  65.528  1.00  0.00    -0.096 C  
HETATM   39  C   UNL     2      -8.396   3.566  66.930  1.00  0.00    -0.100 C  
HETATM   40  N   UNL     2     -10.095   5.402  66.719  1.00  0.00    -0.189 NA 
HETATM   41  C   UNL     2      -9.032   6.317  66.223  1.00  0.00    -0.155 C  
HETATM   42  C   UNL     2      -7.880   5.549  65.524  1.00  0.00    -0.099 C  
BRANCH  42  43
HETATM   43  C   UNL     2      -7.590   6.114  64.152  1.00  0.00    -0.096 C  
HETATM   44  C   UNL     2      -6.791   7.163  63.916  1.00  0.00    -0.048 C  
ENDBRANCH  42  43
ENDBRANCH  32  35
ENDBRANCH  29  32
ENDBRANCH   4  22
TORSDOF 6
ENDMDL
MODEL      156
REMARK 921   NORMALIZED FREE ENERGY PREDICTED BY IDOCK:   -3.43 KCAL/MOL
REMARK 922        TOTAL FREE ENERGY PREDICTED BY IDOCK:   -7.71 KCAL/MOL
REMARK 923 INTER-LIGAND FREE ENERGY PREDICTED BY IDOCK:   -8.55 KCAL/MOL
REMARK 924 INTRA-LIGAND FREE ENERGY PREDICTED BY IDOCK:    0.84 KCAL/MOL
REMARK 927      BINDING AFFINITY PREDICTED BY RF-SCORE:    0.00 PKD
ROOT
HETATM    1  C   UNL     1     -10.228  16.784  65.319  1.00  0.00     0.030 C  
HETATM    2  C   UNL     1     -10.680  17.011  66.759  1.00  0.00    -0.102 C  
HETATM    3  C   UNL     2     -11.002  13.442  64.803  1.00  0.00    -0.360 C  
HETATM    4  O   UNL     2     -11.556  14.100  65.932  1.00  0.00    -0.331 OA 
ENDROOT
BRANCH   2   5
HETATM    5  C   UNL     1      -9.572  16.979  67.867  1.00  0.00    -0.249 C  
HETATM    6  O   UNL     1      -8.698  14.717  67.422  1.00  0.00    -0.175 OA 
HETATM    7  C   UNL     1     -10.257  17.642  69.074  1.00  0.00    -0.314 C  
HETATM    8  C   UNL     1      -9.237  15.504  68.203  1.00  0.00    -0.189 C  
HETATM    9  H   UNL     1      -9.025  14.266  69.825  1.00  0.00     0.000 HD 
HETATM   10  N   UNL     1     -10.998  16.809  69.865  1.00  0.00    -0.401 N  
HETATM   11  O   UNL     1     -10.245  18.845  69.306  1.00  0.00    -0.249 OA 
HETATM   12  O   UNL     1     -10.692  15.205  71.414  1.00  0.00    -0.099 OA 
HETATM   13  N   UNL     1      -9.527  15.082  69.475  1.00  0.00    -0.129 N  
HETATM   14  C   UNL     1     -10.428  15.664  70.305  1.00  0.00    -0.260 C  
HETATM   15  H   UNL     1     -11.958  17.044  70.117  1.00  0.00     0.000 HD 
BRANCH   5  16
HETATM   16  C   UNL     1      -8.310  17.747  67.421  1.00  0.00    -0.227 A  
HETATM   17  C   UNL     1      -6.343  17.925  65.990  1.00  0.00    -0.288 A  
HETATM   18  C   UNL     1      -7.326  17.150  66.612  1.00  0.00    -0.285 A  
HETATM   19  C   UNL     1      -8.162  19.112  67.719  1.00  0.00    -0.319 A  
HETATM   20  C   UNL     1      -6.305  19.300  66.192  1.00  0.00    -0.204 A  
HETATM   21  C   UNL     1      -7.194  19.889  67.084  1.00  0.00    -0.272 A  
ENDBRANCH   5  16
ENDBRANCH   2   5
BRANCH   4  22
HETATM   22  C   UNL     2     -11.557  13.407  67.102  1.00  0.00    -0.358 A  
HETATM   23  C   UNL     2     -12.102  13.816  68.302  1.00  0.00    -0.314 A  
HETATM   24  C   UNL     2     -10.854  11.272  68.115  1.00  0.00    -0.263 A  
HETATM   25  C   UNL     2     -10.206   9.250  69.277  1.00  0.00    -0.211 A  
HETATM   26  C   UNL     2     -12.022  12.963  69.406  1.00  0.00    -0.327 A  
HETATM   27  C   UNL     2     -10.761   9.796  70.422  1.00  0.00    -0.308 A  
HETATM   28  C   UNL     2     -11.014  12.130  67.005  1.00  0.00    -0.319 A  
HETATM   29  C   UNL     2     -10.220   9.986  68.081  1.00  0.00    -0.205 A  
HETATM   30  C   UNL     2     -11.383  11.728  69.348  1.00  0.00    -0.272 A  
HETATM   31  N   UNL     2     -11.331  11.012  70.476  1.00  0.00    -0.163 NA 
BRANCH  29  32
HETATM   32  C   UNL     2      -9.663   9.350  66.792  1.00  0.00    -0.198 C  
HETATM   33  H   UNL     2      -9.807   9.630  64.833  1.00  0.00     0.000 HD 
HETATM   34  O   UNL     2     -10.149  10.022  65.628  1.00  0.00    -0.282 OA 
BRANCH  32  35
HETATM   35  C   UNL     2      -8.099   9.273  66.651  1.00  0.00    -0.108 C  
HETATM   36  C   UNL     2      -6.206   9.693  68.273  1.00  0.00    -0.055 C  
HETATM   37  C   UNL     2      -5.293   9.669  67.035  1.00  0.00    -0.042 C  
HETATM   38  C   UNL     2      -6.045  10.250  65.827  1.00  0.00    -0.107 C  
HETATM   39  C   UNL     2      -7.412   8.790  67.955  1.00  0.00    -0.093 C  
HETATM   40  N   UNL     2      -7.459  10.542  66.159  1.00  0.00    -0.131 NA 
HETATM   41  C   UNL     2      -7.442  11.601  67.203  1.00  0.00    -0.146 C  
HETATM   42  C   UNL     2      -6.758  11.122  68.510  1.00  0.00    -0.062 C  
BRANCH  42  43
HETATM   43  C   UNL     2      -5.682  12.084  68.957  1.00  0.00    -0.057 C  
HETATM   44  C   UNL     2      -5.916  13.280  69.516  1.00  0.00    -0.107 C  
ENDBRANCH  42  43
ENDBRANCH  32  35
ENDBRANCH  29  32
ENDBRANCH   4  22
TORSDOF 6
ENDMDL
MODEL      157
REMARK 921   NORMALIZED FREE ENERGY PREDICTED BY IDOCK:   -3.43 KCAL/MOL
REMARK 922        TOTAL FREE ENERGY PREDICTED BY IDOCK:   -7.71 KCAL/MOL
REMARK 923 INTER-LIGAND FREE ENERGY PREDICTED BY IDOCK:   -6.25 KCAL/MOL
REMARK 924 INTRA-LIGAND FREE ENERGY PREDICTED BY IDOCK:   -1.46 KCAL/MOL
REMARK 927      BINDING AFFINITY PREDICTED BY RF-SCORE:    0.00 PKD
ROOT
HETATM    1  C   UNL     1     -11.090  10.256  70.284  1.00  0.00    -0.388 C  
HETATM    2  C   UNL     1      -9.659  10.106  69.774  1.00  0.00    -0.213 C  
HETATM    3  C   UNL     2     -12.110   6.962  70.652  1.00  0.00    -0.311 C  
HETATM    4  O   UNL     2     -10.727   7.228  70.484  1.00  0.00    -0.223 OA 
ENDROOT
BRANCH   2   5
HETATM    5  C   UNL     1      -9.432  10.264  68.232  1.00  0.00    -0.147 C  
HETATM    6  O   UNL     1     -11.033   8.553  67.465  1.00  0.00    -0.107 OA 
HETATM    7  C   UNL     1      -7.908  10.432  68.112  1.00  0.00    -0.108 C  
HETATM    8  C   UNL     1      -9.869   8.959  67.521  1.00  0.00    -0.184 C  
HETATM    9  H   UNL     1      -9.179   7.608  66.141  1.00  0.00     0.000 HD 
HETATM   10  N   UNL     1      -7.189   9.272  68.045  1.00  0.00    -0.078 N  
HETATM   11  O   UNL     1      -7.321  11.507  68.159  1.00  0.00    -0.084 OA 
HETATM   12  O   UNL     1      -6.731   7.628  66.578  1.00  0.00    -0.055 OA 
HETATM   13  N   UNL     1      -8.888   8.250  66.878  1.00  0.00    -0.136 N  
HETATM   14  C   UNL     1      -7.561   8.334  67.144  1.00  0.00    -0.093 C  
HETATM   15  H   UNL     1      -6.390   9.116  68.660  1.00  0.00     0.000 HD 
BRANCH   5  16
HETATM   16  C   UNL     1     -10.197  11.483  67.674  1.00  0.00    -0.205 A  
HETATM   17  C   UNL     1     -11.598  12.487  65.949  1.00  0.00    -0.454 A  
HETATM   18  C   UNL     1     -10.678  11.516  66.352  1.00  0.00    -0.320 A  
HETATM   19  C   UNL     1     -10.537  12.558  68.514  1.00  0.00    -0.262 A  
HETATM   20  C   UNL     1     -12.026  13.460  66.845  1.00  0.00    -0.437 A  
HETATM   21  C   UNL     1     -11.470  13.516  68.117  1.00  0.00    -0.338 A  
ENDBRANCH   5  16
ENDBRANCH   2   5
BRANCH   4  22
HETATM   22  C   UNL     2     -10.045   6.403  69.645  1.00  0.00    -0.175 A  
HETATM   23  C   UNL     2     -10.571   5.665  68.604  1.00  0.00    -0.268 A  
HETATM   24  C   UNL     2      -7.783   5.563  69.136  1.00  0.00    -0.087 A  
HETATM   25  C   UNL     2      -5.644   4.614  68.520  1.00  0.00    -0.016 A  
HETATM   26  C   UNL     2      -9.713   4.877  67.834  1.00  0.00    -0.202 A  
HETATM   27  C   UNL     2      -6.305   3.903  67.533  1.00  0.00    -0.037 A  
HETATM   28  C   UNL     2      -8.669   6.401  69.849  1.00  0.00    -0.142 A  
HETATM   29  C   UNL     2      -6.372   5.461  69.371  1.00  0.00    -0.034 A  
HETATM   30  C   UNL     2      -8.350   4.782  68.098  1.00  0.00    -0.098 A  
HETATM   31  N   UNL     2      -7.631   3.965  67.321  1.00  0.00    -0.075 NA 
BRANCH  29  32
HETATM   32  C   UNL     2      -5.626   6.304  70.424  1.00  0.00    -0.018 C  
HETATM   33  H   UNL     2      -5.723   8.136  71.179  1.00  0.00     0.000 HD 
HETATM   34  O   UNL     2      -6.183   7.616  70.530  1.00  0.00    -0.036 OA 
BRANCH  32  35
HETATM   35  C   UNL     2      -5.553   5.723  71.884  1.00  0.00    -0.022 C  
HETATM   36  C   UNL     2      -6.995   4.078  73.150  1.00  0.00    -0.057 C  
HETATM   37  C   UNL     2      -6.237   4.555  74.402  1.00  0.00    -0.050 C  
HETATM   38  C   UNL     2      -5.885   6.044  74.258  1.00  0.00    -0.062 C  
HETATM   39  C   UNL     2      -6.038   4.251  71.957  1.00  0.00    -0.017 C  
HETATM   40  N   UNL     2      -6.253   6.560  72.918  1.00  0.00    -0.054 NA 
HETATM   41  C   UNL     2      -7.733   6.456  72.813  1.00  0.00    -0.103 C  
HETATM   42  C   UNL     2      -8.223   4.986  72.885  1.00  0.00    -0.108 C  
BRANCH  42  43
HETATM   43  C   UNL     2      -9.301   4.811  73.929  1.00  0.00    -0.118 C  
HETATM   44  C   UNL     2     -10.545   5.300  73.826  1.00  0.00    -0.330 C  
ENDBRANCH  42  43
ENDBRANCH  32  35
ENDBRANCH  29  32
ENDBRANCH   4  22
TORSDOF 6
ENDMDL
MODEL      158
REMARK 921   NORMALIZED FREE ENERGY PREDICTED BY IDOCK:   -3.38 KCAL/MOL
REMARK 922        TOTAL FREE ENERGY PREDICTED BY IDOCK:   -7.65 KCAL/MOL
REMARK 923 INTER-LIGAND FREE ENERGY PREDICTED BY IDOCK:   -8.79 KCAL/MOL
REMARK 924 INTRA-LIGAND FREE ENERGY PREDICTED BY IDOCK:    1.15 KCAL/MOL
REMARK 927      BINDING AFFINITY PREDICTED BY RF-SCORE:    0.00 PKD
ROOT
HETATM    1  C   UNL     1     -11.388  16.122  67.565  1.00  0.00     0.002 C  
HETATM    2  C   UNL     1     -10.369  15.350  68.400  1.00  0.00    -0.229 C  
HETATM    3  C   UNL     2     -12.877  13.617  65.683  1.00  0.00    -0.371 C  
HETATM    4  O   UNL     2     -12.085  13.246  66.800  1.00  0.00    -0.384 OA 
ENDROOT
BRANCH   2   5
HETATM    5  C   UNL     1      -8.883  15.366  67.904  1.00  0.00    -0.168 C  
HETATM    6  O   UNL     1      -9.288  14.706  65.563  1.00  0.00    -0.093 OA 
HETATM    7  C   UNL     1      -8.111  14.735  69.075  1.00  0.00    -0.145 C  
HETATM    8  C   UNL     1      -8.759  14.464  66.651  1.00  0.00    -0.099 C  
HETATM    9  H   UNL     1      -7.595  12.945  65.911  1.00  0.00     0.000 HD 
HETATM   10  N   UNL     1      -8.042  13.369  69.069  1.00  0.00    -0.332 N  
HETATM   11  O   UNL     1      -7.647  15.361  70.020  1.00  0.00    -0.082 OA 
HETATM   12  O   UNL     1      -6.970  11.717  67.981  1.00  0.00    -0.071 OA 
HETATM   13  N   UNL     1      -7.965  13.352  66.770  1.00  0.00     0.199 N  
HETATM   14  C   UNL     1      -7.634  12.749  67.938  1.00  0.00    -0.138 C  
HETATM   15  H   UNL     1      -8.292  12.830  69.898  1.00  0.00     0.000 HD 
BRANCH   5  16
HETATM   16  C   UNL     1      -8.408  16.803  67.602  1.00  0.00    -0.191 A  
HETATM   17  C   UNL     1      -7.255  18.382  66.145  1.00  0.00    -0.298 A  
HETATM   18  C   UNL     1      -7.465  17.076  66.594  1.00  0.00    -0.300 A  
HETATM   19  C   UNL     1      -8.995  17.901  68.255  1.00  0.00    -0.277 A  
HETATM   20  C   UNL     1      -7.955  19.439  66.716  1.00  0.00    -0.290 A  
HETATM   21  C   UNL     1      -8.800  19.203  67.793  1.00  0.00    -0.339 A  
ENDBRANCH   5  16
ENDBRANCH   2   5
BRANCH   4  22
HETATM   22  C   UNL     2     -11.244  12.191  66.629  1.00  0.00    -0.324 A  
HETATM   23  C   UNL     2     -10.635  11.804  65.452  1.00  0.00    -0.325 A  
HETATM   24  C   UNL     2     -10.139  10.350  67.842  1.00  0.00    -0.200 A  
HETATM   25  C   UNL     2      -9.003   8.474  68.864  1.00  0.00    -0.146 A  
HETATM   26  C   UNL     2      -9.786  10.695  65.465  1.00  0.00    -0.291 A  
HETATM   27  C   UNL     2      -8.486   8.176  67.615  1.00  0.00    -0.131 A  
HETATM   28  C   UNL     2     -10.936  11.516  67.805  1.00  0.00    -0.291 A  
HETATM   29  C   UNL     2      -9.867   9.571  69.014  1.00  0.00    -0.178 A  
HETATM   30  C   UNL     2      -9.556   9.945  66.615  1.00  0.00    -0.184 A  
HETATM   31  N   UNL     2      -8.756   8.880  66.502  1.00  0.00    -0.126 NA 
BRANCH  29  32
HETATM   32  C   UNL     2     -10.387   9.942  70.417  1.00  0.00    -0.260 C  
HETATM   33  H   UNL     2     -11.854  11.020  71.204  1.00  0.00     0.000 HD 
HETATM   34  O   UNL     2     -11.534  10.791  70.340  1.00  0.00    -0.303 OA 
BRANCH  32  35
HETATM   35  C   UNL     2     -10.765   8.754  71.377  1.00  0.00    -0.286 C  
HETATM   36  C   UNL     2      -9.773   6.459  71.740  1.00  0.00    -0.172 C  
HETATM   37  C   UNL     2     -11.058   6.155  72.530  1.00  0.00    -0.313 C  
HETATM   38  C   UNL     2     -12.240   6.912  71.906  1.00  0.00    -0.332 C  
HETATM   39  C   UNL     2      -9.519   7.972  71.866  1.00  0.00    -0.240 C  
HETATM   40  N   UNL     2     -11.793   7.810  70.815  1.00  0.00    -0.237 NA 
HETATM   41  C   UNL     2     -11.229   6.939  69.749  1.00  0.00    -0.267 C  
HETATM   42  C   UNL     2      -9.981   6.156  70.234  1.00  0.00    -0.226 C  
BRANCH  42  43
HETATM   43  C   UNL     2     -10.115   4.675  69.961  1.00  0.00    -0.267 C  
HETATM   44  C   UNL     2      -9.868   4.096  68.778  1.00  0.00    -0.087 C  
ENDBRANCH  42  43
ENDBRANCH  32  35
ENDBRANCH  29  32
ENDBRANCH   4  22
TORSDOF 6
ENDMDL
MODEL      159
REMARK 921   NORMALIZED FREE ENERGY PREDICTED BY IDOCK:   -3.38 KCAL/MOL
REMARK 922        TOTAL FREE ENERGY PREDICTED BY IDOCK:   -7.64 KCAL/MOL
REMARK 923 INTER-LIGAND FREE ENERGY PREDICTED BY IDOCK:   -7.95 KCAL/MOL
REMARK 924 INTRA-LIGAND FREE ENERGY PREDICTED BY IDOCK:    0.31 KCAL/MOL
REMARK 927      BINDING AFFINITY PREDICTED BY RF-SCORE:    0.00 PKD
ROOT
HETATM    1  C   UNL     1     -10.519   8.218  67.218  1.00  0.00    -0.373 C  
HETATM    2  C   UNL     1      -9.443   7.864  68.241  1.00  0.00    -0.149 C  
HETATM    3  C   UNL     2      -9.224  11.064  65.715  1.00  0.00    -0.205 C  
HETATM    4  O   UNL     2      -8.364  10.268  66.513  1.00  0.00    -0.123 OA 
ENDROOT
BRANCH   2   5
HETATM    5  C   UNL     1      -9.700   8.300  69.724  1.00  0.00    -0.180 C  
HETATM    6  O   UNL     1     -11.860   7.158  70.056  1.00  0.00    -0.129 OA 
HETATM    7  C   UNL     1      -9.255   9.773  69.744  1.00  0.00    -0.226 C  
HETATM    8  C   UNL     1     -11.218   8.211  70.021  1.00  0.00    -0.084 C  
HETATM    9  H   UNL     1     -12.736   9.331  70.826  1.00  0.00     0.000 HD 
HETATM   10  N   UNL     1     -10.204  10.682  69.368  1.00  0.00    -0.313 N  
HETATM   11  O   UNL     1      -8.115  10.151  69.986  1.00  0.00    -0.166 OA 
HETATM   12  O   UNL     1     -12.070  11.640  70.183  1.00  0.00    -0.322 OA 
HETATM   13  N   UNL     1     -11.860   9.388  70.307  1.00  0.00    -0.099 N  
HETATM   14  C   UNL     1     -11.422  10.622  69.955  1.00  0.00    -0.317 C  
HETATM   15  H   UNL     1     -10.000  11.389  68.662  1.00  0.00     0.000 HD 
BRANCH   5  16
HETATM   16  C   UNL     1      -8.889   7.435  70.712  1.00  0.00    -0.149 A  
HETATM   17  C   UNL     1      -8.416   6.722  72.996  1.00  0.00    -0.126 A  
HETATM   18  C   UNL     1      -8.919   7.668  72.100  1.00  0.00    -0.170 A  
HETATM   19  C   UNL     1      -8.182   6.308  70.260  1.00  0.00    -0.125 A  
HETATM   20  C   UNL     1      -7.844   5.545  72.523  1.00  0.00    -0.103 A  
HETATM   21  C   UNL     1      -7.697   5.354  71.154  1.00  0.00    -0.102 A  
ENDBRANCH   5  16
ENDBRANCH   2   5
BRANCH   4  22
HETATM   22  C   UNL     2      -7.523  10.930  67.352  1.00  0.00    -0.100 A  
HETATM   23  C   UNL     2      -6.348  10.448  67.892  1.00  0.00    -0.060 A  
HETATM   24  C   UNL     2      -7.194  13.093  68.490  1.00  0.00    -0.110 A  
HETATM   25  C   UNL     2      -6.733  15.134  69.706  1.00  0.00    -0.180 A  
HETATM   26  C   UNL     2      -5.599  11.279  68.730  1.00  0.00    -0.042 A  
HETATM   27  C   UNL     2      -5.598  14.517  70.203  1.00  0.00    -0.119 A  
HETATM   28  C   UNL     2      -7.888  12.250  67.594  1.00  0.00    -0.156 A  
HETATM   29  C   UNL     2      -7.583  14.428  68.839  1.00  0.00    -0.128 A  
HETATM   30  C   UNL     2      -6.012  12.565  69.067  1.00  0.00    -0.076 A  
HETATM   31  N   UNL     2      -5.238  13.255  69.909  1.00  0.00    -0.085 NA 
BRANCH  29  32
HETATM   32  C   UNL     2      -8.809  15.139  68.231  1.00  0.00    -0.173 C  
HETATM   33  H   UNL     2     -10.761  14.825  68.069  1.00  0.00     0.000 HD 
HETATM   34  O   UNL     2     -10.006  14.387  68.444  1.00  0.00    -0.228 OA 
BRANCH  32  35
HETATM   35  C   UNL     2      -9.101  16.605  68.722  1.00  0.00    -0.256 C  
HETATM   36  C   UNL     2     -10.817  18.332  68.044  1.00  0.00    -0.178 C  
HETATM   37  C   UNL     2      -9.964  19.328  68.850  1.00  0.00    -0.495 C  
HETATM   38  C   UNL     2      -8.480  18.943  68.742  1.00  0.00    -0.305 C  
HETATM   39  C   UNL     2     -10.613  16.948  68.687  1.00  0.00    -0.360 C  
HETATM   40  N   UNL     2      -8.304  17.665  68.012  1.00  0.00    -0.239 NA 
HETATM   41  C   UNL     2      -8.790  17.895  66.625  1.00  0.00    -0.268 C  
HETATM   42  C   UNL     2     -10.302  18.237  66.585  1.00  0.00    -0.400 C  
BRANCH  42  43
HETATM   43  C   UNL     2     -10.563  19.503  65.802  1.00  0.00    -0.522 C  
HETATM   44  C   UNL     2      -9.783  20.592  65.835  1.00  0.00    -0.013 C  
ENDBRANCH  42  43
ENDBRANCH  32  35
ENDBRANCH  29  32
ENDBRANCH   4  22
TORSDOF 6
ENDMDL
MODEL      160
REMARK 921   NORMALIZED FREE ENERGY PREDICTED BY IDOCK:   -3.38 KCAL/MOL
REMARK 922        TOTAL FREE ENERGY PREDICTED BY IDOCK:   -7.64 KCAL/MOL
REMARK 923 INTER-LIGAND FREE ENERGY PREDICTED BY IDOCK:   -7.40 KCAL/MOL
REMARK 924 INTRA-LIGAND FREE ENERGY PREDICTED BY IDOCK:   -0.24 KCAL/MOL
REMARK 927      BINDING AFFINITY PREDICTED BY RF-SCORE:    0.00 PKD
ROOT
HETATM    1  C   UNL     1      -8.671  18.004  65.882  1.00  0.00     0.156 C  
HETATM    2  C   UNL     1      -9.306  16.856  66.664  1.00  0.00    -0.278 C  
HETATM    3  C   UNL     2      -5.284  17.294  66.114  1.00  0.00    -0.054 C  
HETATM    4  O   UNL     2      -6.214  16.281  66.464  1.00  0.00    -0.220 OA 
ENDROOT
BRANCH   2   5
HETATM    5  C   UNL     1      -9.735  17.152  68.142  1.00  0.00    -0.276 C  
HETATM    6  O   UNL     1     -11.271  19.027  67.691  1.00  0.00    -0.237 OA 
HETATM    7  C   UNL     1      -8.420  17.013  68.928  1.00  0.00    -0.193 C  
HETATM    8  C   UNL     1     -10.246  18.612  68.236  1.00  0.00    -0.380 C  
HETATM    9  H   UNL     1      -9.993  20.301  69.373  1.00  0.00     0.000 HD 
HETATM   10  N   UNL     1      -7.643  18.136  68.985  1.00  0.00    -0.202 N  
HETATM   11  O   UNL     1      -8.009  15.966  69.414  1.00  0.00    -0.232 OA 
HETATM   12  O   UNL     1      -7.598  20.132  70.022  1.00  0.00     0.206 OA 
HETATM   13  N   UNL     1      -9.518  19.469  69.021  1.00  0.00    -0.375 N  
HETATM   14  C   UNL     1      -8.218  19.299  69.367  1.00  0.00     0.095 C  
HETATM   15  H   UNL     1      -6.652  18.099  68.744  1.00  0.00     0.000 HD 
BRANCH   5  16
HETATM   16  C   UNL     1     -10.810  16.156  68.625  1.00  0.00    -0.311 A  
HETATM   17  C   UNL     1     -12.046  14.075  68.325  1.00  0.00    -0.312 A  
HETATM   18  C   UNL     1     -11.294  15.127  67.796  1.00  0.00    -0.335 A  
HETATM   19  C   UNL     1     -11.255  16.178  69.958  1.00  0.00    -0.359 A  
HETATM   20  C   UNL     1     -12.356  14.049  69.680  1.00  0.00    -0.309 A  
HETATM   21  C   UNL     1     -11.989  15.118  70.490  1.00  0.00    -0.371 A  
ENDBRANCH   5  16
ENDBRANCH   2   5
BRANCH   4  22
HETATM   22  C   UNL     2      -5.936  15.557  67.582  1.00  0.00    -0.122 A  
HETATM   23  C   UNL     2      -5.421  16.037  68.769  1.00  0.00    -0.111 A  
HETATM   24  C   UNL     2      -6.039  13.277  68.514  1.00  0.00    -0.083 A  
HETATM   25  C   UNL     2      -6.038  11.101  69.573  1.00  0.00    -0.081 A  
HETATM   26  C   UNL     2      -5.212  15.145  69.823  1.00  0.00    -0.096 A  
HETATM   27  C   UNL     2      -5.489  11.707  70.691  1.00  0.00    -0.149 A  
HETATM   28  C   UNL     2      -6.303  14.219  67.494  1.00  0.00    -0.028 A  
HETATM   29  C   UNL     2      -6.317  11.872  68.433  1.00  0.00    -0.052 A  
HETATM   30  C   UNL     2      -5.472  13.783  69.710  1.00  0.00    -0.093 A  
HETATM   31  N   UNL     2      -5.195  13.016  70.769  1.00  0.00    -0.132 NA 
BRANCH  29  32
HETATM   32  C   UNL     2      -6.992  11.211  67.215  1.00  0.00    -0.096 C  
HETATM   33  H   UNL     2      -6.848   9.516  66.195  1.00  0.00     0.000 HD 
HETATM   34  O   UNL     2      -6.432   9.923  66.945  1.00  0.00    -0.064 OA 
BRANCH  32  35
HETATM   35  C   UNL     2      -8.553  11.023  67.278  1.00  0.00    -0.130 C  
HETATM   36  C   UNL     2     -10.213  11.080  69.183  1.00  0.00    -0.187 C  
HETATM   37  C   UNL     2     -11.208  10.470  68.181  1.00  0.00    -0.357 C  
HETATM   38  C   UNL     2     -10.462   9.539  67.212  1.00  0.00    -0.262 C  
HETATM   39  C   UNL     2      -9.210  11.914  68.364  1.00  0.00    -0.173 C  
HETATM   40  N   UNL     2      -8.997   9.594  67.430  1.00  0.00    -0.131 NA 
HETATM   41  C   UNL     2      -8.750   9.073  68.801  1.00  0.00    -0.136 C  
HETATM   42  C   UNL     2      -9.405   9.962  69.890  1.00  0.00    -0.250 C  
BRANCH  42  43
HETATM   43  C   UNL     2     -10.260   9.145  70.832  1.00  0.00    -0.351 C  
HETATM   44  C   UNL     2      -9.785   8.423  71.856  1.00  0.00    -0.331 C  
ENDBRANCH  42  43
ENDBRANCH  32  35
ENDBRANCH  29  32
ENDBRANCH   4  22
TORSDOF 6
ENDMDL
MODEL      161
REMARK 921   NORMALIZED FREE ENERGY PREDICTED BY IDOCK:   -3.35 KCAL/MOL
REMARK 922        TOTAL FREE ENERGY PREDICTED BY IDOCK:   -7.61 KCAL/MOL
REMARK 923 INTER-LIGAND FREE ENERGY PREDICTED BY IDOCK:   -6.93 KCAL/MOL
REMARK 924 INTRA-LIGAND FREE ENERGY PREDICTED BY IDOCK:   -0.68 KCAL/MOL
REMARK 927      BINDING AFFINITY PREDICTED BY RF-SCORE:    0.00 PKD
ROOT
HETATM    1  C   UNL     1      -6.423  15.523  68.144  1.00  0.00    -0.133 C  
HETATM    2  C   UNL     1      -7.315  15.330  66.919  1.00  0.00     0.090 C  
HETATM    3  C   UNL     2      -5.563  12.266  68.970  1.00  0.00    -0.064 C  
HETATM    4  O   UNL     2      -6.142  12.511  67.699  1.00  0.00    -0.108 OA 
ENDROOT
BRANCH   2   5
HETATM    5  C   UNL     1      -8.864  15.385  67.151  1.00  0.00    -0.234 C  
HETATM    6  O   UNL     1      -8.970  13.950  69.153  1.00  0.00     0.145 OA 
HETATM    7  C   UNL     1      -9.440  15.280  65.728  1.00  0.00    -0.275 C  
HETATM    8  C   UNL     1      -9.295  14.150  67.980  1.00  0.00    -0.203 C  
HETATM    9  H   UNL     1     -10.689  12.645  67.959  1.00  0.00     0.000 HD 
HETATM   10  N   UNL     1      -9.610  14.010  65.252  1.00  0.00    -0.539 N  
HETATM   11  O   UNL     1      -9.664  16.237  64.997  1.00  0.00    -0.215 OA 
HETATM   12  O   UNL     1     -10.992  12.254  65.522  1.00  0.00    -0.280 OA 
HETATM   13  N   UNL     1     -10.131  13.255  67.362  1.00  0.00    -0.231 N  
HETATM   14  C   UNL     1     -10.273  13.117  66.021  1.00  0.00    -0.286 C  
HETATM   15  H   UNL     1      -9.245  13.742  64.338  1.00  0.00     0.000 HD 
BRANCH   5  16
HETATM   16  C   UNL     1      -9.281  16.696  67.851  1.00  0.00    -0.219 A  
HETATM   17  C   UNL     1      -8.794  19.003  68.475  1.00  0.00    -0.398 A  
HETATM   18  C   UNL     1      -8.358  17.728  68.103  1.00  0.00    -0.264 A  
HETATM   19  C   UNL     1     -10.630  16.945  68.155  1.00  0.00    -0.360 A  
HETATM   20  C   UNL     1     -10.151  19.259  68.634  1.00  0.00    -0.499 A  
HETATM   21  C   UNL     1     -11.067  18.222  68.507  1.00  0.00     0.690 A  
ENDBRANCH   5  16
ENDBRANCH   2   5
BRANCH   4  22
HETATM   22  C   UNL     2      -7.087  11.629  67.277  1.00  0.00    -0.134 A  
HETATM   23  C   UNL     2      -7.383  11.299  65.970  1.00  0.00     0.128 A  
HETATM   24  C   UNL     2      -8.799  10.053  68.094  1.00  0.00    -0.122 A  
HETATM   25  C   UNL     2     -10.539   8.492  68.718  1.00  0.00    -0.162 A  
HETATM   26  C   UNL     2      -8.383  10.356  65.722  1.00  0.00    -0.158 A  
HETATM   27  C   UNL     2     -10.757   8.279  67.367  1.00  0.00    -0.166 A  
HETATM   28  C   UNL     2      -7.736  10.958  68.309  1.00  0.00    -0.111 A  
HETATM   29  C   UNL     2      -9.556   9.407  69.126  1.00  0.00    -0.163 A  
HETATM   30  C   UNL     2      -9.116   9.759  66.744  1.00  0.00    -0.146 A  
HETATM   31  N   UNL     2     -10.076   8.901  66.388  1.00  0.00    -0.291 NA 
BRANCH  29  32
HETATM   32  C   UNL     2      -9.267   9.591  70.630  1.00  0.00    -0.180 C  
HETATM   33  H   UNL     2     -10.297   9.726  72.319  1.00  0.00     0.000 HD 
HETATM   34  O   UNL     2     -10.475   9.613  71.393  1.00  0.00    -0.272 OA 
BRANCH  32  35
HETATM   35  C   UNL     2      -8.319   8.535  71.310  1.00  0.00    -0.156 C  
HETATM   36  C   UNL     2      -8.337   6.009  71.382  1.00  0.00    -0.127 C  
HETATM   37  C   UNL     2      -7.290   6.148  72.500  1.00  0.00    -0.086 C  
HETATM   38  C   UNL     2      -7.574   7.416  73.321  1.00  0.00    -0.092 C  
HETATM   39  C   UNL     2      -8.182   7.239  70.469  1.00  0.00    -0.124 C  
HETATM   40  N   UNL     2      -8.683   8.205  72.731  1.00  0.00    -0.197 NA 
HETATM   41  C   UNL     2      -9.901   7.356  72.815  1.00  0.00    -0.189 C  
HETATM   42  C   UNL     2      -9.769   6.059  71.975  1.00  0.00    -0.174 C  
BRANCH  42  43
HETATM   43  C   UNL     2     -10.093   4.832  72.795  1.00  0.00    -0.219 C  
HETATM   44  C   UNL     2     -11.238   4.647  73.466  1.00  0.00    -0.400 C  
ENDBRANCH  42  43
ENDBRANCH  32  35
ENDBRANCH  29  32
ENDBRANCH   4  22
TORSDOF 6
ENDMDL
MODEL      162
REMARK 921   NORMALIZED FREE ENERGY PREDICTED BY IDOCK:   -3.34 KCAL/MOL
REMARK 922        TOTAL FREE ENERGY PREDICTED BY IDOCK:   -7.59 KCAL/MOL
REMARK 923 INTER-LIGAND FREE ENERGY PREDICTED BY IDOCK:   -7.90 KCAL/MOL
REMARK 924 INTRA-LIGAND FREE ENERGY PREDICTED BY IDOCK:    0.31 KCAL/MOL
REMARK 927      BINDING AFFINITY PREDICTED BY RF-SCORE:    0.00 PKD
ROOT
HETATM    1  C   UNL     1     -10.899   6.696  67.505  1.00  0.00    -0.417 C  
HETATM    2  C   UNL     1      -9.842   6.513  68.591  1.00  0.00    -0.143 C  
HETATM    3  C   UNL     2      -9.426   9.029  65.403  1.00  0.00    -0.092 C  
HETATM    4  O   UNL     2      -8.615   8.380  66.369  1.00  0.00    -0.116 OA 
ENDROOT
BRANCH   2   5
HETATM    5  C   UNL     1     -10.057   7.292  69.933  1.00  0.00    -0.196 C  
HETATM    6  O   UNL     1      -7.707   7.896  70.369  1.00  0.00    -0.084 OA 
HETATM    7  C   UNL     1     -11.097   6.437  70.678  1.00  0.00    -0.317 C  
HETATM    8  C   UNL     1      -8.728   7.305  70.729  1.00  0.00    -0.146 C  
HETATM    9  H   UNL     1      -8.014   6.917  72.612  1.00  0.00     0.000 HD 
HETATM   10  N   UNL     1     -10.592   5.405  71.419  1.00  0.00    -0.232 N  
HETATM   11  O   UNL     1     -12.311   6.573  70.576  1.00  0.00    -0.259 OA 
HETATM   12  O   UNL     1      -9.501   5.069  73.359  1.00  0.00    -0.135 OA 
HETATM   13  N   UNL     1      -8.724   6.647  71.932  1.00  0.00    -0.129 N  
HETATM   14  C   UNL     1      -9.590   5.668  72.290  1.00  0.00    -0.151 C  
HETATM   15  H   UNL     1     -10.962   4.460  71.319  1.00  0.00     0.000 HD 
BRANCH   5  16
HETATM   16  C   UNL     1     -10.563   8.727  69.675  1.00  0.00    -0.220 A  
HETATM   17  C   UNL     1     -11.618  10.359  68.201  1.00  0.00    -0.056 A  
HETATM   18  C   UNL     1     -10.905   9.172  68.384  1.00  0.00    -0.098 A  
HETATM   19  C   UNL     1     -10.808   9.602  70.747  1.00  0.00    -0.400 A  
HETATM   20  C   UNL     1     -11.971  11.139  69.298  1.00  0.00    -0.421 A  
HETATM   21  C   UNL     1     -11.536  10.777  70.567  1.00  0.00    -0.425 A  
ENDBRANCH   5  16
ENDBRANCH   2   5
BRANCH   4  22
HETATM   22  C   UNL     2      -7.725   9.158  67.042  1.00  0.00    -0.098 A  
HETATM   23  C   UNL     2      -6.562   8.739  67.657  1.00  0.00    -0.062 A  
HETATM   24  C   UNL     2      -7.268  11.490  67.700  1.00  0.00    -0.103 A  
HETATM   25  C   UNL     2      -6.684  13.712  68.458  1.00  0.00    -0.095 A  
HETATM   26  C   UNL     2      -5.757   9.686  68.294  1.00  0.00    -0.040 A  
HETATM   27  C   UNL     2      -5.568  13.154  69.060  1.00  0.00    -0.071 A  
HETATM   28  C   UNL     2      -8.022  10.516  67.007  1.00  0.00    -0.118 A  
HETATM   29  C   UNL     2      -7.585  12.887  67.768  1.00  0.00    -0.141 A  
HETATM   30  C   UNL     2      -6.100  11.033  68.361  1.00  0.00    -0.042 A  
HETATM   31  N   UNL     2      -5.275  11.843  69.031  1.00  0.00    -0.051 NA 
BRANCH  29  32
HETATM   32  C   UNL     2      -8.789  13.518  67.040  1.00  0.00    -0.211 C  
HETATM   33  H   UNL     2     -10.666  13.039  66.613  1.00  0.00     0.000 HD 
HETATM   34  O   UNL     2      -9.924  12.650  67.062  1.00  0.00    -0.214 OA 
BRANCH  32  35
HETATM   35  C   UNL     2      -9.280  14.921  67.556  1.00  0.00    -0.193 C  
HETATM   36  C   UNL     2     -10.464  15.655  69.664  1.00  0.00    -0.283 C  
HETATM   37  C   UNL     2     -10.698  16.988  68.931  1.00  0.00    -0.300 C  
HETATM   38  C   UNL     2     -10.886  16.726  67.429  1.00  0.00    -0.176 C  
HETATM   39  C   UNL     2      -9.165  15.055  69.097  1.00  0.00    -0.183 C  
HETATM   40  N   UNL     2     -10.662  15.299  67.096  1.00  0.00    -0.310 NA 
HETATM   41  C   UNL     2     -11.718  14.525  67.803  1.00  0.00    -0.374 C  
HETATM   42  C   UNL     2     -11.605  14.656  69.344  1.00  0.00    -0.342 C  
BRANCH  42  43
HETATM   43  C   UNL     2     -12.921  15.071  69.962  1.00  0.00    -0.022 C  
HETATM   44  C   UNL     2     -13.339  14.697  71.179  1.00  0.00    -0.433 C  
ENDBRANCH  42  43
ENDBRANCH  32  35
ENDBRANCH  29  32
ENDBRANCH   4  22
TORSDOF 6
ENDMDL
MODEL      163
REMARK 921   NORMALIZED FREE ENERGY PREDICTED BY IDOCK:   -3.32 KCAL/MOL
REMARK 922        TOTAL FREE ENERGY PREDICTED BY IDOCK:   -7.56 KCAL/MOL
REMARK 923 INTER-LIGAND FREE ENERGY PREDICTED BY IDOCK:   -8.22 KCAL/MOL
REMARK 924 INTRA-LIGAND FREE ENERGY PREDICTED BY IDOCK:    0.66 KCAL/MOL
REMARK 927      BINDING AFFINITY PREDICTED BY RF-SCORE:    0.00 PKD
ROOT
HETATM    1  C   UNL     1      -7.155   7.649  72.064  1.00  0.00    -0.065 C  
HETATM    2  C   UNL     1      -8.205   8.648  71.584  1.00  0.00    -0.199 C  
HETATM    3  C   UNL     2      -5.333   7.024  69.180  1.00  0.00    -0.014 C  
HETATM    4  O   UNL     2      -6.210   8.138  69.199  1.00  0.00    -0.037 OA 
ENDROOT
BRANCH   2   5
HETATM    5  C   UNL     1      -9.631   8.084  71.263  1.00  0.00    -0.191 C  
HETATM    6  O   UNL     1     -10.343   7.598  73.574  1.00  0.00    -0.336 OA 
HETATM    7  C   UNL     1      -9.399   7.220  70.012  1.00  0.00    -0.154 C  
HETATM    8  C   UNL     1     -10.095   7.186  72.437  1.00  0.00    -0.182 C  
HETATM    9  H   UNL     1     -10.889   5.326  72.782  1.00  0.00     0.000 HD 
HETATM   10  N   UNL     1      -9.001   5.934  70.248  1.00  0.00    -0.145 N  
HETATM   11  O   UNL     1      -9.465   7.633  68.860  1.00  0.00    -0.149 OA 
HETATM   12  O   UNL     1      -9.864   3.981  70.958  1.00  0.00    -0.181 OA 
HETATM   13  N   UNL     1     -10.279   5.856  72.160  1.00  0.00    -0.191 N  
HETATM   14  C   UNL     1      -9.714   5.189  71.123  1.00  0.00    -0.174 C  
HETATM   15  H   UNL     1      -8.185   5.544  69.775  1.00  0.00     0.000 HD 
BRANCH   5  16
HETATM   16  C   UNL     1     -10.640   9.223  71.004  1.00  0.00    -0.386 A  
HETATM   17  C   UNL     1     -11.304  11.211  69.758  1.00  0.00    -0.354 A  
HETATM   18  C   UNL     1     -10.312  10.339  70.213  1.00  0.00    -0.151 A  
HETATM   19  C   UNL     1     -11.966   9.119  71.460  1.00  0.00    -0.422 A  
HETATM   20  C   UNL     1     -12.633  11.004  70.112  1.00  0.00    -0.281 A  
HETATM   21  C   UNL     1     -12.959   9.978  70.990  1.00  0.00    -0.445 A  
ENDBRANCH   5  16
ENDBRANCH   2   5
BRANCH   4  22
HETATM   22  C   UNL     2      -6.964   8.341  68.085  1.00  0.00    -0.077 A  
HETATM   23  C   UNL     2      -7.375   7.382  67.181  1.00  0.00    -0.097 A  
HETATM   24  C   UNL     2      -8.142  10.092  66.809  1.00  0.00    -0.118 A  
HETATM   25  C   UNL     2      -9.321  11.684  65.419  1.00  0.00    -0.143 A  
HETATM   26  C   UNL     2      -8.161   7.773  66.094  1.00  0.00    -0.123 A  
HETATM   27  C   UNL     2      -9.635  10.632  64.575  1.00  0.00    -0.286 A  
HETATM   28  C   UNL     2      -7.407   9.651  67.932  1.00  0.00    -0.082 A  
HETATM   29  C   UNL     2      -8.543  11.446  66.564  1.00  0.00    -0.175 A  
HETATM   30  C   UNL     2      -8.519   9.099  65.870  1.00  0.00    -0.141 A  
HETATM   31  N   UNL     2      -9.239   9.363  64.776  1.00  0.00    -0.206 NA 
BRANCH  29  32
HETATM   32  C   UNL     2      -8.253  12.605  67.539  1.00  0.00    -0.178 C  
HETATM   33  H   UNL     2      -6.832  13.956  67.837  1.00  0.00     0.000 HD 
HETATM   34  O   UNL     2      -7.010  13.242  67.236  1.00  0.00    -0.138 OA 
BRANCH  32  35
HETATM   35  C   UNL     2      -9.334  13.744  67.636  1.00  0.00    -0.213 C  
HETATM   36  C   UNL     2      -9.514  16.034  66.582  1.00  0.00    -0.259 C  
HETATM   37  C   UNL     2     -10.643  16.286  67.597  1.00  0.00    -0.311 C  
HETATM   38  C   UNL     2     -10.336  15.542  68.907  1.00  0.00    -0.221 C  
HETATM   39  C   UNL     2      -9.495  14.520  66.303  1.00  0.00    -0.310 C  
HETATM   40  N   UNL     2      -9.124  14.699  68.779  1.00  0.00    -0.191 NA 
HETATM   41  C   UNL     2      -7.985  15.624  68.533  1.00  0.00    -0.138 C  
HETATM   42  C   UNL     2      -8.141  16.401  67.200  1.00  0.00    -0.212 C  
BRANCH  42  43
HETATM   43  C   UNL     2      -7.984  17.890  67.405  1.00  0.00    -0.221 C  
HETATM   44  C   UNL     2      -7.622  18.464  68.560  1.00  0.00    -0.319 C  
ENDBRANCH  42  43
ENDBRANCH  32  35
ENDBRANCH  29  32
ENDBRANCH   4  22
TORSDOF 6
ENDMDL
MODEL      164
REMARK 921   NORMALIZED FREE ENERGY PREDICTED BY IDOCK:   -3.31 KCAL/MOL
REMARK 922        TOTAL FREE ENERGY PREDICTED BY IDOCK:   -7.55 KCAL/MOL
REMARK 923 INTER-LIGAND FREE ENERGY PREDICTED BY IDOCK:   -6.67 KCAL/MOL
REMARK 924 INTRA-LIGAND FREE ENERGY PREDICTED BY IDOCK:   -0.88 KCAL/MOL
REMARK 927      BINDING AFFINITY PREDICTED BY RF-SCORE:    0.00 PKD
ROOT
HETATM    1  C   UNL     1     -10.187  13.994  64.794  1.00  0.00    -0.332 C  
HETATM    2  C   UNL     1     -10.804  14.524  66.086  1.00  0.00    -0.317 C  
HETATM    3  C   UNL     2     -10.460  10.558  65.181  1.00  0.00    -0.154 C  
HETATM    4  O   UNL     2     -11.203  11.398  66.049  1.00  0.00    -0.234 OA 
ENDROOT
BRANCH   2   5
HETATM    5  C   UNL     1      -9.816  14.958  67.222  1.00  0.00    -0.229 C  
HETATM    6  O   UNL     1     -11.206  14.326  69.157  1.00  0.00    -0.249 OA 
HETATM    7  C   UNL     1      -9.243  16.289  66.705  1.00  0.00    -0.230 C  
HETATM    8  C   UNL     1     -10.619  15.206  68.523  1.00  0.00    -0.237 C  
HETATM    9  H   UNL     1     -10.835  16.616  69.997  1.00  0.00     0.000 HD 
HETATM   10  N   UNL     1      -9.982  17.402  66.996  1.00  0.00    -0.284 N  
HETATM   11  O   UNL     1      -8.245  16.390  66.001  1.00  0.00    -0.295 OA 
HETATM   12  O   UNL     1     -10.450  18.732  68.750  1.00  0.00    -0.232 OA 
HETATM   13  N   UNL     1     -10.624  16.489  69.008  1.00  0.00    -0.302 N  
HETATM   14  C   UNL     1     -10.370  17.601  68.276  1.00  0.00    -0.384 C  
HETATM   15  H   UNL     1     -10.234  18.067  66.264  1.00  0.00     0.000 HD 
BRANCH   5  16
HETATM   16  C   UNL     1      -8.715  13.899  67.443  1.00  0.00    -0.208 A  
HETATM   17  C   UNL     1      -7.376  12.530  68.953  1.00  0.00    -0.022 A  
HETATM   18  C   UNL     1      -8.155  13.664  68.712  1.00  0.00     0.001 A  
HETATM   19  C   UNL     1      -8.318  13.052  66.393  1.00  0.00     0.483 A  
HETATM   20  C   UNL     1      -7.114  11.631  67.925  1.00  0.00    -0.081 A  
HETATM   21  C   UNL     1      -7.556  11.910  66.638  1.00  0.00     0.039 A  
ENDBRANCH   5  16
ENDBRANCH   2   5
BRANCH   4  22
HETATM   22  C   UNL     2     -11.227  11.050  67.364  1.00  0.00    -0.285 A  
HETATM   23  C   UNL     2     -12.108  11.508  68.323  1.00  0.00    -0.073 A  
HETATM   24  C   UNL     2     -10.112   9.615  69.031  1.00  0.00    -0.193 A  
HETATM   25  C   UNL     2      -9.115   8.299  70.800  1.00  0.00    -0.168 A  
HETATM   26  C   UNL     2     -11.993  11.028  69.630  1.00  0.00    -0.424 A  
HETATM   27  C   UNL     2     -10.037   8.863  71.665  1.00  0.00    -0.341 A  
HETATM   28  C   UNL     2     -10.302  10.069  67.707  1.00  0.00    -0.261 A  
HETATM   29  C   UNL     2      -9.113   8.674  69.447  1.00  0.00    -0.149 A  
HETATM   30  C   UNL     2     -11.000  10.129  70.009  1.00  0.00    -0.307 A  
HETATM   31  N   UNL     2     -10.959   9.769  71.295  1.00  0.00    -0.326 NA 
BRANCH  29  32
HETATM   32  C   UNL     2      -8.132   7.994  68.471  1.00  0.00    -0.125 C  
HETATM   33  H   UNL     2      -7.473   6.164  68.085  1.00  0.00     0.000 HD 
HETATM   34  O   UNL     2      -8.078   6.582  68.686  1.00  0.00    -0.115 OA 
BRANCH  32  35
HETATM   35  C   UNL     2      -8.388   8.210  66.934  1.00  0.00    -0.115 C  
HETATM   36  C   UNL     2      -8.385   6.636  64.957  1.00  0.00    -0.067 C  
HETATM   37  C   UNL     2      -8.390   7.908  64.091  1.00  0.00     0.050 C  
HETATM   38  C   UNL     2      -7.594   9.017  64.797  1.00  0.00    -0.105 C  
HETATM   39  C   UNL     2      -9.091   6.992  66.278  1.00  0.00    -0.178 C  
HETATM   40  N   UNL     2      -7.164   8.596  66.151  1.00  0.00    -0.084 NA 
HETATM   41  C   UNL     2      -6.233   7.450  65.966  1.00  0.00    -0.041 C  
HETATM   42  C   UNL     2      -6.932   6.230  65.311  1.00  0.00    -0.056 C  
BRANCH  42  43
HETATM   43  C   UNL     2      -6.165   5.733  64.107  1.00  0.00    -0.025 C  
HETATM   44  C   UNL     2      -5.894   4.445  63.858  1.00  0.00    -0.017 C  
ENDBRANCH  42  43
ENDBRANCH  32  35
ENDBRANCH  29  32
ENDBRANCH   4  22
TORSDOF 6
ENDMDL
MODEL      165
REMARK 921   NORMALIZED FREE ENERGY PREDICTED BY IDOCK:   -3.28 KCAL/MOL
REMARK 922        TOTAL FREE ENERGY PREDICTED BY IDOCK:   -7.51 KCAL/MOL
REMARK 923 INTER-LIGAND FREE ENERGY PREDICTED BY IDOCK:   -4.87 KCAL/MOL
REMARK 924 INTRA-LIGAND FREE ENERGY PREDICTED BY IDOCK:   -2.63 KCAL/MOL
REMARK 927      BINDING AFFINITY PREDICTED BY RF-SCORE:    0.00 PKD
ROOT
HETATM    1  C   UNL     1     -12.278  12.313  68.988  1.00  0.00    -0.047 C  
HETATM    2  C   UNL     1     -10.954  13.072  68.939  1.00  0.00    -0.271 C  
HETATM    3  C   UNL     2     -11.296   9.149  70.018  1.00  0.00    -0.090 C  
HETATM    4  O   UNL     2     -10.376  10.221  70.149  1.00  0.00    -0.256 OA 
ENDROOT
BRANCH   2   5
HETATM    5  C   UNL     1     -10.282  13.241  67.534  1.00  0.00    -0.222 C  
HETATM    6  O   UNL     1     -10.139  15.702  67.508  1.00  0.00    -0.246 OA 
HETATM    7  C   UNL     1     -11.010  12.203  66.664  1.00  0.00    -0.282 C  
HETATM    8  C   UNL     1     -10.576  14.665  67.001  1.00  0.00    -0.280 C  
HETATM    9  H   UNL     1     -11.260  15.607  65.312  1.00  0.00     0.000 HD 
HETATM   10  N   UNL     1     -12.180  12.624  66.096  1.00  0.00    -0.325 N  
HETATM   11  O   UNL     1     -10.656  11.037  66.529  1.00  0.00    -0.249 OA 
HETATM   12  O   UNL     1     -12.884  13.949  64.418  1.00  0.00    -0.632 OA 
HETATM   13  N   UNL     1     -11.336  14.752  65.863  1.00  0.00    -0.340 N  
HETATM   14  C   UNL     1     -12.180  13.792  65.413  1.00  0.00    -0.440 C  
HETATM   15  H   UNL     1     -13.033  12.072  66.184  1.00  0.00     0.000 HD 
BRANCH   5  16
HETATM   16  C   UNL     1      -8.762  12.977  67.604  1.00  0.00    -0.189 A  
HETATM   17  C   UNL     1      -6.654  12.479  66.485  1.00  0.00     1.080 A  
HETATM   18  C   UNL     1      -8.050  12.450  66.510  1.00  0.00     0.212 A  
HETATM   19  C   UNL     1      -8.021  13.366  68.733  1.00  0.00     0.019 A  
HETATM   20  C   UNL     1      -5.945  13.001  67.561  1.00  0.00    -0.113 A  
HETATM   21  C   UNL     1      -6.628  13.413  68.699  1.00  0.00    -0.091 A  
ENDBRANCH   5  16
ENDBRANCH   2   5
BRANCH   4  22
HETATM   22  C   UNL     2      -9.087   9.965  69.798  1.00  0.00    -0.225 A  
HETATM   23  C   UNL     2      -7.973  10.085  70.604  1.00  0.00     0.413 A  
HETATM   24  C   UNL     2      -7.685   9.189  67.924  1.00  0.00    -0.093 A  
HETATM   25  C   UNL     2      -6.158   8.480  66.186  1.00  0.00    -0.052 A  
HETATM   26  C   UNL     2      -6.720   9.764  70.075  1.00  0.00    -0.089 A  
HETATM   27  C   UNL     2      -5.126   8.676  67.088  1.00  0.00    -0.033 A  
HETATM   28  C   UNL     2      -8.941   9.456  68.512  1.00  0.00    -0.128 A  
HETATM   29  C   UNL     2      -7.480   8.749  66.574  1.00  0.00    -0.085 A  
HETATM   30  C   UNL     2      -6.549   9.359  68.755  1.00  0.00    -0.052 A  
HETATM   31  N   UNL     2      -5.300   9.117  68.346  1.00  0.00    -0.037 NA 
BRANCH  29  32
HETATM   32  C   UNL     2      -8.634   8.465  65.592  1.00  0.00    -0.174 C  
HETATM   33  H   UNL     2      -8.919   8.427  63.630  1.00  0.00     0.000 HD 
HETATM   34  O   UNL     2      -8.208   8.602  64.235  1.00  0.00    -0.159 OA 
BRANCH  32  35
HETATM   35  C   UNL     2      -9.340   7.063  65.706  1.00  0.00     0.222 C  
HETATM   36  C   UNL     2     -10.365   5.811  67.648  1.00  0.00    -0.270 C  
HETATM   37  C   UNL     2     -10.373   4.593  66.707  1.00  0.00    -0.174 C  
HETATM   38  C   UNL     2      -9.155   4.653  65.772  1.00  0.00    -0.139 C  
HETATM   39  C   UNL     2     -10.480   7.062  66.758  1.00  0.00    -0.297 C  
HETATM   40  N   UNL     2      -8.399   5.915  65.948  1.00  0.00    -0.129 NA 
HETATM   41  C   UNL     2      -7.873   5.907  67.340  1.00  0.00    -0.102 C  
HETATM   42  C   UNL     2      -9.010   5.907  68.394  1.00  0.00    -0.112 C  
BRANCH  42  43
HETATM   43  C   UNL     2      -8.830   4.795  69.402  1.00  0.00    -0.116 C  
HETATM   44  C   UNL     2      -9.780   4.379  70.251  1.00  0.00    -0.281 C  
ENDBRANCH  42  43
ENDBRANCH  32  35
ENDBRANCH  29  32
ENDBRANCH   4  22
TORSDOF 6
ENDMDL
MODEL      166
REMARK 921   NORMALIZED FREE ENERGY PREDICTED BY IDOCK:   -3.27 KCAL/MOL
REMARK 922        TOTAL FREE ENERGY PREDICTED BY IDOCK:   -7.50 KCAL/MOL
REMARK 923 INTER-LIGAND FREE ENERGY PREDICTED BY IDOCK:   -9.04 KCAL/MOL
REMARK 924 INTRA-LIGAND FREE ENERGY PREDICTED BY IDOCK:    1.54 KCAL/MOL
REMARK 927      BINDING AFFINITY PREDICTED BY RF-SCORE:    0.00 PKD
ROOT
HETATM    1  C   UNL     1      -7.919  14.377  69.123  1.00  0.00    -0.002 C  
HETATM    2  C   UNL     1      -8.423  14.109  67.707  1.00  0.00    -0.178 C  
HETATM    3  C   UNL     2      -6.668  11.286  70.077  1.00  0.00    -0.008 C  
HETATM    4  O   UNL     2      -6.949  11.509  68.705  1.00  0.00    -0.075 OA 
ENDROOT
BRANCH   2   5
HETATM    5  C   UNL     1      -9.960  13.861  67.534  1.00  0.00    -0.240 C  
HETATM    6  O   UNL     1      -9.988  11.453  68.063  1.00  0.00    -0.173 OA 
HETATM    7  C   UNL     1     -10.315  14.685  66.284  1.00  0.00    -0.294 C  
HETATM    8  C   UNL     1     -10.200  12.357  67.251  1.00  0.00    -0.215 C  
HETATM    9  H   UNL     1     -11.203  11.139  65.939  1.00  0.00     0.000 HD 
HETATM   10  N   UNL     1     -10.131  14.052  65.087  1.00  0.00    -0.544 N  
HETATM   11  O   UNL     1     -10.657  15.861  66.302  1.00  0.00    -0.305 OA 
HETATM   12  O   UNL     1     -11.102  12.455  63.831  1.00  0.00    -0.347 OA 
HETATM   13  N   UNL     1     -10.727  12.037  66.026  1.00  0.00    -0.269 N  
HETATM   14  C   UNL     1     -10.666  12.820  64.921  1.00  0.00    -0.305 C  
HETATM   15  H   UNL     1      -9.604  14.497  64.336  1.00  0.00     0.000 HD 
BRANCH   5  16
HETATM   16  C   UNL     1     -10.748  14.324  68.778  1.00  0.00    -0.262 A  
HETATM   17  C   UNL     1     -11.600  16.122  70.187  1.00  0.00    -0.254 A  
HETATM   18  C   UNL     1     -10.682  15.648  69.247  1.00  0.00    -0.239 A  
HETATM   19  C   UNL     1     -11.651  13.455  69.415  1.00  0.00    -0.365 A  
HETATM   20  C   UNL     1     -12.576  15.274  70.700  1.00  0.00    -0.471 A  
HETATM   21  C   UNL     1     -12.580  13.932  70.339  1.00  0.00    -0.350 A  
ENDBRANCH   5  16
ENDBRANCH   2   5
BRANCH   4  22
HETATM   22  C   UNL     2      -7.568  10.498  68.036  1.00  0.00    -0.091 A  
HETATM   23  C   UNL     2      -7.317  10.091  66.742  1.00  0.00    -0.095 A  
HETATM   24  C   UNL     2      -9.280   8.742  68.290  1.00  0.00    -0.143 A  
HETATM   25  C   UNL     2     -10.948   6.990  68.353  1.00  0.00    -0.137 A  
HETATM   26  C   UNL     2      -8.044   9.018  66.219  1.00  0.00    -0.110 A  
HETATM   27  C   UNL     2     -10.622   6.707  67.037  1.00  0.00    -0.333 A  
HETATM   28  C   UNL     2      -8.478   9.783  68.808  1.00  0.00    -0.122 A  
HETATM   29  C   UNL     2     -10.293   8.037  69.020  1.00  0.00    -0.228 A  
HETATM   30  C   UNL     2      -9.036   8.366  66.945  1.00  0.00    -0.148 A  
HETATM   31  N   UNL     2      -9.696   7.379  66.331  1.00  0.00    -0.141 NA 
BRANCH  29  32
HETATM   32  C   UNL     2     -10.608   8.306  70.505  1.00  0.00    -0.219 C  
HETATM   33  H   UNL     2     -11.884   9.395  71.564  1.00  0.00     0.000 HD 
HETATM   34  O   UNL     2     -11.690   9.229  70.649  1.00  0.00    -0.268 OA 
BRANCH  32  35
HETATM   35  C   UNL     2     -10.954   7.059  71.400  1.00  0.00    -0.240 C  
HETATM   36  C   UNL     2     -10.451   6.482  73.809  1.00  0.00    -0.335 C  
HETATM   37  C   UNL     2     -10.909   5.059  73.443  1.00  0.00    -0.360 C  
HETATM   38  C   UNL     2     -10.527   4.752  71.986  1.00  0.00    -0.155 C  
HETATM   39  C   UNL     2     -11.209   7.448  72.879  1.00  0.00    -0.368 C  
HETATM   40  N   UNL     2      -9.951   5.941  71.315  1.00  0.00    -0.183 NA 
HETATM   41  C   UNL     2      -8.689   6.266  72.031  1.00  0.00    -0.134 C  
HETATM   42  C   UNL     2      -8.940   6.656  73.510  1.00  0.00    -0.143 C  
BRANCH  42  43
HETATM   43  C   UNL     2      -8.074   5.850  74.451  1.00  0.00    -0.106 C  
HETATM   44  C   UNL     2      -7.235   4.878  74.067  1.00  0.00    -0.082 C  
ENDBRANCH  42  43
ENDBRANCH  32  35
ENDBRANCH  29  32
ENDBRANCH   4  22
TORSDOF 6
ENDMDL
MODEL      167
REMARK 921   NORMALIZED FREE ENERGY PREDICTED BY IDOCK:   -3.27 KCAL/MOL
REMARK 922        TOTAL FREE ENERGY PREDICTED BY IDOCK:   -7.50 KCAL/MOL
REMARK 923 INTER-LIGAND FREE ENERGY PREDICTED BY IDOCK:   -7.12 KCAL/MOL
REMARK 924 INTRA-LIGAND FREE ENERGY PREDICTED BY IDOCK:   -0.38 KCAL/MOL
REMARK 927      BINDING AFFINITY PREDICTED BY RF-SCORE:    0.00 PKD
ROOT
HETATM    1  C   UNL     1      -8.499  13.735  69.245  1.00  0.00     0.538 C  
HETATM    2  C   UNL     1      -8.933  13.552  67.793  1.00  0.00    -0.201 C  
HETATM    3  C   UNL     2      -7.338  10.578  70.091  1.00  0.00     0.055 C  
HETATM    4  O   UNL     2      -7.546  10.879  68.721  1.00  0.00    -0.103 OA 
ENDROOT
BRANCH   2   5
HETATM    5  C   UNL     1     -10.462  13.337  67.528  1.00  0.00    -0.237 C  
HETATM    6  O   UNL     1     -11.187  15.684  67.739  1.00  0.00    -0.329 OA 
HETATM    7  C   UNL     1     -10.779  12.046  68.303  1.00  0.00    -0.224 C  
HETATM    8  C   UNL     1     -11.252  14.520  68.141  1.00  0.00    -0.284 C  
HETATM    9  H   UNL     1     -12.867  14.877  69.355  1.00  0.00     0.000 HD 
HETATM   10  N   UNL     1     -11.085  12.211  69.625  1.00  0.00    -0.474 N  
HETATM   11  O   UNL     1     -10.690  10.917  67.837  1.00  0.00    -0.198 OA 
HETATM   12  O   UNL     1     -12.787  12.936  70.907  1.00  0.00    -0.236 OA 
HETATM   13  N   UNL     1     -12.109  14.221  69.170  1.00  0.00    -0.326 N  
HETATM   14  C   UNL     1     -12.027  13.122  69.959  1.00  0.00    -0.321 C  
HETATM   15  H   UNL     1     -10.614  11.660  70.343  1.00  0.00     0.000 HD 
BRANCH   5  16
HETATM   16  C   UNL     1     -10.756  13.196  66.019  1.00  0.00    -0.288 A  
HETATM   17  C   UNL     1     -10.316  12.122  63.875  1.00  0.00    -0.441 A  
HETATM   18  C   UNL     1      -9.903  12.478  65.161  1.00  0.00    -0.133 A  
HETATM   19  C   UNL     1     -11.955  13.690  65.477  1.00  0.00    -0.409 A  
HETATM   20  C   UNL     1     -11.570  12.506  63.411  1.00  0.00    -0.547 A  
HETATM   21  C   UNL     1     -12.375  13.318  64.200  1.00  0.00    -0.408 A  
ENDBRANCH   5  16
ENDBRANCH   2   5
BRANCH   4  22
HETATM   22  C   UNL     2      -8.141   9.915  67.968  1.00  0.00    -0.108 A  
HETATM   23  C   UNL     2      -7.972   9.704  66.614  1.00  0.00    -0.109 A  
HETATM   24  C   UNL     2      -9.690   8.002  68.103  1.00  0.00    -0.179 A  
HETATM   25  C   UNL     2     -11.212   6.121  68.047  1.00  0.00    -0.149 A  
HETATM   26  C   UNL     2      -8.658   8.651  66.004  1.00  0.00    -0.173 A  
HETATM   27  C   UNL     2     -10.978   6.042  66.685  1.00  0.00    -0.152 A  
HETATM   28  C   UNL     2      -8.928   9.031  68.698  1.00  0.00    -0.137 A  
HETATM   29  C   UNL     2     -10.583   7.124  68.802  1.00  0.00    -0.219 A  
HETATM   30  C   UNL     2      -9.534   7.827  66.705  1.00  0.00    -0.197 A  
HETATM   31  N   UNL     2     -10.168   6.877  66.011  1.00  0.00     0.432 NA 
BRANCH  29  32
HETATM   32  C   UNL     2     -10.790   7.168  70.330  1.00  0.00    -0.249 C  
HETATM   33  H   UNL     2     -12.307   7.209  71.607  1.00  0.00     0.000 HD 
HETATM   34  O   UNL     2     -12.179   7.181  70.666  1.00  0.00    -0.291 OA 
BRANCH  32  35
HETATM   35  C   UNL     2     -10.130   6.017  71.174  1.00  0.00    -0.194 C  
HETATM   36  C   UNL     2      -8.180   5.969  72.781  1.00  0.00    -0.118 C  
HETATM   37  C   UNL     2      -8.271   4.437  72.665  1.00  0.00    -0.105 C  
HETATM   38  C   UNL     2      -8.721   4.052  71.248  1.00  0.00    -0.090 C  
HETATM   39  C   UNL     2      -9.597   6.520  72.541  1.00  0.00    -0.156 C  
HETATM   40  N   UNL     2      -9.062   5.249  70.443  1.00  0.00    -0.136 NA 
HETATM   41  C   UNL     2      -7.808   6.036  70.297  1.00  0.00    -0.102 C  
HETATM   42  C   UNL     2      -7.273   6.542  71.662  1.00  0.00    -0.086 C  
BRANCH  42  43
HETATM   43  C   UNL     2      -5.820   6.176  71.858  1.00  0.00    -0.032 C  
HETATM   44  C   UNL     2      -5.129   5.354  71.056  1.00  0.00    -0.005 C  
ENDBRANCH  42  43
ENDBRANCH  32  35
ENDBRANCH  29  32
ENDBRANCH   4  22
TORSDOF 6
ENDMDL
MODEL      168
REMARK 921   NORMALIZED FREE ENERGY PREDICTED BY IDOCK:   -3.27 KCAL/MOL
REMARK 922        TOTAL FREE ENERGY PREDICTED BY IDOCK:   -7.49 KCAL/MOL
REMARK 923 INTER-LIGAND FREE ENERGY PREDICTED BY IDOCK:   -5.70 KCAL/MOL
REMARK 924 INTRA-LIGAND FREE ENERGY PREDICTED BY IDOCK:   -1.80 KCAL/MOL
REMARK 927      BINDING AFFINITY PREDICTED BY RF-SCORE:    0.00 PKD
ROOT
HETATM    1  C   UNL     1      -7.954  10.962  69.284  1.00  0.00    -0.076 C  
HETATM    2  C   UNL     1      -8.270  11.484  67.884  1.00  0.00    -0.134 C  
HETATM    3  C   UNL     2      -6.201   8.043  68.622  1.00  0.00    -0.044 C  
HETATM    4  O   UNL     2      -6.401   8.967  67.565  1.00  0.00    -0.061 OA 
ENDROOT
BRANCH   2   5
HETATM    5  C   UNL     1      -9.706  11.200  67.326  1.00  0.00    -0.186 C  
HETATM    6  O   UNL     1      -9.098  10.835  64.964  1.00  0.00    -0.194 OA 
HETATM    7  C   UNL     1     -10.583  12.232  68.057  1.00  0.00    -0.216 C  
HETATM    8  C   UNL     1      -9.722  11.489  65.804  1.00  0.00    -0.235 C  
HETATM    9  H   UNL     1     -10.821  12.509  64.404  1.00  0.00     0.000 HD 
HETATM   10  N   UNL     1     -10.656  13.465  67.472  1.00  0.00    -0.249 N  
HETATM   11  O   UNL     1     -11.126  12.040  69.138  1.00  0.00    -0.232 OA 
HETATM   12  O   UNL     1     -11.634  14.464  65.708  1.00  0.00    -0.343 OA 
HETATM   13  N   UNL     1     -10.528  12.515  65.380  1.00  0.00    -0.276 N  
HETATM   14  C   UNL     1     -10.964  13.537  66.157  1.00  0.00    -0.284 C  
HETATM   15  H   UNL     1     -10.483  14.312  68.014  1.00  0.00     0.000 HD 
BRANCH   5  16
HETATM   16  C   UNL     1     -10.147   9.751  67.620  1.00  0.00    -0.236 A  
HETATM   17  C   UNL     1     -10.656   7.499  66.835  1.00  0.00    -0.367 A  
HETATM   18  C   UNL     1     -10.532   8.869  66.593  1.00  0.00    -0.231 A  
HETATM   19  C   UNL     1     -10.066   9.231  68.924  1.00  0.00    -0.207 A  
HETATM   20  C   UNL     1     -10.432   6.991  68.110  1.00  0.00    -0.242 A  
HETATM   21  C   UNL     1     -10.171   7.861  69.161  1.00  0.00    -0.219 A  
ENDBRANCH   5  16
ENDBRANCH   2   5
BRANCH   4  22
HETATM   22  C   UNL     2      -6.746   8.448  66.356  1.00  0.00    -0.066 A  
HETATM   23  C   UNL     2      -6.573   9.043  65.123  1.00  0.00    -0.072 A  
HETATM   24  C   UNL     2      -7.725   6.452  65.289  1.00  0.00    -0.098 A  
HETATM   25  C   UNL     2      -8.695   4.592  64.082  1.00  0.00    -0.145 A  
HETATM   26  C   UNL     2      -6.977   8.352  63.978  1.00  0.00    -0.075 A  
HETATM   27  C   UNL     2      -8.495   5.315  62.918  1.00  0.00    -0.096 A  
HETATM   28  C   UNL     2      -7.243   7.150  66.419  1.00  0.00    -0.078 A  
HETATM   29  C   UNL     2      -8.328   5.151  65.317  1.00  0.00    -0.139 A  
HETATM   30  C   UNL     2      -7.577   7.098  64.037  1.00  0.00    -0.113 A  
HETATM   31  N   UNL     2      -7.960   6.547  62.880  1.00  0.00    -0.108 NA 
BRANCH  29  32
HETATM   32  C   UNL     2      -8.486   4.318  66.605  1.00  0.00    -0.108 C  
HETATM   33  H   UNL     2      -9.661   2.873  67.287  1.00  0.00     0.000 HD 
HETATM   34  O   UNL     2      -9.564   3.386  66.493  1.00  0.00    -0.160 OA 
BRANCH  32  35
HETATM   35  C   UNL     2      -7.230   3.504  67.088  1.00  0.00    -0.063 C  
HETATM   36  C   UNL     2      -6.955   1.547  68.664  1.00  0.00    -0.036 C  
HETATM   37  C   UNL     2      -5.451   1.866  68.614  1.00  0.00    -0.013 C  
HETATM   38  C   UNL     2      -5.248   3.383  68.470  1.00  0.00    -0.012 C  
HETATM   39  C   UNL     2      -7.554   2.005  67.321  1.00  0.00    -0.060 C  
HETATM   40  N   UNL     2      -6.540   4.087  68.291  1.00  0.00    -0.045 NA 
HETATM   41  C   UNL     2      -7.319   3.873  69.540  1.00  0.00    -0.053 C  
HETATM   42  C   UNL     2      -7.646   2.376  69.777  1.00  0.00    -0.043 C  
BRANCH  42  43
HETATM   43  C   UNL     2      -7.236   1.931  71.162  1.00  0.00    -0.033 C  
HETATM   44  C   UNL     2      -7.607   2.539  72.296  1.00  0.00    -0.052 C  
ENDBRANCH  42  43
ENDBRANCH  32  35
ENDBRANCH  29  32
ENDBRANCH   4  22
TORSDOF 6
ENDMDL
MODEL      169
REMARK 921   NORMALIZED FREE ENERGY PREDICTED BY IDOCK:   -3.27 KCAL/MOL
REMARK 922        TOTAL FREE ENERGY PREDICTED BY IDOCK:   -7.49 KCAL/MOL
REMARK 923 INTER-LIGAND FREE ENERGY PREDICTED BY IDOCK:   -6.80 KCAL/MOL
REMARK 924 INTRA-LIGAND FREE ENERGY PREDICTED BY IDOCK:   -0.69 KCAL/MOL
REMARK 927      BINDING AFFINITY PREDICTED BY RF-SCORE:    0.00 PKD
ROOT
HETATM    1  C   UNL     1      -8.353  10.173  69.467  1.00  0.00    -0.178 C  
HETATM    2  C   UNL     1      -9.155  11.255  68.747  1.00  0.00    -0.122 C  
HETATM    3  C   UNL     2      -5.472  11.864  70.399  1.00  0.00    -0.142 C  
HETATM    4  O   UNL     2      -6.592  12.620  69.971  1.00  0.00     0.025 OA 
ENDROOT
BRANCH   2   5
HETATM    5  C   UNL     1      -9.107  11.255  67.181  1.00  0.00    -0.160 C  
HETATM    6  O   UNL     1      -8.587  13.642  66.847  1.00  0.00    -0.194 OA 
HETATM    7  C   UNL     1     -10.290  10.353  66.789  1.00  0.00    -0.235 C  
HETATM    8  C   UNL     1      -9.357  12.695  66.668  1.00  0.00    -0.236 C  
HETATM    9  H   UNL     1     -10.515  13.705  65.309  1.00  0.00     0.000 HD 
HETATM   10  N   UNL     1     -11.503  10.976  66.699  1.00  0.00     0.070 N  
HETATM   11  O   UNL     1     -10.220   9.138  66.644  1.00  0.00    -0.263 OA 
HETATM   12  O   UNL     1     -12.611  12.367  65.319  1.00  0.00    -0.636 OA 
HETATM   13  N   UNL     1     -10.495  12.896  65.929  1.00  0.00    -0.274 N  
HETATM   14  C   UNL     1     -11.595  12.104  65.957  1.00  0.00    -0.358 C  
HETATM   15  H   UNL     1     -12.321  10.600  67.179  1.00  0.00     0.000 HD 
BRANCH   5  16
HETATM   16  C   UNL     1      -7.761  10.706  66.661  1.00  0.00    -0.132 A  
HETATM   17  C   UNL     1      -6.204  10.332  64.822  1.00  0.00    -0.124 A  
HETATM   18  C   UNL     1      -7.502  10.558  65.286  1.00  0.00    -0.065 A  
HETATM   19  C   UNL     1      -6.705  10.445  67.551  1.00  0.00    -0.071 A  
HETATM   20  C   UNL     1      -5.150  10.217  65.722  1.00  0.00    -0.047 A  
HETATM   21  C   UNL     1      -5.406  10.239  67.088  1.00  0.00    -0.041 A  
ENDBRANCH   5  16
ENDBRANCH   2   5
BRANCH   4  22
HETATM   22  C   UNL     2      -6.341  13.665  69.137  1.00  0.00    -0.103 A  
HETATM   23  C   UNL     2      -5.260  13.803  68.290  1.00  0.00    -0.109 A  
HETATM   24  C   UNL     2      -7.254  15.824  68.372  1.00  0.00    -0.119 A  
HETATM   25  C   UNL     2      -7.985  17.974  67.535  1.00  0.00    -0.224 A  
HETATM   26  C   UNL     2      -5.171  14.945  67.490  1.00  0.00     0.169 A  
HETATM   27  C   UNL     2      -6.839  18.001  66.760  1.00  0.00    -0.196 A  
HETATM   28  C   UNL     2      -7.347  14.626  69.114  1.00  0.00    -0.143 A  
HETATM   29  C   UNL     2      -8.222  16.882  68.386  1.00  0.00    -0.232 A  
HETATM   30  C   UNL     2      -6.116  15.966  67.540  1.00  0.00    -0.145 A  
HETATM   31  N   UNL     2      -5.908  17.031  66.759  1.00  0.00    -0.182 NA 
BRANCH  29  32
HETATM   32  C   UNL     2      -9.532  16.820  69.197  1.00  0.00    -0.162 C  
HETATM   33  H   UNL     2     -11.189  17.892  69.398  1.00  0.00     0.000 HD 
HETATM   34  O   UNL     2     -10.382  17.931  68.899  1.00  0.00    -0.367 OA 
BRANCH  32  35
HETATM   35  C   UNL     2     -10.409  15.524  69.039  1.00  0.00    -0.235 C  
HETATM   36  C   UNL     2     -12.892  15.095  69.244  1.00  0.00     0.441 C  
HETATM   37  C   UNL     2     -12.517  13.603  69.249  1.00  0.00     0.029 C  
HETATM   38  C   UNL     2     -11.162  13.412  69.948  1.00  0.00     0.098 C  
HETATM   39  C   UNL     2     -11.805  15.826  68.434  1.00  0.00    -0.180 C  
HETATM   40  N   UNL     2     -10.546  14.713  70.299  1.00  0.00     0.098 NA 
HETATM   41  C   UNL     2     -11.451  15.361  71.286  1.00  0.00    -0.389 C  
HETATM   42  C   UNL     2     -12.848  15.667  70.685  1.00  0.00    -0.400 C  
BRANCH  42  43
HETATM   43  C   UNL     2     -13.957  15.118  71.553  1.00  0.00    -0.614 C  
HETATM   44  C   UNL     2     -13.857  14.014  72.304  1.00  0.00    -0.655 C  
ENDBRANCH  42  43
ENDBRANCH  32  35
ENDBRANCH  29  32
ENDBRANCH   4  22
TORSDOF 6
ENDMDL
MODEL      170
REMARK 921   NORMALIZED FREE ENERGY PREDICTED BY IDOCK:   -3.26 KCAL/MOL
REMARK 922        TOTAL FREE ENERGY PREDICTED BY IDOCK:   -7.49 KCAL/MOL
REMARK 923 INTER-LIGAND FREE ENERGY PREDICTED BY IDOCK:   -5.44 KCAL/MOL
REMARK 924 INTRA-LIGAND FREE ENERGY PREDICTED BY IDOCK:   -2.04 KCAL/MOL
REMARK 927      BINDING AFFINITY PREDICTED BY RF-SCORE:    0.00 PKD
ROOT
HETATM    1  C   UNL     1      -8.745  14.094  66.106  1.00  0.00     0.482 C  
HETATM    2  C   UNL     1      -9.633  12.856  66.215  1.00  0.00    -0.245 C  
HETATM    3  C   UNL     2      -5.749  12.995  67.465  1.00  0.00    -0.077 C  
HETATM    4  O   UNL     2      -6.728  12.031  67.117  1.00  0.00    -0.137 OA 
ENDROOT
BRANCH   2   5
HETATM    5  C   UNL     1     -10.637  12.805  67.416  1.00  0.00    -0.241 C  
HETATM    6  O   UNL     1     -12.733  12.961  66.127  1.00  0.00    -0.316 OA 
HETATM    7  C   UNL     1      -9.967  13.692  68.479  1.00  0.00    -0.208 C  
HETATM    8  C   UNL     1     -11.981  13.440  66.979  1.00  0.00    -0.379 C  
HETATM    9  H   UNL     1     -13.351  14.827  67.617  1.00  0.00     0.000 HD 
HETATM   10  N   UNL     1     -10.232  15.030  68.384  1.00  0.00    -0.224 N  
HETATM   11  O   UNL     1      -9.171  13.290  69.319  1.00  0.00     0.502 OA 
HETATM   12  O   UNL     1     -11.908  16.474  68.798  1.00  0.00    -0.104 OA 
HETATM   13  N   UNL     1     -12.360  14.587  67.629  1.00  0.00    -0.102 N  
HETATM   14  C   UNL     1     -11.521  15.426  68.285  1.00  0.00    -0.353 C  
HETATM   15  H   UNL     1      -9.475  15.714  68.387  1.00  0.00     0.000 HD 
BRANCH   5  16
HETATM   16  C   UNL     1     -10.844  11.358  67.914  1.00  0.00    -0.274 A  
HETATM   17  C   UNL     1     -10.482   8.962  67.644  1.00  0.00    -0.320 A  
HETATM   18  C   UNL     1     -10.561  10.246  67.100  1.00  0.00    -0.320 A  
HETATM   19  C   UNL     1     -11.215  11.108  69.246  1.00  0.00    -0.331 A  
HETATM   20  C   UNL     1     -10.718   8.761  68.999  1.00  0.00    -0.134 A  
HETATM   21  C   UNL     1     -11.118   9.829  69.794  1.00  0.00    -0.272 A  
ENDBRANCH   5  16
ENDBRANCH   2   5
BRANCH   4  22
HETATM   22  C   UNL     2      -6.930  11.018  68.002  1.00  0.00    -0.068 A  
HETATM   23  C   UNL     2      -7.211  11.141  69.347  1.00  0.00    -0.091 A  
HETATM   24  C   UNL     2      -7.039   8.560  68.174  1.00  0.00    -0.085 A  
HETATM   25  C   UNL     2      -7.148   6.170  68.531  1.00  0.00    -0.082 A  
HETATM   26  C   UNL     2      -7.402   9.984  70.106  1.00  0.00    -0.171 A  
HETATM   27  C   UNL     2      -7.390   6.435  69.868  1.00  0.00    -0.082 A  
HETATM   28  C   UNL     2      -6.920   9.752  67.425  1.00  0.00    -0.084 A  
HETATM   29  C   UNL     2      -6.946   7.234  67.638  1.00  0.00    -0.076 A  
HETATM   30  C   UNL     2      -7.286   8.708  69.562  1.00  0.00    -0.060 A  
HETATM   31  N   UNL     2      -7.449   7.672  70.390  1.00  0.00    -0.078 NA 
BRANCH  29  32
HETATM   32  C   UNL     2      -6.746   6.939  66.137  1.00  0.00    -0.052 C  
HETATM   33  H   UNL     2      -5.404   6.049  64.980  1.00  0.00     0.000 HD 
HETATM   34  O   UNL     2      -5.527   6.230  65.904  1.00  0.00    -0.013 OA 
BRANCH  32  35
HETATM   35  C   UNL     2      -7.885   6.135  65.409  1.00  0.00    -0.106 C  
HETATM   36  C   UNL     2      -9.726   4.622  66.251  1.00  0.00    -0.212 C  
HETATM   37  C   UNL     2      -9.904   4.211  64.779  1.00  0.00    -0.195 C  
HETATM   38  C   UNL     2      -8.542   4.232  64.068  1.00  0.00    -0.116 C  
HETATM   39  C   UNL     2      -9.187   6.064  66.250  1.00  0.00    -0.168 C  
HETATM   40  N   UNL     2      -7.477   4.761  64.953  1.00  0.00    -0.074 NA 
HETATM   41  C   UNL     2      -7.354   3.809  66.089  1.00  0.00    -0.072 C  
HETATM   42  C   UNL     2      -8.653   3.735  66.933  1.00  0.00    -0.109 C  
BRANCH  42  43
HETATM   43  C   UNL     2      -9.118   2.308  67.112  1.00  0.00    -0.149 C  
HETATM   44  C   UNL     2      -9.346   1.727  68.297  1.00  0.00    -0.246 C  
ENDBRANCH  42  43
ENDBRANCH  32  35
ENDBRANCH  29  32
ENDBRANCH   4  22
TORSDOF 6
ENDMDL
MODEL      171
REMARK 921   NORMALIZED FREE ENERGY PREDICTED BY IDOCK:   -3.26 KCAL/MOL
REMARK 922        TOTAL FREE ENERGY PREDICTED BY IDOCK:   -7.48 KCAL/MOL
REMARK 923 INTER-LIGAND FREE ENERGY PREDICTED BY IDOCK:   -8.20 KCAL/MOL
REMARK 924 INTRA-LIGAND FREE ENERGY PREDICTED BY IDOCK:    0.72 KCAL/MOL
REMARK 927      BINDING AFFINITY PREDICTED BY RF-SCORE:    0.00 PKD
ROOT
HETATM    1  C   UNL     1     -11.577  14.595  70.143  1.00  0.00    -0.336 C  
HETATM    2  C   UNL     1     -10.166  14.259  69.666  1.00  0.00     0.254 C  
HETATM    3  C   UNL     2     -13.172  11.517  70.008  1.00  0.00     0.949 C  
HETATM    4  O   UNL     2     -11.756  11.551  69.926  1.00  0.00    -0.302 OA 
ENDROOT
BRANCH   2   5
HETATM    5  C   UNL     1      -9.824  14.576  68.170  1.00  0.00    -0.223 C  
HETATM    6  O   UNL     1     -11.812  13.550  67.133  1.00  0.00    -0.354 OA 
HETATM    7  C   UNL     1      -8.313  14.305  68.085  1.00  0.00    -0.162 C  
HETATM    8  C   UNL     1     -10.585  13.583  67.257  1.00  0.00    -0.263 C  
HETATM    9  H   UNL     1     -10.246  12.315  65.680  1.00  0.00     0.000 HD 
HETATM   10  N   UNL     1      -7.959  13.008  67.835  1.00  0.00    -0.142 N  
HETATM   11  O   UNL     1      -7.443  15.139  68.306  1.00  0.00    -0.103 OA 
HETATM   12  O   UNL     1      -7.923  11.546  66.125  1.00  0.00    -0.056 OA 
HETATM   13  N   UNL     1      -9.820  12.722  66.512  1.00  0.00    -0.252 N  
HETATM   14  C   UNL     1      -8.541  12.371  66.794  1.00  0.00    -0.129 C  
HETATM   15  H   UNL     1      -7.272  12.532  68.420  1.00  0.00     0.000 HD 
BRANCH   5  16
HETATM   16  C   UNL     1     -10.173  16.037  67.813  1.00  0.00    -0.260 A  
HETATM   17  C   UNL     1     -10.151  18.410  68.374  1.00  0.00    -0.418 A  
HETATM   18  C   UNL     1     -10.109  17.070  68.766  1.00  0.00    -0.307 A  
HETATM   19  C   UNL     1     -10.456  16.399  66.484  1.00  0.00    -0.282 A  
HETATM   20  C   UNL     1     -10.292  18.742  67.031  1.00  0.00    -0.454 A  
HETATM   21  C   UNL     1     -10.479  17.736  66.091  1.00  0.00    -0.301 A  
ENDBRANCH   5  16
ENDBRANCH   2   5
BRANCH   4  22
HETATM   22  C   UNL     2     -11.178  10.735  69.004  1.00  0.00    -0.262 A  
HETATM   23  C   UNL     2     -11.442  10.704  67.650  1.00  0.00    -0.169 A  
HETATM   24  C   UNL     2      -9.489   8.957  68.746  1.00  0.00    -0.144 A  
HETATM   25  C   UNL     2      -7.896   7.187  68.318  1.00  0.00    -0.122 A  
HETATM   26  C   UNL     2     -10.739   9.804  66.845  1.00  0.00    -0.192 A  
HETATM   27  C   UNL     2      -8.280   7.237  66.989  1.00  0.00    -0.117 A  
HETATM   28  C   UNL     2     -10.169   9.927  69.517  1.00  0.00    -0.243 A  
HETATM   29  C   UNL     2      -8.506   8.042  69.249  1.00  0.00    -0.136 A  
HETATM   30  C   UNL     2      -9.804   8.913  67.365  1.00  0.00    -0.193 A  
HETATM   31  N   UNL     2      -9.221   8.068  66.508  1.00  0.00    -0.177 NA 
BRANCH  29  32
HETATM   32  C   UNL     2      -8.029   8.034  70.715  1.00  0.00    -0.099 C  
HETATM   33  H   UNL     2      -7.720   9.348  72.168  1.00  0.00     0.000 HD 
HETATM   34  O   UNL     2      -8.014   9.353  71.265  1.00  0.00    -0.328 OA 
BRANCH  32  35
HETATM   35  C   UNL     2      -8.831   7.131  71.723  1.00  0.00    -0.124 C  
HETATM   36  C   UNL     2     -11.166   6.165  71.677  1.00  0.00    -0.342 C  
HETATM   37  C   UNL     2     -10.939   5.845  73.165  1.00  0.00    -0.286 C  
HETATM   38  C   UNL     2     -10.057   6.933  73.799  1.00  0.00    -0.340 C  
HETATM   39  C   UNL     2      -9.784   6.144  71.000  1.00  0.00    -0.202 C  
HETATM   40  N   UNL     2      -9.574   7.898  72.783  1.00  0.00    -0.220 NA 
HETATM   41  C   UNL     2     -10.777   8.583  72.239  1.00  0.00    -0.341 C  
HETATM   42  C   UNL     2     -11.731   7.599  71.514  1.00  0.00    -0.310 C  
BRANCH  42  43
HETATM   43  C   UNL     2     -13.147   7.720  72.029  1.00  0.00    -0.233 C  
HETATM   44  C   UNL     2     -14.233   7.286  71.374  1.00  0.00    -0.476 C  
ENDBRANCH  42  43
ENDBRANCH  32  35
ENDBRANCH  29  32
ENDBRANCH   4  22
TORSDOF 6
ENDMDL
MODEL      172
REMARK 921   NORMALIZED FREE ENERGY PREDICTED BY IDOCK:   -3.26 KCAL/MOL
REMARK 922        TOTAL FREE ENERGY PREDICTED BY IDOCK:   -7.48 KCAL/MOL
REMARK 923 INTER-LIGAND FREE ENERGY PREDICTED BY IDOCK:   -6.45 KCAL/MOL
REMARK 924 INTRA-LIGAND FREE ENERGY PREDICTED BY IDOCK:   -1.03 KCAL/MOL
REMARK 927      BINDING AFFINITY PREDICTED BY RF-SCORE:    0.00 PKD
ROOT
HETATM    1  C   UNL     1      -8.411  15.969  66.138  1.00  0.00    -0.247 C  
HETATM    2  C   UNL     1      -9.037  14.693  66.697  1.00  0.00    -0.285 C  
HETATM    3  C   UNL     2      -5.128  15.741  67.233  1.00  0.00     0.160 C  
HETATM    4  O   UNL     2      -5.946  14.585  67.301  1.00  0.00    -0.296 OA 
ENDROOT
BRANCH   2   5
HETATM    5  C   UNL     1      -9.870  14.828  68.017  1.00  0.00    -0.218 C  
HETATM    6  O   UNL     1     -12.061  15.322  67.000  1.00  0.00     0.053 OA 
HETATM    7  C   UNL     1      -8.928  15.602  68.955  1.00  0.00    -0.239 C  
HETATM    8  C   UNL     1     -11.134  15.677  67.733  1.00  0.00    -0.311 C  
HETATM    9  H   UNL     1     -12.158  17.285  68.492  1.00  0.00     0.000 HD 
HETATM   10  N   UNL     1      -8.976  16.964  68.848  1.00  0.00    -0.247 N  
HETATM   11  O   UNL     1      -8.107  15.081  69.701  1.00  0.00    -0.177 OA 
HETATM   12  O   UNL     1     -10.318  18.677  69.422  1.00  0.00    -0.055 OA 
HETATM   13  N   UNL     1     -11.228  16.880  68.385  1.00  0.00    -0.221 N  
HETATM   14  C   UNL     1     -10.183  17.572  68.901  1.00  0.00    -0.353 C  
HETATM   15  H   UNL     1      -8.121  17.510  68.732  1.00  0.00     0.000 HD 
BRANCH   5  16
HETATM   16  C   UNL     1     -10.248  13.444  68.587  1.00  0.00    -0.187 A  
HETATM   17  C   UNL     1     -11.857  11.987  69.698  1.00  0.00    -0.401 A  
HETATM   18  C   UNL     1     -11.367  13.266  69.422  1.00  0.00    -0.280 A  
HETATM   19  C   UNL     1      -9.546  12.293  68.190  1.00  0.00    -0.213 A  
HETATM   20  C   UNL     1     -11.222  10.866  69.176  1.00  0.00    -0.318 A  
HETATM   21  C   UNL     1     -10.046  11.018  68.450  1.00  0.00    -0.194 A  
ENDBRANCH   5  16
ENDBRANCH   2   5
BRANCH   4  22
HETATM   22  C   UNL     2      -5.854  13.837  68.434  1.00  0.00    -0.100 A  
HETATM   23  C   UNL     2      -5.777  14.308  69.729  1.00  0.00    -0.105 A  
HETATM   24  C   UNL     2      -5.786  11.509  69.244  1.00  0.00    -0.052 A  
HETATM   25  C   UNL     2      -5.672   9.293  70.209  1.00  0.00    -0.035 A  
HETATM   26  C   UNL     2      -5.700  13.388  70.778  1.00  0.00    -0.184 A  
HETATM   27  C   UNL     2      -5.567   9.898  71.450  1.00  0.00    -0.056 A  
HETATM   28  C   UNL     2      -5.931  12.466  68.215  1.00  0.00    -0.059 A  
HETATM   29  C   UNL     2      -5.769  10.088  69.055  1.00  0.00    -0.034 A  
HETATM   30  C   UNL     2      -5.666  12.014  70.563  1.00  0.00    -0.159 A  
HETATM   31  N   UNL     2      -5.551  11.229  71.639  1.00  0.00    -0.327 NA 
BRANCH  29  32
HETATM   32  C   UNL     2      -5.955   9.414  67.681  1.00  0.00    -0.052 C  
HETATM   33  H   UNL     2      -5.974   7.577  66.935  1.00  0.00     0.000 HD 
HETATM   34  O   UNL     2      -5.859   7.991  67.782  1.00  0.00    -0.039 OA 
BRANCH  32  35
HETATM   35  C   UNL     2      -7.290   9.724  66.909  1.00  0.00    -0.091 C  
HETATM   36  C   UNL     2      -8.703   8.369  65.310  1.00  0.00    -0.148 C  
HETATM   37  C   UNL     2      -9.416   9.696  64.997  1.00  0.00    -0.312 C  
HETATM   38  C   UNL     2      -8.414  10.857  65.091  1.00  0.00    -0.038 C  
HETATM   39  C   UNL     2      -8.189   8.469  66.758  1.00  0.00    -0.105 C  
HETATM   40  N   UNL     2      -7.092  10.393  65.577  1.00  0.00    -0.144 NA 
HETATM   41  C   UNL     2      -6.567   9.453  64.551  1.00  0.00    -0.089 C  
HETATM   42  C   UNL     2      -7.462   8.196  64.397  1.00  0.00    -0.103 C  
BRANCH  42  43
HETATM   43  C   UNL     2      -7.841   7.958  62.954  1.00  0.00    -0.140 C  
HETATM   44  C   UNL     2      -8.228   6.776  62.455  1.00  0.00    -0.049 C  
ENDBRANCH  42  43
ENDBRANCH  32  35
ENDBRANCH  29  32
ENDBRANCH   4  22
TORSDOF 6
ENDMDL
MODEL      173
REMARK 921   NORMALIZED FREE ENERGY PREDICTED BY IDOCK:   -3.24 KCAL/MOL
REMARK 922        TOTAL FREE ENERGY PREDICTED BY IDOCK:   -7.46 KCAL/MOL
REMARK 923 INTER-LIGAND FREE ENERGY PREDICTED BY IDOCK:   -8.13 KCAL/MOL
REMARK 924 INTRA-LIGAND FREE ENERGY PREDICTED BY IDOCK:    0.67 KCAL/MOL
REMARK 927      BINDING AFFINITY PREDICTED BY RF-SCORE:    0.00 PKD
ROOT
HETATM    1  C   UNL     1      -7.995  12.589  68.942  1.00  0.00     0.165 C  
HETATM    2  C   UNL     1      -8.530  12.448  67.519  1.00  0.00    -0.175 C  
HETATM    3  C   UNL     2      -6.718   9.428  69.584  1.00  0.00    -0.048 C  
HETATM    4  O   UNL     2      -7.030   9.773  68.244  1.00  0.00    -0.071 OA 
ENDROOT
BRANCH   2   5
HETATM    5  C   UNL     1     -10.070  12.211  67.357  1.00  0.00    -0.208 C  
HETATM    6  O   UNL     1     -10.822  14.532  67.711  1.00  0.00    -0.256 OA 
HETATM    7  C   UNL     1     -10.306  10.885  68.102  1.00  0.00    -0.178 C  
HETATM    8  C   UNL     1     -10.835  13.353  68.072  1.00  0.00    -0.247 C  
HETATM    9  H   UNL     1     -12.363  13.629  69.412  1.00  0.00     0.000 HD 
HETATM   10  N   UNL     1     -10.517  10.993  69.448  1.00  0.00    -0.386 N  
HETATM   11  O   UNL     1     -10.231   9.776  67.587  1.00  0.00    -0.185 OA 
HETATM   12  O   UNL     1     -12.133  11.633  70.878  1.00  0.00    -0.341 OA 
HETATM   13  N   UNL     1     -11.608  12.997  69.147  1.00  0.00    -0.298 N  
HETATM   14  C   UNL     1     -11.449  11.871  69.885  1.00  0.00    -0.186 C  
HETATM   15  H   UNL     1      -9.985  10.426  70.108  1.00  0.00     0.000 HD 
BRANCH   5  16
HETATM   16  C   UNL     1     -10.472  12.121  65.869  1.00  0.00    -0.288 A  
HETATM   17  C   UNL     1     -10.048  11.290  63.616  1.00  0.00    -0.432 A  
HETATM   18  C   UNL     1      -9.588  11.628  64.891  1.00  0.00    -0.173 A  
HETATM   19  C   UNL     1     -11.783  12.424  65.464  1.00  0.00    -0.459 A  
HETATM   20  C   UNL     1     -11.387  11.471  63.285  1.00  0.00    -0.208 A  
HETATM   21  C   UNL     1     -12.246  12.069  64.198  1.00  0.00    -0.459 A  
ENDBRANCH   5  16
ENDBRANCH   2   5
BRANCH   4  22
HETATM   22  C   UNL     2      -7.662   8.825  67.501  1.00  0.00    -0.101 A  
HETATM   23  C   UNL     2      -7.843   8.835  66.133  1.00  0.00    -0.102 A  
HETATM   24  C   UNL     2      -8.812   6.650  67.667  1.00  0.00    -0.116 A  
HETATM   25  C   UNL     2      -9.994   4.539  67.652  1.00  0.00    -0.138 A  
HETATM   26  C   UNL     2      -8.508   7.763  65.532  1.00  0.00    -0.146 A  
HETATM   27  C   UNL     2     -10.136   4.691  66.283  1.00  0.00    -0.265 A  
HETATM   28  C   UNL     2      -8.075   7.716  68.231  1.00  0.00    -0.124 A  
HETATM   29  C   UNL     2      -9.336   5.532  68.395  1.00  0.00    -0.130 A  
HETATM   30  C   UNL     2      -9.024   6.700  66.267  1.00  0.00    -0.152 A  
HETATM   31  N   UNL     2      -9.677   5.749  65.592  1.00  0.00     0.131 NA 
BRANCH  29  32
HETATM   32  C   UNL     2      -9.117   5.328  69.908  1.00  0.00    -0.130 C  
HETATM   33  H   UNL     2      -7.766   4.498  71.100  1.00  0.00     0.000 HD 
HETATM   34  O   UNL     2      -7.901   4.623  70.168  1.00  0.00    -0.059 OA 
BRANCH  32  35
HETATM   35  C   UNL     2      -9.094   6.619  70.807  1.00  0.00    -0.151 C  
HETATM   36  C   UNL     2     -10.466   7.348  72.800  1.00  0.00    -0.323 C  
HETATM   37  C   UNL     2      -9.844   8.737  72.575  1.00  0.00    -0.133 C  
HETATM   38  C   UNL     2      -9.620   8.965  71.072  1.00  0.00    -0.255 C  
HETATM   39  C   UNL     2      -9.447   6.314  72.286  1.00  0.00    -0.152 C  
HETATM   40  N   UNL     2      -9.938   7.750  70.286  1.00  0.00    -0.188 NA 
HETATM   41  C   UNL     2     -11.392   7.492  70.469  1.00  0.00    -0.260 C  
HETATM   42  C   UNL     2     -11.750   7.186  71.946  1.00  0.00    -0.328 C  
BRANCH  42  43
HETATM   43  C   UNL     2     -12.879   8.063  72.437  1.00  0.00    -0.137 C  
HETATM   44  C   UNL     2     -13.820   8.600  71.650  1.00  0.00    -0.440 C  
ENDBRANCH  42  43
ENDBRANCH  32  35
ENDBRANCH  29  32
ENDBRANCH   4  22
TORSDOF 6
ENDMDL
MODEL      174
REMARK 921   NORMALIZED FREE ENERGY PREDICTED BY IDOCK:   -3.21 KCAL/MOL
REMARK 922        TOTAL FREE ENERGY PREDICTED BY IDOCK:   -7.42 KCAL/MOL
REMARK 923 INTER-LIGAND FREE ENERGY PREDICTED BY IDOCK:   -5.39 KCAL/MOL
REMARK 924 INTRA-LIGAND FREE ENERGY PREDICTED BY IDOCK:   -2.02 KCAL/MOL
REMARK 927      BINDING AFFINITY PREDICTED BY RF-SCORE:    0.00 PKD
ROOT
HETATM    1  C   UNL     1      -7.166  11.051  66.574  1.00  0.00    -0.143 C  
HETATM    2  C   UNL     1      -8.210   9.939  66.655  1.00  0.00    -0.121 C  
HETATM    3  C   UNL     2      -5.222  10.470  69.387  1.00  0.00    -0.038 C  
HETATM    4  O   UNL     2      -6.114   9.454  68.958  1.00  0.00    -0.042 OA 
ENDROOT
BRANCH   2   5
HETATM    5  C   UNL     1      -9.614  10.321  67.235  1.00  0.00    -0.186 C  
HETATM    6  O   UNL     1      -8.849  11.780  69.070  1.00  0.00     0.059 OA 
HETATM    7  C   UNL     1     -10.395   8.997  67.177  1.00  0.00    -0.272 C  
HETATM    8  C   UNL     1      -9.447  10.763  68.711  1.00  0.00    -0.182 C  
HETATM    9  H   UNL     1     -10.253  10.408  70.563  1.00  0.00     0.000 HD 
HETATM   10  N   UNL     1     -10.235   8.169  68.252  1.00  0.00    -0.202 N  
HETATM   11  O   UNL     1     -11.058   8.624  66.216  1.00  0.00     0.924 OA 
HETATM   12  O   UNL     1     -10.891   8.009  70.399  1.00  0.00    -0.240 OA 
HETATM   13  N   UNL     1     -10.053   9.980  69.660  1.00  0.00    -0.223 N  
HETATM   14  C   UNL     1     -10.406   8.682  69.492  1.00  0.00    -0.214 C  
HETATM   15  H   UNL     1      -9.992   7.186  68.123  1.00  0.00     0.000 HD 
BRANCH   5  16
HETATM   16  C   UNL     1     -10.285  11.430  66.397  1.00  0.00    -0.270 A  
HETATM   17  C   UNL     1     -10.661  12.513  64.245  1.00  0.00    -0.395 A  
HETATM   18  C   UNL     1      -9.876  11.716  65.081  1.00  0.00    -0.281 A  
HETATM   19  C   UNL     1     -11.411  12.113  66.888  1.00  0.00    -0.402 A  
HETATM   20  C   UNL     1     -11.847  13.065  64.716  1.00  0.00    -0.409 A  
HETATM   21  C   UNL     1     -12.204  12.893  66.047  1.00  0.00    -0.431 A  
ENDBRANCH   5  16
ENDBRANCH   2   5
BRANCH   4  22
HETATM   22  C   UNL     2      -6.825   8.817  69.927  1.00  0.00    -0.042 A  
HETATM   23  C   UNL     2      -7.330   9.377  71.082  1.00  0.00     0.008 A  
HETATM   24  C   UNL     2      -7.780   6.626  70.536  1.00  0.00    -0.104 A  
HETATM   25  C   UNL     2      -8.751   4.548  71.305  1.00  0.00    -0.137 A  
HETATM   26  C   UNL     2      -8.053   8.570  71.964  1.00  0.00    -0.175 A  
HETATM   27  C   UNL     2      -9.172   5.226  72.436  1.00  0.00    -0.140 A  
HETATM   28  C   UNL     2      -7.114   7.488  69.635  1.00  0.00    -0.064 A  
HETATM   29  C   UNL     2      -8.021   5.230  70.318  1.00  0.00    -0.084 A  
HETATM   30  C   UNL     2      -8.254   7.211  71.736  1.00  0.00    -0.105 A  
HETATM   31  N   UNL     2      -8.926   6.528  72.668  1.00  0.00    -0.132 NA 
BRANCH  29  32
HETATM   32  C   UNL     2      -7.614   4.491  69.028  1.00  0.00    -0.056 C  
HETATM   33  H   UNL     2      -6.766   2.771  68.523  1.00  0.00     0.000 HD 
HETATM   34  O   UNL     2      -7.017   3.225  69.318  1.00  0.00    -0.041 OA 
BRANCH  32  35
HETATM   35  C   UNL     2      -8.747   4.225  67.969  1.00  0.00    -0.105 C  
HETATM   36  C   UNL     2      -8.695   3.644  65.510  1.00  0.00    -0.119 C  
HETATM   37  C   UNL     2     -10.198   3.974  65.519  1.00  0.00    -0.102 C  
HETATM   38  C   UNL     2     -10.473   5.105  66.521  1.00  0.00    -0.294 C  
HETATM   39  C   UNL     2      -8.338   3.153  66.925  1.00  0.00    -0.091 C  
HETATM   40  N   UNL     2      -9.252   5.464  67.281  1.00  0.00    -0.111 NA 
HETATM   41  C   UNL     2      -8.275   5.994  66.293  1.00  0.00    -0.118 C  
HETATM   42  C   UNL     2      -7.863   4.925  65.248  1.00  0.00    -0.091 C  
BRANCH  42  43
HETATM   43  C   UNL     2      -8.029   5.437  63.836  1.00  0.00    -0.111 C  
HETATM   44  C   UNL     2      -7.890   6.719  63.472  1.00  0.00    -0.110 C  
ENDBRANCH  42  43
ENDBRANCH  32  35
ENDBRANCH  29  32
ENDBRANCH   4  22
TORSDOF 6
ENDMDL
MODEL      175
REMARK 921   NORMALIZED FREE ENERGY PREDICTED BY IDOCK:   -3.15 KCAL/MOL
REMARK 922        TOTAL FREE ENERGY PREDICTED BY IDOCK:   -7.33 KCAL/MOL
REMARK 923 INTER-LIGAND FREE ENERGY PREDICTED BY IDOCK:   -7.51 KCAL/MOL
REMARK 924 INTRA-LIGAND FREE ENERGY PREDICTED BY IDOCK:    0.18 KCAL/MOL
REMARK 927      BINDING AFFINITY PREDICTED BY RF-SCORE:    0.00 PKD
ROOT
HETATM    1  C   UNL     1      -5.405   8.712  64.854  1.00  0.00    -0.039 C  
HETATM    2  C   UNL     1      -6.194   7.658  65.629  1.00  0.00    -0.038 C  
HETATM    3  C   UNL     2      -5.904  11.573  66.751  1.00  0.00    -0.143 C  
HETATM    4  O   UNL     2      -6.235  10.317  67.320  1.00  0.00    -0.057 OA 
ENDROOT
BRANCH   2   5
HETATM    5  C   UNL     1      -7.623   7.302  65.094  1.00  0.00    -0.105 C  
HETATM    6  O   UNL     1      -6.974   6.542  62.840  1.00  0.00    -0.040 OA 
HETATM    7  C   UNL     1      -8.497   8.452  65.625  1.00  0.00    -0.164 C  
HETATM    8  C   UNL     1      -7.605   7.334  63.546  1.00  0.00    -0.117 C  
HETATM    9  H   UNL     1      -8.661   8.118  61.972  1.00  0.00     0.000 HD 
HETATM   10  N   UNL     1      -8.541   9.571  64.841  1.00  0.00    -0.160 N  
HETATM   11  O   UNL     1      -9.064   8.449  66.711  1.00  0.00    -0.142 OA 
HETATM   12  O   UNL     1      -9.469  10.273  62.915  1.00  0.00    -0.302 OA 
HETATM   13  N   UNL     1      -8.386   8.284  62.940  1.00  0.00    -0.135 N  
HETATM   14  C   UNL     1      -8.822   9.426  63.526  1.00  0.00    -0.172 C  
HETATM   15  H   UNL     1      -8.365  10.494  65.239  1.00  0.00     0.000 HD 
BRANCH   5  16
HETATM   16  C   UNL     1      -8.091   5.928  65.616  1.00  0.00    -0.124 A  
HETATM   17  C   UNL     1      -8.893   3.666  65.180  1.00  0.00    -0.120 A  
HETATM   18  C   UNL     1      -8.730   4.994  64.779  1.00  0.00    -0.149 A  
HETATM   19  C   UNL     1      -7.787   5.520  66.927  1.00  0.00    -0.101 A  
HETATM   20  C   UNL     1      -8.455   3.256  66.434  1.00  0.00    -0.108 A  
HETATM   21  C   UNL     1      -7.933   4.190  67.320  1.00  0.00    -0.096 A  
ENDBRANCH   5  16
ENDBRANCH   2   5
BRANCH   4  22
HETATM   22  C   UNL     2      -7.401  10.251  68.017  1.00  0.00    -0.086 A  
HETATM   23  C   UNL     2      -7.688   9.401  69.066  1.00  0.00    -0.075 A  
HETATM   24  C   UNL     2      -9.637  11.275  68.197  1.00  0.00    -0.186 A  
HETATM   25  C   UNL     2     -11.877  12.140  68.490  1.00  0.00    -0.365 A  
HETATM   26  C   UNL     2      -8.942   9.481  69.677  1.00  0.00    -0.198 A  
HETATM   27  C   UNL     2     -12.044  11.212  69.503  1.00  0.00    -0.326 A  
HETATM   28  C   UNL     2      -8.336  11.212  67.649  1.00  0.00    -0.122 A  
HETATM   29  C   UNL     2     -10.662  12.189  67.787  1.00  0.00    -0.241 A  
HETATM   30  C   UNL     2      -9.926  10.366  69.245  1.00  0.00    -0.228 A  
HETATM   31  N   UNL     2     -11.103  10.328  69.877  1.00  0.00    -0.283 NA 
BRANCH  29  32
HETATM   32  C   UNL     2     -10.453  13.269  66.706  1.00  0.00    -0.270 C  
HETATM   33  H   UNL     2     -11.124  13.676  64.885  1.00  0.00     0.000 HD 
HETATM   34  O   UNL     2     -11.253  13.011  65.551  1.00  0.00    -0.284 OA 
BRANCH  32  35
HETATM   35  C   UNL     2     -10.727  14.761  67.124  1.00  0.00    -0.299 C  
HETATM   36  C   UNL     2      -9.428  16.903  66.790  1.00  0.00    -0.269 C  
HETATM   37  C   UNL     2     -10.392  17.513  67.822  1.00  0.00    -0.367 C  
HETATM   38  C   UNL     2     -10.784  16.447  68.857  1.00  0.00    -0.319 C  
HETATM   39  C   UNL     2     -10.193  15.773  66.077  1.00  0.00    -0.352 C  
HETATM   40  N   UNL     2     -10.235  15.118  68.500  1.00  0.00    -0.226 NA 
HETATM   41  C   UNL     2      -8.754  15.241  68.550  1.00  0.00    -0.176 C  
HETATM   42  C   UNL     2      -8.216  16.252  67.504  1.00  0.00    -0.165 C  
BRANCH  42  43
HETATM   43  C   UNL     2      -7.306  17.277  68.140  1.00  0.00    -0.199 C  
HETATM   44  C   UNL     2      -6.086  17.596  67.688  1.00  0.00    -0.164 C  
ENDBRANCH  42  43
ENDBRANCH  32  35
ENDBRANCH  29  32
ENDBRANCH   4  22
TORSDOF 6
ENDMDL
MODEL      176
REMARK 921   NORMALIZED FREE ENERGY PREDICTED BY IDOCK:   -3.10 KCAL/MOL
REMARK 922        TOTAL FREE ENERGY PREDICTED BY IDOCK:   -7.26 KCAL/MOL
REMARK 923 INTER-LIGAND FREE ENERGY PREDICTED BY IDOCK:   -5.72 KCAL/MOL
REMARK 924 INTRA-LIGAND FREE ENERGY PREDICTED BY IDOCK:   -1.54 KCAL/MOL
REMARK 927      BINDING AFFINITY PREDICTED BY RF-SCORE:    0.00 PKD
ROOT
HETATM    1  C   UNL     1     -11.648  10.272  68.626  1.00  0.00    -0.096 C  
HETATM    2  C   UNL     1     -10.372  10.967  69.095  1.00  0.00    -0.228 C  
HETATM    3  C   UNL     2     -11.630   7.333  70.468  1.00  0.00    -0.258 C  
HETATM    4  O   UNL     2     -10.754   8.380  70.854  1.00  0.00    -0.213 OA 
ENDROOT
BRANCH   2   5
HETATM    5  C   UNL     1      -9.114  10.844  68.170  1.00  0.00    -0.155 C  
HETATM    6  O   UNL     1      -9.178   8.405  67.812  1.00  0.00    -0.132 OA 
HETATM    7  C   UNL     1      -8.101  11.803  68.819  1.00  0.00    -0.047 C  
HETATM    8  C   UNL     1      -8.575   9.393  68.239  1.00  0.00    -0.120 C  
HETATM    9  H   UNL     1      -6.817   8.376  68.526  1.00  0.00     0.000 HD 
HETATM   10  N   UNL     1      -7.346  11.272  69.827  1.00  0.00    -0.353 N  
HETATM   11  O   UNL     1      -8.000  12.994  68.549  1.00  0.00    -0.138 OA 
HETATM   12  O   UNL     1      -5.606   9.871  70.102  1.00  0.00    -0.039 OA 
HETATM   13  N   UNL     1      -7.323   9.226  68.773  1.00  0.00    -0.074 N  
HETATM   14  C   UNL     1      -6.705  10.102  69.603  1.00  0.00    -0.076 C  
HETATM   15  H   UNL     1      -7.267  11.746  70.726  1.00  0.00     0.000 HD 
BRANCH   5  16
HETATM   16  C   UNL     1      -9.444  11.245  66.717  1.00  0.00    -0.196 A  
HETATM   17  C   UNL     1      -9.151  10.915  64.318  1.00  0.00    -0.168 A  
HETATM   18  C   UNL     1      -8.683  10.780  65.628  1.00  0.00    -0.198 A  
HETATM   19  C   UNL     1     -10.594  11.999  66.428  1.00  0.00    -0.278 A  
HETATM   20  C   UNL     1     -10.365  11.546  64.070  1.00  0.00    -0.406 A  
HETATM   21  C   UNL     1     -11.070  12.117  65.123  1.00  0.00    -0.369 A  
ENDBRANCH   5  16
ENDBRANCH   2   5
BRANCH   4  22
HETATM   22  C   UNL     2      -9.488   8.022  71.200  1.00  0.00    -0.153 A  
HETATM   23  C   UNL     2      -8.703   8.603  72.175  1.00  0.00    -0.217 A  
HETATM   24  C   UNL     2      -7.702   6.402  70.685  1.00  0.00    -0.105 A  
HETATM   25  C   UNL     2      -5.834   4.916  70.287  1.00  0.00    -0.017 A  
HETATM   26  C   UNL     2      -7.423   8.093  72.404  1.00  0.00    -0.144 A  
HETATM   27  C   UNL     2      -5.144   5.610  71.266  1.00  0.00    -0.009 A  
HETATM   28  C   UNL     2      -9.015   6.899  70.528  1.00  0.00    -0.155 A  
HETATM   29  C   UNL     2      -7.141   5.305  69.951  1.00  0.00    -0.062 A  
HETATM   30  C   UNL     2      -6.897   7.039  71.662  1.00  0.00    -0.060 A  
HETATM   31  N   UNL     2      -5.646   6.659  71.940  1.00  0.00    -0.035 NA 
BRANCH  29  32
HETATM   32  C   UNL     2      -7.933   4.489  68.910  1.00  0.00    -0.074 C  
HETATM   33  H   UNL     2      -9.758   3.738  68.709  1.00  0.00     0.000 HD 
HETATM   34  O   UNL     2      -9.270   4.242  69.351  1.00  0.00    -0.110 OA 
BRANCH  32  35
HETATM   35  C   UNL     2      -8.037   5.090  67.460  1.00  0.00    -0.099 C  
HETATM   36  C   UNL     2      -9.627   4.674  65.540  1.00  0.00    -0.187 C  
HETATM   37  C   UNL     2      -8.615   5.455  64.684  1.00  0.00    -0.097 C  
HETATM   38  C   UNL     2      -7.191   5.189  65.196  1.00  0.00    -0.067 C  
HETATM   39  C   UNL     2      -9.506   5.213  66.977  1.00  0.00    -0.143 C  
HETATM   40  N   UNL     2      -7.204   4.373  66.433  1.00  0.00    -0.074 NA 
HETATM   41  C   UNL     2      -7.781   3.052  66.066  1.00  0.00    -0.078 C  
HETATM   42  C   UNL     2      -9.251   3.171  65.584  1.00  0.00    -0.141 C  
BRANCH  42  43
HETATM   43  C   UNL     2      -9.453   2.490  64.250  1.00  0.00    -0.138 C  
HETATM   44  C   UNL     2     -10.634   2.054  63.791  1.00  0.00    -0.012 C  
ENDBRANCH  42  43
ENDBRANCH  32  35
ENDBRANCH  29  32
ENDBRANCH   4  22
TORSDOF 6
ENDMDL
MODEL      177
REMARK 921   NORMALIZED FREE ENERGY PREDICTED BY IDOCK:   -3.07 KCAL/MOL
REMARK 922        TOTAL FREE ENERGY PREDICTED BY IDOCK:   -7.22 KCAL/MOL
REMARK 923 INTER-LIGAND FREE ENERGY PREDICTED BY IDOCK:   -6.18 KCAL/MOL
REMARK 924 INTRA-LIGAND FREE ENERGY PREDICTED BY IDOCK:   -1.04 KCAL/MOL
REMARK 927      BINDING AFFINITY PREDICTED BY RF-SCORE:    0.00 PKD
ROOT
HETATM    1  C   UNL     1     -11.039  14.488  64.963  1.00  0.00    -0.393 C  
HETATM    2  C   UNL     1     -11.730  14.727  66.304  1.00  0.00    -0.260 C  
HETATM    3  C   UNL     2     -10.450  11.070  65.016  1.00  0.00    -0.277 C  
HETATM    4  O   UNL     2     -11.351  11.616  65.965  1.00  0.00    -0.294 OA 
ENDROOT
BRANCH   2   5
HETATM    5  C   UNL     1     -10.845  15.283  67.471  1.00  0.00    -0.304 C  
HETATM    6  O   UNL     1      -9.172  13.473  67.537  1.00  0.00    -0.201 OA 
HETATM    7  C   UNL     1     -11.879  15.820  68.476  1.00  0.00    -0.221 C  
HETATM    8  C   UNL     1     -10.058  14.112  68.111  1.00  0.00    -0.239 C  
HETATM    9  H   UNL     1      -9.643  13.311  69.953  1.00  0.00     0.000 HD 
HETATM   10  N   UNL     1     -12.376  14.903  69.359  1.00  0.00    -0.558 N  
HETATM   11  O   UNL     1     -12.328  16.961  68.469  1.00  0.00     0.948 OA 
HETATM   12  O   UNL     1     -11.736  13.791  71.208  1.00  0.00     0.028 OA 
HETATM   13  N   UNL     1     -10.350  13.815  69.417  1.00  0.00     0.131 N  
HETATM   14  C   UNL     1     -11.503  14.138  70.053  1.00  0.00    -0.193 C  
HETATM   15  H   UNL     1     -13.382  14.798  69.493  1.00  0.00     0.000 HD 
BRANCH   5  16
HETATM   16  C   UNL     1      -9.890  16.389  66.974  1.00  0.00    -0.253 A  
HETATM   17  C   UNL     1      -9.537  18.641  66.108  1.00  0.00    -0.214 A  
HETATM   18  C   UNL     1     -10.362  17.530  66.301  1.00  0.00    -0.335 A  
HETATM   19  C   UNL     1      -8.520  16.341  67.285  1.00  0.00    -0.199 A  
HETATM   20  C   UNL     1      -8.220  18.619  66.552  1.00  0.00    -0.301 A  
HETATM   21  C   UNL     1      -7.701  17.456  67.110  1.00  0.00    -0.229 A  
ENDBRANCH   5  16
ENDBRANCH   2   5
BRANCH   4  22
HETATM   22  C   UNL     2     -11.252  11.152  67.240  1.00  0.00    -0.277 A  
HETATM   23  C   UNL     2     -12.189  11.292  68.244  1.00  0.00     0.184 A  
HETATM   24  C   UNL     2      -9.776   9.882  68.752  1.00  0.00    -0.164 A  
HETATM   25  C   UNL     2      -8.440   8.687  70.378  1.00  0.00    -0.144 A  
HETATM   26  C   UNL     2     -11.923  10.735  69.497  1.00  0.00    -0.364 A  
HETATM   27  C   UNL     2      -9.445   8.929  71.300  1.00  0.00    -0.272 A  
HETATM   28  C   UNL     2     -10.109  10.397  67.480  1.00  0.00    -0.231 A  
HETATM   29  C   UNL     2      -8.569   9.176  69.068  1.00  0.00    -0.133 A  
HETATM   30  C   UNL     2     -10.732  10.072  69.781  1.00  0.00    -0.271 A  
HETATM   31  N   UNL     2     -10.568   9.615  71.026  1.00  0.00    -0.315 NA 
BRANCH  29  32
HETATM   32  C   UNL     2      -7.482   8.847  68.024  1.00  0.00    -0.092 C  
HETATM   33  H   UNL     2      -5.503   8.744  67.945  1.00  0.00     0.000 HD 
HETATM   34  O   UNL     2      -6.172   8.947  68.588  1.00  0.00    -0.045 OA 
BRANCH  32  35
HETATM   35  C   UNL     2      -7.568   7.442  67.322  1.00  0.00    -0.108 C  
HETATM   36  C   UNL     2      -5.927   6.115  65.931  1.00  0.00    -0.029 C  
HETATM   37  C   UNL     2      -7.130   5.229  65.565  1.00  0.00    -0.067 C  
HETATM   38  C   UNL     2      -8.404   6.087  65.501  1.00  0.00    -0.146 C  
HETATM   39  C   UNL     2      -6.209   6.695  67.330  1.00  0.00    -0.036 C  
HETATM   40  N   UNL     2      -8.140   7.480  65.931  1.00  0.00    -0.119 NA 
HETATM   41  C   UNL     2      -7.183   8.057  64.949  1.00  0.00    -0.073 C  
HETATM   42  C   UNL     2      -5.822   7.313  64.954  1.00  0.00    -0.037 C  
BRANCH  42  43
HETATM   43  C   UNL     2      -5.420   6.884  63.562  1.00  0.00    -0.032 C  
HETATM   44  C   UNL     2      -5.498   7.663  62.474  1.00  0.00    -0.047 C  
ENDBRANCH  42  43
ENDBRANCH  32  35
ENDBRANCH  29  32
ENDBRANCH   4  22
TORSDOF 6
ENDMDL
MODEL      178
REMARK 921   NORMALIZED FREE ENERGY PREDICTED BY IDOCK:   -3.07 KCAL/MOL
REMARK 922        TOTAL FREE ENERGY PREDICTED BY IDOCK:   -7.22 KCAL/MOL
REMARK 923 INTER-LIGAND FREE ENERGY PREDICTED BY IDOCK:   -5.73 KCAL/MOL
REMARK 924 INTRA-LIGAND FREE ENERGY PREDICTED BY IDOCK:   -1.49 KCAL/MOL
REMARK 927      BINDING AFFINITY PREDICTED BY RF-SCORE:    0.00 PKD
ROOT
HETATM    1  C   UNL     1      -9.720   6.028  66.147  1.00  0.00    -0.060 C  
HETATM    2  C   UNL     1      -8.207   5.915  66.318  1.00  0.00    -0.114 C  
HETATM    3  C   UNL     2     -10.181   9.441  65.736  1.00  0.00     0.046 C  
HETATM    4  O   UNL     2      -8.868   8.916  65.620  1.00  0.00    -0.169 OA 
ENDROOT
BRANCH   2   5
HETATM    5  C   UNL     1      -7.664   5.777  67.781  1.00  0.00    -0.097 C  
HETATM    6  O   UNL     1      -5.399   6.675  67.399  1.00  0.00    -0.008 OA 
HETATM    7  C   UNL     1      -8.211   4.414  68.237  1.00  0.00    -0.089 C  
HETATM    8  C   UNL     1      -6.116   5.731  67.743  1.00  0.00    -0.022 C  
HETATM    9  H   UNL     1      -4.553   4.622  68.474  1.00  0.00     0.000 HD 
HETATM   10  N   UNL     1      -7.445   3.330  67.907  1.00  0.00    -0.054 N  
HETATM   11  O   UNL     1      -9.295   4.247  68.782  1.00  0.00    -0.131 OA 
HETATM   12  O   UNL     1      -5.529   2.335  68.542  1.00  0.00    -0.016 OA 
HETATM   13  N   UNL     1      -5.524   4.569  68.167  1.00  0.00    -0.015 N  
HETATM   14  C   UNL     1      -6.127   3.356  68.211  1.00  0.00    -0.031 C  
HETATM   15  H   UNL     1      -7.858   2.520  67.443  1.00  0.00     0.000 HD 
BRANCH   5  16
HETATM   16  C   UNL     1      -8.163   6.932  68.676  1.00  0.00    -0.121 A  
HETATM   17  C   UNL     1      -7.697   8.915  70.017  1.00  0.00    -0.078 A  
HETATM   18  C   UNL     1      -7.277   7.714  69.440  1.00  0.00    -0.081 A  
HETATM   19  C   UNL     1      -9.516   7.311  68.664  1.00  0.00    -0.137 A  
HETATM   20  C   UNL     1      -9.014   9.338  69.870  1.00  0.00    -0.194 A  
HETATM   21  C   UNL     1      -9.931   8.519  69.223  1.00  0.00    -0.195 A  
ENDBRANCH   5  16
ENDBRANCH   2   5
BRANCH   4  22
HETATM   22  C   UNL     2      -7.872   9.624  66.217  1.00  0.00    -0.101 A  
HETATM   23  C   UNL     2      -6.525   9.326  66.202  1.00  0.00    -0.069 A  
HETATM   24  C   UNL     2      -7.440  11.648  67.558  1.00  0.00    -0.123 A  
HETATM   25  C   UNL     2      -6.841  13.570  68.900  1.00  0.00    -0.111 A  
HETATM   26  C   UNL     2      -5.637  10.179  66.863  1.00  0.00    -0.046 A  
HETATM   27  C   UNL     2      -5.527  13.138  68.833  1.00  0.00    -0.072 A  
HETATM   28  C   UNL     2      -8.299  10.801  66.822  1.00  0.00    -0.136 A  
HETATM   29  C   UNL     2      -7.849  12.822  68.272  1.00  0.00    -0.141 A  
HETATM   30  C   UNL     2      -6.066  11.302  67.565  1.00  0.00    -0.059 A  
HETATM   31  N   UNL     2      -5.133  12.023  68.194  1.00  0.00    -0.049 NA 
BRANCH  29  32
HETATM   32  C   UNL     2      -9.302  13.341  68.288  1.00  0.00    -0.205 C  
HETATM   33  H   UNL     2     -10.420  14.548  69.394  1.00  0.00     0.000 HD 
HETATM   34  O   UNL     2      -9.525  14.229  69.385  1.00  0.00     0.123 OA 
BRANCH  32  35
HETATM   35  C   UNL     2      -9.810  14.079  66.995  1.00  0.00    -0.260 C  
HETATM   36  C   UNL     2      -9.585  16.461  66.178  1.00  0.00    -0.356 C  
HETATM   37  C   UNL     2     -10.664  16.087  65.148  1.00  0.00    -0.429 C  
HETATM   38  C   UNL     2     -11.640  15.073  65.765  1.00  0.00    -0.171 C  
HETATM   39  C   UNL     2      -8.817  15.167  66.509  1.00  0.00    -0.312 C  
HETATM   40  N   UNL     2     -11.197  14.648  67.114  1.00  0.00    -0.333 NA 
HETATM   41  C   UNL     2     -11.234  15.859  67.976  1.00  0.00    -0.319 C  
HETATM   42  C   UNL     2     -10.242  16.949  67.495  1.00  0.00    -0.295 C  
BRANCH  42  43
HETATM   43  C   UNL     2     -10.925  18.288  67.332  1.00  0.00    -0.132 C  
HETATM   44  C   UNL     2     -10.324  19.473  67.500  1.00  0.00    -0.567 C  
ENDBRANCH  42  43
ENDBRANCH  32  35
ENDBRANCH  29  32
ENDBRANCH   4  22
TORSDOF 6
ENDMDL
MODEL      179
REMARK 921   NORMALIZED FREE ENERGY PREDICTED BY IDOCK:   -3.06 KCAL/MOL
REMARK 922        TOTAL FREE ENERGY PREDICTED BY IDOCK:   -7.22 KCAL/MOL
REMARK 923 INTER-LIGAND FREE ENERGY PREDICTED BY IDOCK:   -5.98 KCAL/MOL
REMARK 924 INTRA-LIGAND FREE ENERGY PREDICTED BY IDOCK:   -1.23 KCAL/MOL
REMARK 927      BINDING AFFINITY PREDICTED BY RF-SCORE:    0.00 PKD
ROOT
HETATM    1  C   UNL     1      -5.829   9.773  71.384  1.00  0.00    -0.024 C  
HETATM    2  C   UNL     1      -7.355   9.740  71.399  1.00  0.00     0.684 C  
HETATM    3  C   UNL     2      -5.149  12.243  69.046  1.00  0.00    -0.055 C  
HETATM    4  O   UNL     2      -6.469  12.137  69.555  1.00  0.00    -0.113 OA 
ENDROOT
BRANCH   2   5
HETATM    5  C   UNL     1      -8.051   8.610  70.567  1.00  0.00    -0.115 C  
HETATM    6  O   UNL     1      -9.613   7.811  72.300  1.00  0.00    -0.155 OA 
HETATM    7  C   UNL     1      -6.886   7.964  69.798  1.00  0.00    -0.042 C  
HETATM    8  C   UNL     1      -8.670   7.575  71.540  1.00  0.00    -0.116 C  
HETATM    9  H   UNL     1      -8.734   5.550  71.855  1.00  0.00     0.000 HD 
HETATM   10  N   UNL     1      -6.209   6.982  70.467  1.00  0.00    -0.031 N  
HETATM   11  O   UNL     1      -6.493   8.329  68.696  1.00  0.00    -0.051 OA 
HETATM   12  O   UNL     1      -6.481   4.834  71.081  1.00  0.00    -0.018 OA 
HETATM   13  N   UNL     1      -8.150   6.307  71.502  1.00  0.00    -0.109 N  
HETATM   14  C   UNL     1      -6.920   5.981  71.033  1.00  0.00    -0.068 C  
HETATM   15  H   UNL     1      -5.192   7.004  70.537  1.00  0.00     0.000 HD 
BRANCH   5  16
HETATM   16  C   UNL     1      -9.122   9.189  69.618  1.00  0.00    -0.163 A  
HETATM   17  C   UNL     1     -10.520   8.975  67.632  1.00  0.00    -0.324 A  
HETATM   18  C   UNL     1      -9.377   8.626  68.354  1.00  0.00    -0.141 A  
HETATM   19  C   UNL     1      -9.960  10.235  70.042  1.00  0.00    -0.123 A  
HETATM   20  C   UNL     1     -11.410   9.915  68.141  1.00  0.00    -0.027 A  
HETATM   21  C   UNL     1     -11.112  10.570  69.330  1.00  0.00    -0.310 A  
ENDBRANCH   5  16
ENDBRANCH   2   5
BRANCH   4  22
HETATM   22  C   UNL     2      -7.482  12.258  68.655  1.00  0.00    -0.100 A  
HETATM   23  C   UNL     2      -7.666  11.503  67.514  1.00  0.00    -0.132 A  
HETATM   24  C   UNL     2      -9.542  13.528  68.184  1.00  0.00    -0.215 A  
HETATM   25  C   UNL     2     -11.564  14.696  67.551  1.00  0.00    -0.396 A  
HETATM   26  C   UNL     2      -8.779  11.759  66.708  1.00  0.00    -0.192 A  
HETATM   27  C   UNL     2     -11.611  13.891  66.425  1.00  0.00    -0.367 A  
HETATM   28  C   UNL     2      -8.445  13.196  69.010  1.00  0.00     0.425 A  
HETATM   29  C   UNL     2     -10.509  14.549  68.465  1.00  0.00    -0.250 A  
HETATM   30  C   UNL     2      -9.691  12.770  66.996  1.00  0.00    -0.224 A  
HETATM   31  N   UNL     2     -10.695  12.952  66.133  1.00  0.00    -0.269 NA 
BRANCH  29  32
HETATM   32  C   UNL     2     -10.495  15.397  69.753  1.00  0.00    -0.293 C  
HETATM   33  H   UNL     2     -10.122  17.274  70.274  1.00  0.00     0.000 HD 
HETATM   34  O   UNL     2     -10.130  16.752  69.480  1.00  0.00    -0.210 OA 
BRANCH  32  35
HETATM   35  C   UNL     2     -11.826  15.445  70.590  1.00  0.00    -0.351 C  
HETATM   36  C   UNL     2     -12.696  14.054  72.513  1.00  0.00    -0.323 C  
HETATM   37  C   UNL     2     -14.051  14.730  72.238  1.00  0.00    -0.587 C  
HETATM   38  C   UNL     2     -14.199  14.998  70.732  1.00  0.00     0.187 C  
HETATM   39  C   UNL     2     -11.605  15.047  72.073  1.00  0.00    -0.419 C  
HETATM   40  N   UNL     2     -12.959  14.654  69.996  1.00  0.00    -0.059 NA 
HETATM   41  C   UNL     2     -12.762  13.188  70.155  1.00  0.00     0.127 C  
HETATM   42  C   UNL     2     -12.538  12.786  71.636  1.00  0.00    -0.195 C  
BRANCH  42  43
HETATM   43  C   UNL     2     -13.476  11.678  72.056  1.00  0.00    -0.304 C  
HETATM   44  C   UNL     2     -13.224  10.371  71.905  1.00  0.00    -0.535 C  
ENDBRANCH  42  43
ENDBRANCH  32  35
ENDBRANCH  29  32
ENDBRANCH   4  22
TORSDOF 6
ENDMDL
MODEL      180
REMARK 921   NORMALIZED FREE ENERGY PREDICTED BY IDOCK:   -3.05 KCAL/MOL
REMARK 922        TOTAL FREE ENERGY PREDICTED BY IDOCK:   -7.20 KCAL/MOL
REMARK 923 INTER-LIGAND FREE ENERGY PREDICTED BY IDOCK:   -6.54 KCAL/MOL
REMARK 924 INTRA-LIGAND FREE ENERGY PREDICTED BY IDOCK:   -0.66 KCAL/MOL
REMARK 927      BINDING AFFINITY PREDICTED BY RF-SCORE:    0.00 PKD
ROOT
HETATM    1  C   UNL     1      -5.749   7.001  67.751  1.00  0.00    -0.024 C  
HETATM    2  C   UNL     1      -6.512   6.251  68.840  1.00  0.00    -0.043 C  
HETATM    3  C   UNL     2      -6.569  10.309  68.396  1.00  0.00    -0.056 C  
HETATM    4  O   UNL     2      -6.849   9.336  69.389  1.00  0.00    -0.047 OA 
ENDROOT
BRANCH   2   5
HETATM    5  C   UNL     1      -7.874   5.594  68.432  1.00  0.00    -0.092 C  
HETATM    6  O   UNL     1      -8.951   5.612  70.650  1.00  0.00    -0.142 OA 
HETATM    7  C   UNL     1      -7.453   4.481  67.456  1.00  0.00    -0.074 C  
HETATM    8  C   UNL     1      -8.528   4.966  69.687  1.00  0.00    -0.083 C  
HETATM    9  H   UNL     1      -9.387   3.208  70.306  1.00  0.00     0.000 HD 
HETATM   10  N   UNL     1      -7.111   3.289  68.031  1.00  0.00    -0.050 N  
HETATM   11  O   UNL     1      -7.330   4.628  66.246  1.00  0.00    -0.078 OA 
HETATM   12  O   UNL     1      -8.098   1.520  69.012  1.00  0.00    -0.045 OA 
HETATM   13  N   UNL     1      -8.679   3.603  69.686  1.00  0.00    -0.070 N  
HETATM   14  C   UNL     1      -7.963   2.738  68.926  1.00  0.00    -0.052 C  
HETATM   15  H   UNL     1      -6.235   2.826  67.792  1.00  0.00     0.000 HD 
BRANCH   5  16
HETATM   16  C   UNL     1      -8.817   6.621  67.770  1.00  0.00    -0.114 A  
HETATM   17  C   UNL     1      -9.139   8.628  66.422  1.00  0.00    -0.218 A  
HETATM   18  C   UNL     1      -8.341   7.842  67.258  1.00  0.00    -0.122 A  
HETATM   19  C   UNL     1     -10.171   6.312  67.555  1.00  0.00    -0.213 A  
HETATM   20  C   UNL     1     -10.434   8.226  66.112  1.00  0.00     0.684 A  
HETATM   21  C   UNL     1     -10.961   7.086  66.705  1.00  0.00    -0.123 A  
ENDBRANCH   5  16
ENDBRANCH   2   5
BRANCH   4  22
HETATM   22  C   UNL     2      -8.052   9.433  70.017  1.00  0.00    -0.152 A  
HETATM   23  C   UNL     2      -8.401   8.860  71.223  1.00  0.00    -0.223 A  
HETATM   24  C   UNL     2     -10.287  10.457  69.822  1.00  0.00    -0.252 A  
HETATM   25  C   UNL     2     -12.533  11.354  69.776  1.00  0.00    -0.161 A  
HETATM   26  C   UNL     2      -9.686   9.079  71.728  1.00  0.00    -0.311 A  
HETATM   27  C   UNL     2     -12.762  10.697  70.973  1.00  0.00    -0.415 A  
HETATM   28  C   UNL     2      -8.959  10.272  69.378  1.00  0.00    -0.190 A  
HETATM   29  C   UNL     2     -11.282  11.239  69.149  1.00  0.00    -0.337 A  
HETATM   30  C   UNL     2     -10.639   9.827  71.042  1.00  0.00    -0.225 A  
HETATM   31  N   UNL     2     -11.848   9.936  71.600  1.00  0.00    -0.359 NA 
BRANCH  29  32
HETATM   32  C   UNL     2     -11.006  12.027  67.852  1.00  0.00    -0.220 C  
HETATM   33  H   UNL     2     -11.936  12.420  66.145  1.00  0.00     0.000 HD 
HETATM   34  O   UNL     2     -12.106  11.935  66.944  1.00  0.00    -0.599 OA 
BRANCH  32  35
HETATM   35  C   UNL     2     -10.669  13.556  68.003  1.00  0.00    -0.251 C  
HETATM   36  C   UNL     2     -10.132  15.006  70.002  1.00  0.00    -0.016 C  
HETATM   37  C   UNL     2     -10.343  16.196  69.050  1.00  0.00    -0.258 C  
HETATM   38  C   UNL     2     -11.434  15.851  68.024  1.00  0.00    -0.236 C  
HETATM   39  C   UNL     2      -9.649  13.825  69.140  1.00  0.00     0.302 C  
HETATM   40  N   UNL     2     -11.875  14.442  68.157  1.00  0.00    -0.336 NA 
HETATM   41  C   UNL     2     -12.495  14.314  69.503  1.00  0.00    -0.128 C  
HETATM   42  C   UNL     2     -11.478  14.582  70.643  1.00  0.00    -0.216 C  
BRANCH  42  43
HETATM   43  C   UNL     2     -11.998  15.612  71.619  1.00  0.00    -0.503 C  
HETATM   44  C   UNL     2     -12.531  15.324  72.815  1.00  0.00    -0.490 C  
ENDBRANCH  42  43
ENDBRANCH  32  35
ENDBRANCH  29  32
ENDBRANCH   4  22
TORSDOF 6
ENDMDL
MODEL      181
REMARK 921   NORMALIZED FREE ENERGY PREDICTED BY IDOCK:   -3.03 KCAL/MOL
REMARK 922        TOTAL FREE ENERGY PREDICTED BY IDOCK:   -7.17 KCAL/MOL
REMARK 923 INTER-LIGAND FREE ENERGY PREDICTED BY IDOCK:   -3.82 KCAL/MOL
REMARK 924 INTRA-LIGAND FREE ENERGY PREDICTED BY IDOCK:   -3.35 KCAL/MOL
REMARK 927      BINDING AFFINITY PREDICTED BY RF-SCORE:    0.00 PKD
ROOT
HETATM    1  C   UNL     1      -9.558   9.107  71.007  1.00  0.00    -0.350 C  
HETATM    2  C   UNL     1      -8.705   8.263  71.952  1.00  0.00    -0.230 C  
HETATM    3  C   UNL     2     -11.273   6.703  69.188  1.00  0.00    -0.242 C  
HETATM    4  O   UNL     2     -10.605   6.306  70.374  1.00  0.00    -0.221 OA 
ENDROOT
BRANCH   2   5
HETATM    5  C   UNL     1      -7.206   8.044  71.554  1.00  0.00    -0.071 C  
HETATM    6  O   UNL     1      -6.169   8.835  73.646  1.00  0.00    -0.183 OA 
HETATM    7  C   UNL     1      -7.154   8.515  70.090  1.00  0.00    -0.043 C  
HETATM    8  C   UNL     1      -6.312   8.959  72.427  1.00  0.00     0.009 C  
HETATM    9  H   UNL     1      -4.783  10.313  72.240  1.00  0.00     0.000 HD 
HETATM   10  N   UNL     1      -6.952   9.854  69.907  1.00  0.00    -0.088 N  
HETATM   11  O   UNL     1      -7.363   7.795  69.121  1.00  0.00    -0.083 OA 
HETATM   12  O   UNL     1      -5.290  11.366  70.044  1.00  0.00    -0.061 OA 
HETATM   13  N   UNL     1      -5.608   9.938  71.773  1.00  0.00    -0.019 N  
HETATM   14  C   UNL     1      -5.922  10.445  70.556  1.00  0.00    -0.113 C  
HETATM   15  H   UNL     1      -7.563  10.396  69.296  1.00  0.00     0.000 HD 
BRANCH   5  16
HETATM   16  C   UNL     1      -6.796   6.563  71.702  1.00  0.00    -0.067 A  
HETATM   17  C   UNL     1      -5.176   4.776  71.345  1.00  0.00    -0.004 A  
HETATM   18  C   UNL     1      -5.706   6.021  70.997  1.00  0.00    -0.018 A  
HETATM   19  C   UNL     1      -7.435   5.736  72.642  1.00  0.00    -0.096 A  
HETATM   20  C   UNL     1      -5.744   4.037  72.377  1.00  0.00    -0.008 A  
HETATM   21  C   UNL     1      -6.895   4.502  73.002  1.00  0.00    -0.062 A  
ENDBRANCH   5  16
ENDBRANCH   2   5
BRANCH   4  22
HETATM   22  C   UNL     2      -9.911   5.137  70.322  1.00  0.00    -0.250 A  
HETATM   23  C   UNL     2     -10.129   4.013  71.094  1.00  0.00    -0.112 A  
HETATM   24  C   UNL     2      -8.070   4.003  69.137  1.00  0.00    -0.068 A  
HETATM   25  C   UNL     2      -6.273   2.755  68.104  1.00  0.00    -0.028 A  
HETATM   26  C   UNL     2      -9.322   2.890  70.894  1.00  0.00    -0.220 A  
HETATM   27  C   UNL     2      -6.576   1.713  68.964  1.00  0.00    -0.029 A  
HETATM   28  C   UNL     2      -8.949   5.094  69.319  1.00  0.00    -0.126 A  
HETATM   29  C   UNL     2      -7.007   3.950  68.177  1.00  0.00    -0.051 A  
HETATM   30  C   UNL     2      -8.283   2.875  69.967  1.00  0.00    -0.044 A  
HETATM   31  N   UNL     2      -7.550   1.760  69.889  1.00  0.00    -0.042 NA 
BRANCH  29  32
HETATM   32  C   UNL     2      -6.714   5.083  67.173  1.00  0.00    -0.055 C  
HETATM   33  H   UNL     2      -5.216   6.307  66.732  1.00  0.00     0.000 HD 
HETATM   34  O   UNL     2      -5.396   5.608  67.351  1.00  0.00    -0.004 OA 
BRANCH  32  35
HETATM   35  C   UNL     2      -6.864   4.741  65.645  1.00  0.00    -0.061 C  
HETATM   36  C   UNL     2      -6.241   5.990  63.538  1.00  0.00    -0.025 C  
HETATM   37  C   UNL     2      -7.110   4.953  62.805  1.00  0.00    -0.038 C  
HETATM   38  C   UNL     2      -8.288   4.539  63.700  1.00  0.00    -0.109 C  
HETATM   39  C   UNL     2      -5.690   5.299  64.799  1.00  0.00    -0.017 C  
HETATM   40  N   UNL     2      -8.183   5.147  65.048  1.00  0.00    -0.124 NA 
HETATM   41  C   UNL     2      -8.283   6.620  64.860  1.00  0.00    -0.085 C  
HETATM   42  C   UNL     2      -7.110   7.181  64.015  1.00  0.00    -0.064 C  
BRANCH  42  43
HETATM   43  C   UNL     2      -7.611   8.023  62.863  1.00  0.00    -0.127 C  
HETATM   44  C   UNL     2      -8.508   9.011  62.978  1.00  0.00    -0.190 C  
ENDBRANCH  42  43
ENDBRANCH  32  35
ENDBRANCH  29  32
ENDBRANCH   4  22
TORSDOF 6
ENDMDL
MODEL      182
REMARK 921   NORMALIZED FREE ENERGY PREDICTED BY IDOCK:   -3.01 KCAL/MOL
REMARK 922        TOTAL FREE ENERGY PREDICTED BY IDOCK:   -7.15 KCAL/MOL
REMARK 923 INTER-LIGAND FREE ENERGY PREDICTED BY IDOCK:   -5.73 KCAL/MOL
REMARK 924 INTRA-LIGAND FREE ENERGY PREDICTED BY IDOCK:   -1.41 KCAL/MOL
REMARK 927      BINDING AFFINITY PREDICTED BY RF-SCORE:    0.00 PKD
ROOT
HETATM    1  C   UNL     1      -8.736   9.775  69.751  1.00  0.00    -0.228 C  
HETATM    2  C   UNL     1      -9.514  10.869  69.025  1.00  0.00    -0.160 C  
HETATM    3  C   UNL     2      -5.723  11.338  70.465  1.00  0.00    -0.143 C  
HETATM    4  O   UNL     2      -6.822  12.138  70.059  1.00  0.00     0.142 OA 
ENDROOT
BRANCH   2   5
HETATM    5  C   UNL     1      -9.546  10.801  67.460  1.00  0.00    -0.176 C  
HETATM    6  O   UNL     1      -7.121  10.984  67.052  1.00  0.00    -0.103 OA 
HETATM    7  C   UNL     1     -10.761  11.670  67.091  1.00  0.00    -0.247 C  
HETATM    8  C   UNL     1      -8.255  11.447  66.900  1.00  0.00    -0.157 C  
HETATM    9  H   UNL     1      -7.660  12.827  65.504  1.00  0.00     0.000 HD 
HETATM   10  N   UNL     1     -10.516  13.010  66.975  1.00  0.00    -0.246 N  
HETATM   11  O   UNL     1     -11.908  11.252  66.985  1.00  0.00    -0.484 OA 
HETATM   12  O   UNL     1      -9.543  14.451  65.546  1.00  0.00    -0.233 OA 
HETATM   13  N   UNL     1      -8.411  12.584  66.149  1.00  0.00     0.411 N  
HETATM   14  C   UNL     1      -9.484  13.411  66.197  1.00  0.00    -0.140 C  
HETATM   15  H   UNL     1     -11.097  13.691  67.463  1.00  0.00     0.000 HD 
BRANCH   5  16
HETATM   16  C   UNL     1      -9.700   9.347  66.964  1.00  0.00    -0.233 A  
HETATM   17  C   UNL     1      -8.886   7.476  65.629  1.00  0.00    -0.072 A  
HETATM   18  C   UNL     1      -8.946   8.848  65.886  1.00  0.00    -0.244 A  
HETATM   19  C   UNL     1     -10.521   8.440  67.656  1.00  0.00    -0.307 A  
HETATM   20  C   UNL     1      -9.601   6.584  66.421  1.00  0.00    -0.151 A  
HETATM   21  C   UNL     1     -10.445   7.069  67.412  1.00  0.00    -0.343 A  
ENDBRANCH   5  16
ENDBRANCH   2   5
BRANCH   4  22
HETATM   22  C   UNL     2      -6.557  13.131  69.169  1.00  0.00    -0.104 A  
HETATM   23  C   UNL     2      -5.539  13.155  68.237  1.00  0.00    -0.085 A  
HETATM   24  C   UNL     2      -7.359  15.330  68.392  1.00  0.00    -0.114 A  
HETATM   25  C   UNL     2      -7.986  17.502  67.531  1.00  0.00    -0.210 A  
HETATM   26  C   UNL     2      -5.426  14.259  67.389  1.00  0.00     0.376 A  
HETATM   27  C   UNL     2      -6.906  17.412  66.669  1.00  0.00    -0.233 A  
HETATM   28  C   UNL     2      -7.485  14.168  69.185  1.00  0.00    -0.037 A  
HETATM   29  C   UNL     2      -8.238  16.462  68.439  1.00  0.00    -0.190 A  
HETATM   30  C   UNL     2      -6.282  15.353  67.470  1.00  0.00    -0.091 A  
HETATM   31  N   UNL     2      -6.056  16.372  66.635  1.00  0.00    -0.268 NA 
BRANCH  29  32
HETATM   32  C   UNL     2      -9.481  16.532  69.349  1.00  0.00    -0.068 C  
HETATM   33  H   UNL     2     -10.996  17.769  69.676  1.00  0.00     0.000 HD 
HETATM   34  O   UNL     2     -10.231  17.726  69.115  1.00  0.00    -0.346 OA 
BRANCH  32  35
HETATM   35  C   UNL     2     -10.497  15.334  69.263  1.00  0.00    -0.258 C  
HETATM   36  C   UNL     2     -12.997  15.177  69.600  1.00  0.00     0.291 C  
HETATM   37  C   UNL     2     -12.783  13.653  69.618  1.00  0.00     0.223 C  
HETATM   38  C   UNL     2     -11.422  13.330  70.253  1.00  0.00     0.123 C  
HETATM   39  C   UNL     2     -11.883  15.774  68.722  1.00  0.00    -0.321 C  
HETATM   40  N   UNL     2     -10.654  14.563  70.546  1.00  0.00     0.349 NA 
HETATM   41  C   UNL     2     -11.433  15.320  71.561  1.00  0.00    -0.396 C  
HETATM   42  C   UNL     2     -12.819  15.764  71.024  1.00  0.00    -0.425 C  
BRANCH  42  43
HETATM   43  C   UNL     2     -13.933  15.351  71.958  1.00  0.00    -0.640 C  
HETATM   44  C   UNL     2     -13.760  14.640  73.080  1.00  0.00    -0.197 C  
ENDBRANCH  42  43
ENDBRANCH  32  35
ENDBRANCH  29  32
ENDBRANCH   4  22
TORSDOF 6
ENDMDL
MODEL      183
REMARK 921   NORMALIZED FREE ENERGY PREDICTED BY IDOCK:   -3.00 KCAL/MOL
REMARK 922        TOTAL FREE ENERGY PREDICTED BY IDOCK:   -7.14 KCAL/MOL
REMARK 923 INTER-LIGAND FREE ENERGY PREDICTED BY IDOCK:   -6.98 KCAL/MOL
REMARK 924 INTRA-LIGAND FREE ENERGY PREDICTED BY IDOCK:   -0.15 KCAL/MOL
REMARK 927      BINDING AFFINITY PREDICTED BY RF-SCORE:    0.00 PKD
ROOT
HETATM    1  C   UNL     1      -6.673   8.652  67.312  1.00  0.00    -0.063 C  
HETATM    2  C   UNL     1      -7.616   9.538  68.123  1.00  0.00    -0.079 C  
HETATM    3  C   UNL     2      -7.328   9.639  64.052  1.00  0.00    -0.121 C  
HETATM    4  O   UNL     2      -7.796  10.455  65.114  1.00  0.00    -0.148 OA 
ENDROOT
BRANCH   2   5
HETATM    5  C   UNL     1      -8.961   8.894  68.603  1.00  0.00    -0.137 C  
HETATM    6  O   UNL     1      -9.814   8.183  66.402  1.00  0.00    -0.236 OA 
HETATM    7  C   UNL     1      -9.461   9.875  69.678  1.00  0.00    -0.231 C  
HETATM    8  C   UNL     1      -9.959   8.867  67.419  1.00  0.00    -0.209 C  
HETATM    9  H   UNL     1     -11.897   9.372  66.978  1.00  0.00     0.000 HD 
HETATM   10  N   UNL     1     -10.193  10.934  69.217  1.00  0.00    -0.351 N  
HETATM   11  O   UNL     1      -9.176   9.808  70.868  1.00  0.00    -0.108 OA 
HETATM   12  O   UNL     1     -12.252  11.369  68.418  1.00  0.00    -0.571 OA 
HETATM   13  N   UNL     1     -11.094   9.626  67.552  1.00  0.00    -0.105 N  
HETATM   14  C   UNL     1     -11.231  10.686  68.385  1.00  0.00    -0.288 C  
HETATM   15  H   UNL     1      -9.963  11.889  69.493  1.00  0.00     0.000 HD 
BRANCH   5  16
HETATM   16  C   UNL     1      -8.735   7.477  69.171  1.00  0.00    -0.136 A  
HETATM   17  C   UNL     1      -8.098   6.022  71.022  1.00  0.00    -0.121 A  
HETATM   18  C   UNL     1      -8.053   7.264  70.383  1.00  0.00    -0.116 A  
HETATM   19  C   UNL     1      -9.309   6.357  68.545  1.00  0.00    -0.122 A  
HETATM   20  C   UNL     1      -8.794   4.965  70.446  1.00  0.00    -0.135 A  
HETATM   21  C   UNL     1      -9.371   5.123  69.191  1.00  0.00    -0.171 A  
ENDBRANCH   5  16
ENDBRANCH   2   5
BRANCH   4  22
HETATM   22  C   UNL     2      -9.057  10.951  64.992  1.00  0.00    -0.190 A  
HETATM   23  C   UNL     2     -10.190  10.247  64.639  1.00  0.00    -0.204 A  
HETATM   24  C   UNL     2     -10.379  13.019  65.228  1.00  0.00    -0.318 A  
HETATM   25  C   UNL     2     -11.818  14.958  65.377  1.00  0.00    -0.188 A  
HETATM   26  C   UNL     2     -11.412  10.922  64.576  1.00  0.00     0.694 A  
HETATM   27  C   UNL     2     -12.865  14.143  64.981  1.00  0.00    -0.221 A  
HETATM   28  C   UNL     2      -9.174  12.290  65.348  1.00  0.00     0.226 A  
HETATM   29  C   UNL     2     -10.527  14.420  65.498  1.00  0.00    -0.366 A  
HETATM   30  C   UNL     2     -11.523  12.287  64.824  1.00  0.00    -0.329 A  
HETATM   31  N   UNL     2     -12.735  12.836  64.695  1.00  0.00    -0.707 NA 
BRANCH  29  32
HETATM   32  C   UNL     2      -9.377  15.311  66.006  1.00  0.00    -0.311 C  
HETATM   33  H   UNL     2      -8.786  17.196  65.825  1.00  0.00     0.000 HD 
HETATM   34  O   UNL     2      -9.496  16.647  65.512  1.00  0.00    -0.482 OA 
BRANCH  32  35
HETATM   35  C   UNL     2      -9.192  15.419  67.565  1.00  0.00    -0.199 C  
HETATM   36  C   UNL     2     -10.462  14.436  69.516  1.00  0.00    -0.028 C  
HETATM   37  C   UNL     2      -9.671  15.431  70.383  1.00  0.00     0.435 C  
HETATM   38  C   UNL     2      -9.420  16.722  69.590  1.00  0.00     0.343 C  
HETATM   39  C   UNL     2      -9.580  14.108  68.297  1.00  0.00    -0.226 C  
HETATM   40  N   UNL     2      -9.888  16.597  68.189  1.00  0.00    -0.244 NA 
HETATM   41  C   UNL     2     -11.363  16.409  68.248  1.00  0.00    -0.241 C  
HETATM   42  C   UNL     2     -11.756  15.098  68.978  1.00  0.00    -0.358 C  
BRANCH  42  43
HETATM   43  C   UNL     2     -12.766  15.355  70.073  1.00  0.00    -0.189 C  
HETATM   44  C   UNL     2     -13.049  14.497  71.061  1.00  0.00    -0.429 C  
ENDBRANCH  42  43
ENDBRANCH  32  35
ENDBRANCH  29  32
ENDBRANCH   4  22
TORSDOF 6
ENDMDL
MODEL      184
REMARK 921   NORMALIZED FREE ENERGY PREDICTED BY IDOCK:   -2.99 KCAL/MOL
REMARK 922        TOTAL FREE ENERGY PREDICTED BY IDOCK:   -7.12 KCAL/MOL
REMARK 923 INTER-LIGAND FREE ENERGY PREDICTED BY IDOCK:   -7.10 KCAL/MOL
REMARK 924 INTRA-LIGAND FREE ENERGY PREDICTED BY IDOCK:   -0.02 KCAL/MOL
REMARK 927      BINDING AFFINITY PREDICTED BY RF-SCORE:    0.00 PKD
ROOT
HETATM    1  C   UNL     1     -10.141  13.637  68.320  1.00  0.00    -0.240 C  
HETATM    2  C   UNL     1      -9.595  12.212  68.365  1.00  0.00    -0.186 C  
HETATM    3  C   UNL     2     -12.631  13.569  70.734  1.00  0.00    -0.309 C  
HETATM    4  O   UNL     2     -11.692  12.506  70.699  1.00  0.00    -0.086 OA 
ENDROOT
BRANCH   2   5
HETATM    5  C   UNL     1     -10.103  11.220  67.265  1.00  0.00    -0.214 C  
HETATM    6  O   UNL     1      -8.140  11.312  65.776  1.00  0.00    -0.045 OA 
HETATM    7  C   UNL     1     -11.586  11.596  67.104  1.00  0.00    -0.212 C  
HETATM    8  C   UNL     1      -9.348  11.502  65.942  1.00  0.00    -0.226 C  
HETATM    9  H   UNL     1      -9.721  11.814  63.950  1.00  0.00     0.000 HD 
HETATM   10  N   UNL     1     -11.846  12.614  66.230  1.00  0.00    -0.411 N  
HETATM   11  O   UNL     1     -12.502  11.109  67.757  1.00  0.00     0.189 OA 
HETATM   12  O   UNL     1     -11.913  12.986  64.012  1.00  0.00    -0.395 OA 
HETATM   13  N   UNL     1     -10.101  11.947  64.887  1.00  0.00    -0.260 N  
HETATM   14  C   UNL     1     -11.311  12.550  64.990  1.00  0.00    -0.313 C  
HETATM   15  H   UNL     1     -12.429  13.404  66.506  1.00  0.00     0.000 HD 
BRANCH   5  16
HETATM   16  C   UNL     1      -9.921   9.752  67.706  1.00  0.00    -0.206 A  
HETATM   17  C   UNL     1     -10.282   7.371  67.318  1.00  0.00    -0.330 A  
HETATM   18  C   UNL     1     -10.651   8.704  67.115  1.00  0.00    -0.304 A  
HETATM   19  C   UNL     1      -8.929   9.404  68.640  1.00  0.00    -0.132 A  
HETATM   20  C   UNL     1      -9.204   7.061  68.140  1.00  0.00    -0.130 A  
HETATM   21  C   UNL     1      -8.549   8.076  68.827  1.00  0.00    -0.128 A  
ENDBRANCH   5  16
ENDBRANCH   2   5
BRANCH   4  22
HETATM   22  C   UNL     2     -12.186  11.249  70.864  1.00  0.00    -0.356 A  
HETATM   23  C   UNL     2     -13.486  10.839  70.651  1.00  0.00     0.359 A  
HETATM   24  C   UNL     2     -11.533   8.955  71.489  1.00  0.00    -0.391 A  
HETATM   25  C   UNL     2     -11.076   6.661  72.108  1.00  0.00    -0.288 A  
HETATM   26  C   UNL     2     -13.814   9.497  70.860  1.00  0.00     0.094 A  
HETATM   27  C   UNL     2     -12.417   6.393  71.891  1.00  0.00    -0.165 A  
HETATM   28  C   UNL     2     -11.224  10.304  71.202  1.00  0.00    -0.116 A  
HETATM   29  C   UNL     2     -10.592   7.967  71.928  1.00  0.00    -0.285 A  
HETATM   30  C   UNL     2     -12.883   8.564  71.305  1.00  0.00    -0.181 A  
HETATM   31  N   UNL     2     -13.317   7.316  71.509  1.00  0.00    -0.389 NA 
BRANCH  29  32
HETATM   32  C   UNL     2      -9.086   8.249  72.102  1.00  0.00    -0.212 C  
HETATM   33  H   UNL     2      -7.864   8.884  73.530  1.00  0.00     0.000 HD 
HETATM   34  O   UNL     2      -8.792   8.710  73.423  1.00  0.00    -0.297 OA 
BRANCH  32  35
HETATM   35  C   UNL     2      -8.097   7.062  71.805  1.00  0.00    -0.099 C  
HETATM   36  C   UNL     2      -8.398   4.554  71.739  1.00  0.00    -0.108 C  
HETATM   37  C   UNL     2      -6.861   4.486  71.723  1.00  0.00    -0.038 C  
HETATM   38  C   UNL     2      -6.283   5.645  72.549  1.00  0.00    -0.047 C  
HETATM   39  C   UNL     2      -8.793   5.885  71.073  1.00  0.00    -0.141 C  
HETATM   40  N   UNL     2      -7.350   6.564  73.012  1.00  0.00    -0.085 NA 
HETATM   41  C   UNL     2      -8.222   5.779  73.925  1.00  0.00    -0.109 C  
HETATM   42  C   UNL     2      -8.921   4.601  73.197  1.00  0.00    -0.119 C  
BRANCH  42  43
HETATM   43  C   UNL     2      -8.707   3.294  73.926  1.00  0.00    -0.076 C  
HETATM   44  C   UNL     2      -9.623   2.321  74.024  1.00  0.00    -0.111 C  
ENDBRANCH  42  43
ENDBRANCH  32  35
ENDBRANCH  29  32
ENDBRANCH   4  22
TORSDOF 6
ENDMDL
MODEL      185
REMARK 921   NORMALIZED FREE ENERGY PREDICTED BY IDOCK:   -2.99 KCAL/MOL
REMARK 922        TOTAL FREE ENERGY PREDICTED BY IDOCK:   -7.11 KCAL/MOL
REMARK 923 INTER-LIGAND FREE ENERGY PREDICTED BY IDOCK:   -4.89 KCAL/MOL
REMARK 924 INTRA-LIGAND FREE ENERGY PREDICTED BY IDOCK:   -2.22 KCAL/MOL
REMARK 927      BINDING AFFINITY PREDICTED BY RF-SCORE:    0.00 PKD
ROOT
HETATM    1  C   UNL     1      -9.594   8.677  72.053  1.00  0.00    -0.385 C  
HETATM    2  C   UNL     1      -8.450   7.709  72.343  1.00  0.00    -0.151 C  
HETATM    3  C   UNL     2     -11.916   6.646  70.466  1.00  0.00    -0.316 C  
HETATM    4  O   UNL     2     -10.841   6.033  71.158  1.00  0.00    -0.254 OA 
ENDROOT
BRANCH   2   5
HETATM    5  C   UNL     1      -7.230   7.732  71.360  1.00  0.00    -0.063 C  
HETATM    6  O   UNL     1      -5.443   8.062  73.027  1.00  0.00    -0.043 OA 
HETATM    7  C   UNL     1      -7.748   8.559  70.171  1.00  0.00    -0.086 C  
HETATM    8  C   UNL     1      -6.051   8.476  72.036  1.00  0.00    -0.066 C  
HETATM    9  H   UNL     1      -4.695   9.965  71.648  1.00  0.00     0.000 HD 
HETATM   10  N   UNL     1      -7.612   9.914  70.289  1.00  0.00    -0.172 N  
HETATM   11  O   UNL     1      -8.332   8.090  69.200  1.00  0.00    -0.128 OA 
HETATM   12  O   UNL     1      -6.005  11.486  70.178  1.00  0.00    -0.131 OA 
HETATM   13  N   UNL     1      -5.643   9.646  71.449  1.00  0.00    -0.072 N  
HETATM   14  C   UNL     1      -6.401  10.412  70.627  1.00  0.00    -0.063 C  
HETATM   15  H   UNL     1      -8.404  10.535  70.125  1.00  0.00     0.000 HD 
BRANCH   5  16
HETATM   16  C   UNL     1      -6.819   6.305  70.941  1.00  0.00    -0.063 A  
HETATM   17  C   UNL     1      -5.664   4.808  69.400  1.00  0.00    -0.016 A  
HETATM   18  C   UNL     1      -6.286   6.031  69.668  1.00  0.00    -0.030 A  
HETATM   19  C   UNL     1      -6.860   5.249  71.867  1.00  0.00    -0.065 A  
HETATM   20  C   UNL     1      -5.595   3.829  70.385  1.00  0.00    -0.013 A  
HETATM   21  C   UNL     1      -6.222   4.036  71.607  1.00  0.00    -0.014 A  
ENDBRANCH   5  16
ENDBRANCH   2   5
BRANCH   4  22
HETATM   22  C   UNL     2     -10.238   4.981  70.541  1.00  0.00    -0.246 A  
HETATM   23  C   UNL     2      -9.959   3.749  71.096  1.00  0.00    -0.144 A  
HETATM   24  C   UNL     2      -9.283   4.260  68.385  1.00  0.00    -0.190 A  
HETATM   25  C   UNL     2      -8.278   3.402  66.359  1.00  0.00    -0.097 A  
HETATM   26  C   UNL     2      -9.343   2.776  70.305  1.00  0.00    -0.210 A  
HETATM   27  C   UNL     2      -8.027   2.226  67.046  1.00  0.00    -0.071 A  
HETATM   28  C   UNL     2      -9.969   5.195  69.194  1.00  0.00    -0.273 A  
HETATM   29  C   UNL     2      -8.905   4.471  67.018  1.00  0.00    -0.113 A  
HETATM   30  C   UNL     2      -8.969   3.016  68.986  1.00  0.00    -0.124 A  
HETATM   31  N   UNL     2      -8.349   2.026  68.336  1.00  0.00    -0.056 NA 
BRANCH  29  32
HETATM   32  C   UNL     2      -9.246   5.753  66.233  1.00  0.00    -0.158 C  
HETATM   33  H   UNL     2     -10.040   7.534  66.598  1.00  0.00     0.000 HD 
HETATM   34  O   UNL     2      -9.830   6.744  67.082  1.00  0.00    -0.143 OA 
BRANCH  32  35
HETATM   35  C   UNL     2      -8.068   6.454  65.462  1.00  0.00    -0.130 C  
HETATM   36  C   UNL     2      -6.463   8.302  66.093  1.00  0.00    -0.050 C  
HETATM   37  C   UNL     2      -6.104   8.343  64.598  1.00  0.00    -0.064 C  
HETATM   38  C   UNL     2      -7.347   8.012  63.758  1.00  0.00    -0.102 C  
HETATM   39  C   UNL     2      -6.906   6.860  66.406  1.00  0.00    -0.064 C  
HETATM   40  N   UNL     2      -8.492   7.623  64.615  1.00  0.00     0.009 NA 
HETATM   41  C   UNL     2      -8.833   8.814  65.437  1.00  0.00    -0.178 C  
HETATM   42  C   UNL     2      -7.674   9.224  66.383  1.00  0.00    -0.093 C  
BRANCH  42  43
HETATM   43  C   UNL     2      -7.329  10.688  66.236  1.00  0.00    -0.137 C  
HETATM   44  C   UNL     2      -6.321  11.298  66.872  1.00  0.00    -0.125 C  
ENDBRANCH  42  43
ENDBRANCH  32  35
ENDBRANCH  29  32
ENDBRANCH   4  22
TORSDOF 6
ENDMDL
MODEL      186
REMARK 921   NORMALIZED FREE ENERGY PREDICTED BY IDOCK:   -2.97 KCAL/MOL
REMARK 922        TOTAL FREE ENERGY PREDICTED BY IDOCK:   -7.08 KCAL/MOL
REMARK 923 INTER-LIGAND FREE ENERGY PREDICTED BY IDOCK:   -7.31 KCAL/MOL
REMARK 924 INTRA-LIGAND FREE ENERGY PREDICTED BY IDOCK:    0.23 KCAL/MOL
REMARK 927      BINDING AFFINITY PREDICTED BY RF-SCORE:    0.00 PKD
ROOT
HETATM    1  C   UNL     1     -10.253  12.220  65.286  1.00  0.00    -0.305 C  
HETATM    2  C   UNL     1     -11.257  12.002  66.416  1.00  0.00    -0.389 C  
HETATM    3  C   UNL     2      -7.802   9.869  65.992  1.00  0.00    -0.111 C  
HETATM    4  O   UNL     2      -9.052   9.764  66.653  1.00  0.00    -0.143 OA 
ENDROOT
BRANCH   2   5
HETATM    5  C   UNL     1     -11.193  12.995  67.626  1.00  0.00    -0.315 C  
HETATM    6  O   UNL     1     -13.135  14.394  67.036  1.00  0.00     0.832 OA 
HETATM    7  C   UNL     1      -9.687  13.267  67.783  1.00  0.00    -0.217 C  
HETATM    8  C   UNL     1     -11.922  14.306  67.243  1.00  0.00    -0.405 C  
HETATM    9  H   UNL     1     -11.635  16.337  67.274  1.00  0.00     0.000 HD 
HETATM   10  N   UNL     1      -9.183  14.270  67.002  1.00  0.00    -0.229 N  
HETATM   11  O   UNL     1      -8.929  12.602  68.479  1.00  0.00    -0.150 OA 
HETATM   12  O   UNL     1      -9.183  16.518  66.899  1.00  0.00    -0.211 OA 
HETATM   13  N   UNL     1     -11.156  15.442  67.182  1.00  0.00    -0.318 N  
HETATM   14  C   UNL     1      -9.811  15.468  67.009  1.00  0.00    -0.232 C  
HETATM   15  H   UNL     1      -8.354  14.119  66.428  1.00  0.00     0.000 HD 
BRANCH   5  16
HETATM   16  C   UNL     1     -11.805  12.370  68.898  1.00  0.00    -0.350 A  
HETATM   17  C   UNL     1     -12.216  10.420  70.303  1.00  0.00    -0.349 A  
HETATM   18  C   UNL     1     -11.927  10.977  69.055  1.00  0.00    -0.364 A  
HETATM   19  C   UNL     1     -12.157  13.178  69.992  1.00  0.00    -0.375 A  
HETATM   20  C   UNL     1     -12.423  11.242  71.405  1.00  0.00    -0.392 A  
HETATM   21  C   UNL     1     -12.427  12.622  71.242  1.00  0.00    -0.276 A  
ENDBRANCH   5  16
ENDBRANCH   2   5
BRANCH   4  22
HETATM   22  C   UNL     2      -9.017   9.469  67.981  1.00  0.00    -0.123 A  
HETATM   23  C   UNL     2      -8.656  10.321  69.005  1.00  0.00    -0.162 A  
HETATM   24  C   UNL     2      -9.462   7.663  69.599  1.00  0.00    -0.156 A  
HETATM   25  C   UNL     2      -9.815   5.996  71.318  1.00  0.00    -0.211 A  
HETATM   26  C   UNL     2      -8.693   9.849  70.320  1.00  0.00    -0.073 A  
HETATM   27  C   UNL     2      -9.399   6.940  72.241  1.00  0.00    -0.137 A  
HETATM   28  C   UNL     2      -9.480   8.195  68.290  1.00  0.00    -0.148 A  
HETATM   29  C   UNL     2      -9.844   6.327  69.953  1.00  0.00    -0.198 A  
HETATM   30  C   UNL     2      -9.048   8.540  70.632  1.00  0.00    -0.160 A  
HETATM   31  N   UNL     2      -9.009   8.186  71.920  1.00  0.00    -0.149 NA 
BRANCH  29  32
HETATM   32  C   UNL     2     -10.374   5.299  68.933  1.00  0.00    -0.158 C  
HETATM   33  H   UNL     2     -11.310   5.310  67.185  1.00  0.00     0.000 HD 
HETATM   34  O   UNL     2     -10.984   5.943  67.813  1.00  0.00    -0.279 OA 
BRANCH  32  35
HETATM   35  C   UNL     2      -9.336   4.268  68.354  1.00  0.00    -0.153 C  
HETATM   36  C   UNL     2      -7.252   4.536  66.948  1.00  0.00    -0.076 C  
HETATM   37  C   UNL     2      -7.330   3.012  66.749  1.00  0.00    -0.070 C  
HETATM   38  C   UNL     2      -8.801   2.569  66.717  1.00  0.00    -0.131 C  
HETATM   39  C   UNL     2      -7.895   4.841  68.314  1.00  0.00    -0.081 C  
HETATM   40  N   UNL     2      -9.714   3.699  67.013  1.00  0.00    -0.147 NA 
HETATM   41  C   UNL     2      -9.538   4.688  65.916  1.00  0.00    -0.185 C  
HETATM   42  C   UNL     2      -8.099   5.265  65.874  1.00  0.00    -0.110 C  
BRANCH  42  43
HETATM   43  C   UNL     2      -7.496   5.148  64.493  1.00  0.00    -0.072 C  
HETATM   44  C   UNL     2      -6.486   5.902  64.039  1.00  0.00    -0.033 C  
ENDBRANCH  42  43
ENDBRANCH  32  35
ENDBRANCH  29  32
ENDBRANCH   4  22
TORSDOF 6
ENDMDL
MODEL      187
REMARK 921   NORMALIZED FREE ENERGY PREDICTED BY IDOCK:   -2.97 KCAL/MOL
REMARK 922        TOTAL FREE ENERGY PREDICTED BY IDOCK:   -7.08 KCAL/MOL
REMARK 923 INTER-LIGAND FREE ENERGY PREDICTED BY IDOCK:   -6.43 KCAL/MOL
REMARK 924 INTRA-LIGAND FREE ENERGY PREDICTED BY IDOCK:   -0.66 KCAL/MOL
REMARK 927      BINDING AFFINITY PREDICTED BY RF-SCORE:    0.00 PKD
ROOT
HETATM    1  C   UNL     1      -6.979  10.496  66.272  1.00  0.00    -0.128 C  
HETATM    2  C   UNL     1      -8.478  10.788  66.256  1.00  0.00    -0.161 C  
HETATM    3  C   UNL     2      -6.808   7.530  68.063  1.00  0.00    -0.067 C  
HETATM    4  O   UNL     2      -8.071   7.957  67.579  1.00  0.00    -0.120 OA 
ENDROOT
BRANCH   2   5
HETATM    5  C   UNL     1      -9.011  11.831  67.296  1.00  0.00    -0.172 C  
HETATM    6  O   UNL     1      -8.108  10.783  69.337  1.00  0.00    -0.131 OA 
HETATM    7  C   UNL     1     -10.431  12.142  66.792  1.00  0.00    -0.218 C  
HETATM    8  C   UNL     1      -9.089  11.159  68.690  1.00  0.00    -0.166 C  
HETATM    9  H   UNL     1     -10.395  10.918  70.253  1.00  0.00     0.000 HD 
HETATM   10  N   UNL     1     -11.410  11.290  67.222  1.00  0.00    -0.295 N  
HETATM   11  O   UNL     1     -10.705  13.025  65.988  1.00  0.00    -0.270 OA 
HETATM   12  O   UNL     1     -12.590  10.846  69.087  1.00  0.00    -0.361 OA 
HETATM   13  N   UNL     1     -10.338  11.027  69.241  1.00  0.00    -0.193 N  
HETATM   14  C   UNL     1     -11.502  11.031  68.547  1.00  0.00    -0.309 C  
HETATM   15  H   UNL     1     -12.057  10.860  66.561  1.00  0.00     0.000 HD 
BRANCH   5  16
HETATM   16  C   UNL     1      -8.120  13.091  67.336  1.00  0.00    -0.180 A  
HETATM   17  C   UNL     1      -7.900  15.519  67.367  1.00  0.00    -0.213 A  
HETATM   18  C   UNL     1      -8.633  14.371  67.058  1.00  0.00    -0.226 A  
HETATM   19  C   UNL     1      -6.785  13.007  67.768  1.00  0.00    -0.143 A  
HETATM   20  C   UNL     1      -6.631  15.409  67.925  1.00  0.00    -0.169 A  
HETATM   21  C   UNL     1      -6.061  14.153  68.094  1.00  0.00    -0.133 A  
ENDBRANCH   5  16
ENDBRANCH   2   5
BRANCH   4  22
HETATM   22  C   UNL     2      -9.125   7.833  68.430  1.00  0.00    -0.131 A  
HETATM   23  C   UNL     2     -10.453   7.688  68.082  1.00  0.00    -0.233 A  
HETATM   24  C   UNL     2      -9.707   7.711  70.823  1.00  0.00    -0.173 A  
HETATM   25  C   UNL     2     -10.459   7.609  73.121  1.00  0.00    -0.433 A  
HETATM   26  C   UNL     2     -11.406   7.559  69.096  1.00  0.00     0.321 A  
HETATM   27  C   UNL     2     -11.752   7.504  72.636  1.00  0.00    -0.230 A  
HETATM   28  C   UNL     2      -8.765   7.769  69.772  1.00  0.00    -0.139 A  
HETATM   29  C   UNL     2      -9.389   7.734  72.221  1.00  0.00    -0.212 A  
HETATM   30  C   UNL     2     -11.069   7.605  70.446  1.00  0.00    -0.258 A  
HETATM   31  N   UNL     2     -12.068   7.512  71.329  1.00  0.00    -0.314 NA 
BRANCH  29  32
HETATM   32  C   UNL     2      -7.945   7.781  72.760  1.00  0.00    -0.118 C  
HETATM   33  H   UNL     2      -6.873   8.898  74.000  1.00  0.00     0.000 HD 
HETATM   34  O   UNL     2      -7.763   8.869  73.668  1.00  0.00    -0.386 OA 
BRANCH  32  35
HETATM   35  C   UNL     2      -7.411   6.491  73.485  1.00  0.00    -0.081 C  
HETATM   36  C   UNL     2      -5.348   5.068  73.157  1.00  0.00    -0.013 C  
HETATM   37  C   UNL     2      -6.048   4.047  74.071  1.00  0.00    -0.027 C  
HETATM   38  C   UNL     2      -7.566   4.103  73.842  1.00  0.00    -0.080 C  
HETATM   39  C   UNL     2      -5.862   6.460  73.567  1.00  0.00    -0.054 C  
HETATM   40  N   UNL     2      -7.933   5.200  72.915  1.00  0.00    -0.101 NA 
HETATM   41  C   UNL     2      -7.312   4.876  71.603  1.00  0.00    -0.074 C  
HETATM   42  C   UNL     2      -5.764   4.845  71.681  1.00  0.00    -0.012 C  
BRANCH  42  43
HETATM   43  C   UNL     2      -5.206   3.559  71.115  1.00  0.00    -0.004 C  
HETATM   44  C   UNL     2      -5.921   2.444  70.916  1.00  0.00    -0.018 C  
ENDBRANCH  42  43
ENDBRANCH  32  35
ENDBRANCH  29  32
ENDBRANCH   4  22
TORSDOF 6
ENDMDL
MODEL      188
REMARK 921   NORMALIZED FREE ENERGY PREDICTED BY IDOCK:   -2.96 KCAL/MOL
REMARK 922        TOTAL FREE ENERGY PREDICTED BY IDOCK:   -7.08 KCAL/MOL
REMARK 923 INTER-LIGAND FREE ENERGY PREDICTED BY IDOCK:   -6.11 KCAL/MOL
REMARK 924 INTRA-LIGAND FREE ENERGY PREDICTED BY IDOCK:   -0.97 KCAL/MOL
REMARK 927      BINDING AFFINITY PREDICTED BY RF-SCORE:    0.00 PKD
ROOT
HETATM    1  C   UNL     1      -9.951   4.391  66.124  1.00  0.00    -0.256 C  
HETATM    2  C   UNL     1      -9.612   5.473  67.147  1.00  0.00    -0.140 C  
HETATM    3  C   UNL     2      -9.345   1.467  67.889  1.00  0.00    -0.150 C  
HETATM    4  O   UNL     2      -9.432   2.687  68.608  1.00  0.00    -0.189 OA 
ENDROOT
BRANCH   2   5
HETATM    5  C   UNL     1      -8.203   6.147  67.030  1.00  0.00    -0.106 C  
HETATM    6  O   UNL     1      -7.518   5.936  69.389  1.00  0.00    -0.083 OA 
HETATM    7  C   UNL     1      -8.455   7.340  66.092  1.00  0.00    -0.142 C  
HETATM    8  C   UNL     1      -7.773   6.663  68.426  1.00  0.00    -0.105 C  
HETATM    9  H   UNL     1      -7.038   8.355  69.323  1.00  0.00     0.000 HD 
HETATM   10  N   UNL     1      -8.893   8.484  66.697  1.00  0.00    -0.130 N  
HETATM   11  O   UNL     1      -8.370   7.293  64.871  1.00  0.00    -0.111 OA 
HETATM   12  O   UNL     1      -8.093  10.157  67.973  1.00  0.00    -0.110 OA 
HETATM   13  N   UNL     1      -7.628   8.020  68.562  1.00  0.00    -0.102 N  
HETATM   14  C   UNL     1      -8.208   8.951  67.766  1.00  0.00    -0.110 C  
HETATM   15  H   UNL     1      -9.718   8.975  66.351  1.00  0.00     0.000 HD 
BRANCH   5  16
HETATM   16  C   UNL     1      -7.158   5.167  66.455  1.00  0.00    -0.069 A  
HETATM   17  C   UNL     1      -5.430   3.481  66.803  1.00  0.00    -0.017 A  
HETATM   18  C   UNL     1      -6.180   4.564  67.268  1.00  0.00    -0.039 A  
HETATM   19  C   UNL     1      -7.227   4.756  65.113  1.00  0.00    -0.064 A  
HETATM   20  C   UNL     1      -5.618   3.004  65.510  1.00  0.00    -0.017 A  
HETATM   21  C   UNL     1      -6.492   3.663  64.654  1.00  0.00    -0.035 A  
ENDBRANCH   5  16
ENDBRANCH   2   5
BRANCH   4  22
HETATM   22  C   UNL     2      -8.510   2.884  69.589  1.00  0.00    -0.061 A  
HETATM   23  C   UNL     2      -7.257   2.312  69.670  1.00  0.00    -0.043 A  
HETATM   24  C   UNL     2      -8.110   4.131  71.678  1.00  0.00    -0.086 A  
HETATM   25  C   UNL     2      -7.564   5.248  73.754  1.00  0.00    -0.098 A  
HETATM   26  C   UNL     2      -6.433   2.642  70.749  1.00  0.00    -0.024 A  
HETATM   27  C   UNL     2      -6.351   4.581  73.730  1.00  0.00    -0.047 A  
HETATM   28  C   UNL     2      -8.888   3.828  70.538  1.00  0.00    -0.140 A  
HETATM   29  C   UNL     2      -8.497   5.028  72.727  1.00  0.00    -0.116 A  
HETATM   30  C   UNL     2      -6.843   3.502  71.764  1.00  0.00    -0.026 A  
HETATM   31  N   UNL     2      -5.988   3.714  72.769  1.00  0.00    -0.008 NA 
BRANCH  29  32
HETATM   32  C   UNL     2      -9.818   5.823  72.718  1.00  0.00    -0.160 C  
HETATM   33  H   UNL     2     -10.891   6.906  73.986  1.00  0.00     0.000 HD 
HETATM   34  O   UNL     2     -10.077   6.417  73.992  1.00  0.00    -0.245 OA 
BRANCH  32  35
HETATM   35  C   UNL     2      -9.955   6.969  71.648  1.00  0.00    -0.178 C  
HETATM   36  C   UNL     2     -10.784   9.352  71.783  1.00  0.00    -0.190 C  
HETATM   37  C   UNL     2     -10.783   9.317  70.244  1.00  0.00    -0.284 C  
HETATM   38  C   UNL     2     -11.140   7.904  69.759  1.00  0.00    -0.075 C  
HETATM   39  C   UNL     2      -9.693   8.373  72.252  1.00  0.00    -0.386 C  
HETATM   40  N   UNL     2     -11.255   6.955  70.892  1.00  0.00    -0.273 NA 
HETATM   41  C   UNL     2     -12.393   7.423  71.727  1.00  0.00    -0.333 C  
HETATM   42  C   UNL     2     -12.135   8.827  72.333  1.00  0.00    -0.379 C  
BRANCH  42  43
HETATM   43  C   UNL     2     -13.278   9.773  72.047  1.00  0.00    -0.557 C  
HETATM   44  C   UNL     2     -13.167  11.108  72.005  1.00  0.00    -0.428 C  
ENDBRANCH  42  43
ENDBRANCH  32  35
ENDBRANCH  29  32
ENDBRANCH   4  22
TORSDOF 6
ENDMDL
MODEL      189
REMARK 921   NORMALIZED FREE ENERGY PREDICTED BY IDOCK:   -2.96 KCAL/MOL
REMARK 922        TOTAL FREE ENERGY PREDICTED BY IDOCK:   -7.07 KCAL/MOL
REMARK 923 INTER-LIGAND FREE ENERGY PREDICTED BY IDOCK:   -7.64 KCAL/MOL
REMARK 924 INTRA-LIGAND FREE ENERGY PREDICTED BY IDOCK:    0.57 KCAL/MOL
REMARK 927      BINDING AFFINITY PREDICTED BY RF-SCORE:    0.00 PKD
ROOT
HETATM    1  C   UNL     1      -5.783   7.014  67.727  1.00  0.00    -0.024 C  
HETATM    2  C   UNL     1      -6.559   6.251  68.798  1.00  0.00    -0.055 C  
HETATM    3  C   UNL     2      -6.602  10.315  68.408  1.00  0.00    -0.056 C  
HETATM    4  O   UNL     2      -6.895   9.329  69.385  1.00  0.00    -0.047 OA 
ENDROOT
BRANCH   2   5
HETATM    5  C   UNL     1      -7.919   5.603  68.366  1.00  0.00    -0.100 C  
HETATM    6  O   UNL     1      -7.292   4.976  66.065  1.00  0.00    -0.075 OA 
HETATM    7  C   UNL     1      -8.971   6.551  68.967  1.00  0.00    -0.129 C  
HETATM    8  C   UNL     1      -8.020   5.626  66.821  1.00  0.00    -0.102 C  
HETATM    9  H   UNL     1      -9.328   6.163  65.334  1.00  0.00     0.000 HD 
HETATM   10  N   UNL     1      -9.302   7.631  68.198  1.00  0.00    -0.144 N  
HETATM   11  O   UNL     1      -9.445   6.439  70.092  1.00  0.00    -0.159 OA 
HETATM   12  O   UNL     1     -10.493   8.111  66.349  1.00  0.00    -0.154 OA 
HETATM   13  N   UNL     1      -9.024   6.389  66.281  1.00  0.00    -0.154 N  
HETATM   14  C   UNL     1      -9.642   7.421  66.905  1.00  0.00    -0.187 C  
HETATM   15  H   UNL     1      -9.293   8.573  68.588  1.00  0.00     0.000 HD 
BRANCH   5  16
HETATM   16  C   UNL     1      -8.053   4.165  68.911  1.00  0.00    -0.074 A  
HETATM   17  C   UNL     1      -7.495   2.481  70.583  1.00  0.00    -0.036 A  
HETATM   18  C   UNL     1      -7.194   3.666  69.906  1.00  0.00    -0.042 A  
HETATM   19  C   UNL     1      -9.120   3.345  68.505  1.00  0.00    -0.206 A  
HETATM   20  C   UNL     1      -8.637   1.759  70.256  1.00  0.00    -0.092 A  
HETATM   21  C   UNL     1      -9.431   2.173  69.194  1.00  0.00    -0.143 A  
ENDBRANCH   5  16
ENDBRANCH   2   5
BRANCH   4  22
HETATM   22  C   UNL     2      -8.104   9.421  70.002  1.00  0.00    -0.152 A  
HETATM   23  C   UNL     2      -8.467   8.833  71.197  1.00  0.00    -0.233 A  
HETATM   24  C   UNL     2     -10.334  10.453  69.798  1.00  0.00    -0.252 A  
HETATM   25  C   UNL     2     -12.578  11.356  69.739  1.00  0.00    -0.054 A  
HETATM   26  C   UNL     2      -9.756   9.048  71.691  1.00  0.00    -0.347 A  
HETATM   27  C   UNL     2     -12.820  10.684  70.926  1.00  0.00    -0.382 A  
HETATM   28  C   UNL     2      -9.002  10.270  69.364  1.00  0.00    -0.190 A  
HETATM   29  C   UNL     2     -11.320  11.246  69.124  1.00  0.00    -0.349 A  
HETATM   30  C   UNL     2     -10.700   9.807  71.005  1.00  0.00    -0.272 A  
HETATM   31  N   UNL     2     -11.915   9.912  71.552  1.00  0.00    -0.396 NA 
BRANCH  29  32
HETATM   32  C   UNL     2     -11.030  12.050  67.841  1.00  0.00    -0.220 C  
HETATM   33  H   UNL     2     -11.950  12.487  66.139  1.00  0.00     0.000 HD 
HETATM   34  O   UNL     2     -12.129  11.992  66.930  1.00  0.00    -0.608 OA 
BRANCH  32  35
HETATM   35  C   UNL     2     -10.667  13.570  68.017  1.00  0.00    -0.251 C  
HETATM   36  C   UNL     2     -10.086  14.973  70.038  1.00  0.00    -0.016 C  
HETATM   37  C   UNL     2     -10.288  16.185  69.111  1.00  0.00    -0.259 C  
HETATM   38  C   UNL     2     -11.394  15.876  68.090  1.00  0.00    -0.311 C  
HETATM   39  C   UNL     2      -9.631  13.802  69.149  1.00  0.00     0.302 C  
HETATM   40  N   UNL     2     -11.856  14.472  68.200  1.00  0.00    -0.329 NA 
HETATM   41  C   UNL     2     -12.465  14.329  69.550  1.00  0.00    -0.128 C  
HETATM   42  C   UNL     2     -11.432  14.558  70.684  1.00  0.00    -0.216 C  
BRANCH  42  43
HETATM   43  C   UNL     2     -11.926  15.577  71.685  1.00  0.00    -0.478 C  
HETATM   44  C   UNL     2     -12.120  15.330  72.988  1.00  0.00    -0.523 C  
ENDBRANCH  42  43
ENDBRANCH  32  35
ENDBRANCH  29  32
ENDBRANCH   4  22
TORSDOF 6
ENDMDL
MODEL      190
REMARK 921   NORMALIZED FREE ENERGY PREDICTED BY IDOCK:   -2.94 KCAL/MOL
REMARK 922        TOTAL FREE ENERGY PREDICTED BY IDOCK:   -7.05 KCAL/MOL
REMARK 923 INTER-LIGAND FREE ENERGY PREDICTED BY IDOCK:   -5.56 KCAL/MOL
REMARK 924 INTRA-LIGAND FREE ENERGY PREDICTED BY IDOCK:   -1.50 KCAL/MOL
REMARK 927      BINDING AFFINITY PREDICTED BY RF-SCORE:    0.00 PKD
ROOT
HETATM    1  C   UNL     1      -9.426  12.111  65.122  1.00  0.00     0.049 C  
HETATM    2  C   UNL     1     -10.059  11.206  66.176  1.00  0.00    -0.284 C  
HETATM    3  C   UNL     2      -6.423  10.509  64.456  1.00  0.00     0.035 C  
HETATM    4  O   UNL     2      -7.425   9.801  65.168  1.00  0.00    -0.110 OA 
ENDROOT
BRANCH   2   5
HETATM    5  C   UNL     1      -9.928  11.655  67.671  1.00  0.00    -0.201 C  
HETATM    6  O   UNL     1      -7.489  12.013  67.717  1.00  0.00    -0.104 OA 
HETATM    7  C   UNL     1     -10.883  10.705  68.413  1.00  0.00    -0.237 C  
HETATM    8  C   UNL     1      -8.475  11.409  68.147  1.00  0.00    -0.152 C  
HETATM    9  H   UNL     1      -7.449  10.548  69.701  1.00  0.00     0.000 HD 
HETATM   10  N   UNL     1     -10.350   9.501  68.783  1.00  0.00    -0.202 N  
HETATM   11  O   UNL     1     -12.073  10.925  68.605  1.00  0.00    -0.527 OA 
HETATM   12  O   UNL     1      -8.941   8.657  70.321  1.00  0.00    -0.141 OA 
HETATM   13  N   UNL     1      -8.302  10.485  69.146  1.00  0.00    -0.153 N  
HETATM   14  C   UNL     1      -9.176   9.496  69.455  1.00  0.00    -0.176 C  
HETATM   15  H   UNL     1     -10.826   8.628  68.558  1.00  0.00     0.000 HD 
BRANCH   5  16
HETATM   16  C   UNL     1     -10.327  13.136  67.850  1.00  0.00    -0.232 A  
HETATM   17  C   UNL     1      -9.752  15.411  68.511  1.00  0.00    -0.204 A  
HETATM   18  C   UNL     1      -9.535  14.033  68.589  1.00  0.00    -0.142 A  
HETATM   19  C   UNL     1     -11.445  13.660  67.178  1.00  0.00    -0.367 A  
HETATM   20  C   UNL     1     -10.782  15.914  67.724  1.00  0.00    -0.320 A  
HETATM   21  C   UNL     1     -11.649  15.036  67.084  1.00  0.00    -0.271 A  
ENDBRANCH   5  16
ENDBRANCH   2   5
BRANCH   4  22
HETATM   22  C   UNL     2      -7.011   9.065  66.235  1.00  0.00    -0.079 A  
HETATM   23  C   UNL     2      -5.931   9.330  67.051  1.00  0.00    -0.056 A  
HETATM   24  C   UNL     2      -7.559   7.059  67.561  1.00  0.00    -0.109 A  
HETATM   25  C   UNL     2      -7.930   5.111  68.947  1.00  0.00    -0.085 A  
HETATM   26  C   UNL     2      -5.661   8.466  68.115  1.00  0.00    -0.035 A  
HETATM   27  C   UNL     2      -6.803   5.475  69.664  1.00  0.00    -0.060 A  
HETATM   28  C   UNL     2      -7.843   7.992  66.538  1.00  0.00    -0.097 A  
HETATM   29  C   UNL     2      -8.337   5.890  67.852  1.00  0.00    -0.111 A  
HETATM   30  C   UNL     2      -6.421   7.327  68.362  1.00  0.00    -0.044 A  
HETATM   31  N   UNL     2      -6.047   6.550  69.383  1.00  0.00    -0.022 NA 
BRANCH  29  32
HETATM   32  C   UNL     2      -9.631   5.524  67.098  1.00  0.00    -0.134 C  
HETATM   33  H   UNL     2     -11.493   6.193  66.961  1.00  0.00     0.000 HD 
HETATM   34  O   UNL     2     -10.696   6.419  67.425  1.00  0.00    -0.249 OA 
BRANCH  32  35
HETATM   35  C   UNL     2      -9.551   5.470  65.527  1.00  0.00     0.125 C  
HETATM   36  C   UNL     2     -10.181   3.700  63.837  1.00  0.00    -0.229 C  
HETATM   37  C   UNL     2      -9.392   4.550  62.825  1.00  0.00    -0.096 C  
HETATM   38  C   UNL     2      -8.207   5.226  63.531  1.00  0.00    -0.122 C  
HETATM   39  C   UNL     2     -10.723   4.667  64.905  1.00  0.00     0.073 C  
HETATM   40  N   UNL     2      -8.234   4.979  64.992  1.00  0.00    -0.126 NA 
HETATM   41  C   UNL     2      -8.066   3.513  65.179  1.00  0.00    -0.093 C  
HETATM   42  C   UNL     2      -9.236   2.706  64.560  1.00  0.00    -0.134 C  
BRANCH  42  43
HETATM   43  C   UNL     2      -8.734   1.619  63.638  1.00  0.00    -0.084 C  
HETATM   44  C   UNL     2      -7.470   1.515  63.205  1.00  0.00    -0.048 C  
ENDBRANCH  42  43
ENDBRANCH  32  35
ENDBRANCH  29  32
ENDBRANCH   4  22
TORSDOF 6
ENDMDL
MODEL      191
REMARK 921   NORMALIZED FREE ENERGY PREDICTED BY IDOCK:   -2.92 KCAL/MOL
REMARK 922        TOTAL FREE ENERGY PREDICTED BY IDOCK:   -7.03 KCAL/MOL
REMARK 923 INTER-LIGAND FREE ENERGY PREDICTED BY IDOCK:   -7.71 KCAL/MOL
REMARK 924 INTRA-LIGAND FREE ENERGY PREDICTED BY IDOCK:    0.68 KCAL/MOL
REMARK 927      BINDING AFFINITY PREDICTED BY RF-SCORE:    0.00 PKD
ROOT
HETATM    1  C   UNL     1      -9.029   6.920  68.259  1.00  0.00    -0.124 C  
HETATM    2  C   UNL     1      -8.431   6.901  69.664  1.00  0.00    -0.133 C  
HETATM    3  C   UNL     2      -7.280   9.495  66.729  1.00  0.00    -0.086 C  
HETATM    4  O   UNL     2      -6.788   8.977  67.954  1.00  0.00    -0.068 OA 
ENDROOT
BRANCH   2   5
HETATM    5  C   UNL     1      -9.246   7.614  70.795  1.00  0.00    -0.157 C  
HETATM    6  O   UNL     1     -11.435   6.561  70.367  1.00  0.00    -0.352 OA 
HETATM    7  C   UNL     1      -8.729   9.062  70.747  1.00  0.00    -0.224 C  
HETATM    8  C   UNL     1     -10.751   7.587  70.427  1.00  0.00    -0.239 C  
HETATM    9  H   UNL     1     -12.366   8.844  70.300  1.00  0.00     0.000 HD 
HETATM   10  N   UNL     1      -9.354   9.884  69.851  1.00  0.00    -0.280 N  
HETATM   11  O   UNL     1      -7.767   9.478  71.382  1.00  0.00    -0.297 OA 
HETATM   12  O   UNL     1     -11.302  10.985  69.614  1.00  0.00    -0.246 OA 
HETATM   13  N   UNL     1     -11.352   8.799  70.204  1.00  0.00    -0.158 N  
HETATM   14  C   UNL     1     -10.705   9.941  69.864  1.00  0.00    -0.280 C  
HETATM   15  H   UNL     1      -8.814  10.441  69.189  1.00  0.00     0.000 HD 
BRANCH   5  16
HETATM   16  C   UNL     1      -8.998   6.954  72.168  1.00  0.00    -0.138 A  
HETATM   17  C   UNL     1      -9.665   6.589  74.485  1.00  0.00    -0.331 A  
HETATM   18  C   UNL     1      -9.686   7.366  73.324  1.00  0.00    -0.300 A  
HETATM   19  C   UNL     1      -8.154   5.836  72.280  1.00  0.00    -0.107 A  
HETATM   20  C   UNL     1      -8.930   5.409  74.523  1.00  0.00    -0.117 A  
HETATM   21  C   UNL     1      -8.148   5.050  73.432  1.00  0.00    -0.107 A  
ENDBRANCH   5  16
ENDBRANCH   2   5
BRANCH   4  22
HETATM   22  C   UNL     2      -6.345   9.883  68.866  1.00  0.00    -0.041 A  
HETATM   23  C   UNL     2      -5.495   9.638  69.926  1.00  0.00    -0.032 A  
HETATM   24  C   UNL     2      -6.465  12.269  69.474  1.00  0.00    -0.094 A  
HETATM   25  C   UNL     2      -6.497  14.567  70.233  1.00  0.00    -0.144 A  
HETATM   26  C   UNL     2      -5.132  10.699  70.759  1.00  0.00    -0.080 A  
HETATM   27  C   UNL     2      -5.668  14.178  71.272  1.00  0.00    -0.228 A  
HETATM   28  C   UNL     2      -6.754  11.188  68.613  1.00  0.00    -0.062 A  
HETATM   29  C   UNL     2      -6.938  13.612  69.303  1.00  0.00    -0.025 A  
HETATM   30  C   UNL     2      -5.624  11.989  70.580  1.00  0.00    -0.153 A  
HETATM   31  N   UNL     2      -5.241  12.918  71.462  1.00  0.00    -0.289 NA 
BRANCH  29  32
HETATM   32  C   UNL     2      -7.804  14.059  68.108  1.00  0.00    -0.144 C  
HETATM   33  H   UNL     2      -8.572  13.253  66.466  1.00  0.00     0.000 HD 
HETATM   34  O   UNL     2      -8.039  12.978  67.203  1.00  0.00    -0.171 OA 
BRANCH  32  35
HETATM   35  C   UNL     2      -9.208  14.687  68.438  1.00  0.00    -0.197 C  
HETATM   36  C   UNL     2     -11.552  14.156  67.657  1.00  0.00    -0.394 C  
HETATM   37  C   UNL     2     -11.944  15.503  68.291  1.00  0.00    -0.059 C  
HETATM   38  C   UNL     2     -10.783  16.499  68.147  1.00  0.00    -0.343 C  
HETATM   39  C   UNL     2     -10.340  13.628  68.447  1.00  0.00    -0.248 C  
HETATM   40  N   UNL     2      -9.584  15.853  67.564  1.00  0.00    -0.220 NA 
HETATM   41  C   UNL     2      -9.955  15.424  66.189  1.00  0.00    -0.307 C  
HETATM   42  C   UNL     2     -11.087  14.364  66.193  1.00  0.00    -0.330 C  
BRANCH  42  43
HETATM   43  C   UNL     2     -12.224  14.763  65.281  1.00  0.00    -0.158 C  
HETATM   44  C   UNL     2     -12.342  14.382  64.002  1.00  0.00    -0.243 C  
ENDBRANCH  42  43
ENDBRANCH  32  35
ENDBRANCH  29  32
ENDBRANCH   4  22
TORSDOF 6
ENDMDL
MODEL      192
REMARK 921   NORMALIZED FREE ENERGY PREDICTED BY IDOCK:   -2.92 KCAL/MOL
REMARK 922        TOTAL FREE ENERGY PREDICTED BY IDOCK:   -7.02 KCAL/MOL
REMARK 923 INTER-LIGAND FREE ENERGY PREDICTED BY IDOCK:   -6.33 KCAL/MOL
REMARK 924 INTRA-LIGAND FREE ENERGY PREDICTED BY IDOCK:   -0.70 KCAL/MOL
REMARK 927      BINDING AFFINITY PREDICTED BY RF-SCORE:    0.00 PKD
ROOT
HETATM    1  C   UNL     1     -11.104  10.365  65.978  1.00  0.00     0.324 C  
HETATM    2  C   UNL     1     -10.588  11.179  67.162  1.00  0.00    -0.286 C  
HETATM    3  C   UNL     2     -10.019   7.159  66.737  1.00  0.00    -0.208 C  
HETATM    4  O   UNL     2      -9.990   8.143  67.757  1.00  0.00    -0.162 OA 
ENDROOT
BRANCH   2   5
HETATM    5  C   UNL     1      -9.264  11.988  66.946  1.00  0.00    -0.197 C  
HETATM    6  O   UNL     1      -8.281  11.653  69.183  1.00  0.00     0.041 OA 
HETATM    7  C   UNL     1      -9.727  13.225  66.157  1.00  0.00    -0.250 C  
HETATM    8  C   UNL     1      -8.711  12.428  68.325  1.00  0.00    -0.175 C  
HETATM    9  H   UNL     1      -8.014  14.103  69.283  1.00  0.00     0.000 HD 
HETATM   10  N   UNL     1     -10.181  14.271  66.910  1.00  0.00    -0.263 N  
HETATM   11  O   UNL     1      -9.788  13.286  64.934  1.00  0.00    -0.162 OA 
HETATM   12  O   UNL     1      -9.373  15.902  68.233  1.00  0.00    -0.190 OA 
HETATM   13  N   UNL     1      -8.664  13.777  68.568  1.00  0.00    -0.155 N  
HETATM   14  C   UNL     1      -9.411  14.712  67.931  1.00  0.00    -0.210 C  
HETATM   15  H   UNL     1     -11.080  14.709  66.707  1.00  0.00     0.000 HD 
BRANCH   5  16
HETATM   16  C   UNL     1      -8.219  11.160  66.169  1.00  0.00    -0.128 A  
HETATM   17  C   UNL     1      -7.575   9.914  64.174  1.00  0.00    -0.139 A  
HETATM   18  C   UNL     1      -8.563  10.424  65.020  1.00  0.00    -0.190 A  
HETATM   19  C   UNL     1      -6.860  11.210  66.524  1.00  0.00    -0.126 A  
HETATM   20  C   UNL     1      -6.230  10.100  64.477  1.00  0.00    -0.133 A  
HETATM   21  C   UNL     1      -5.874  10.718  65.670  1.00  0.00    -0.121 A  
ENDBRANCH   5  16
ENDBRANCH   2   5
BRANCH   4  22
HETATM   22  C   UNL     2      -8.883   8.171  68.548  1.00  0.00    -0.134 A  
HETATM   23  C   UNL     2      -7.569   8.215  68.127  1.00  0.00    -0.105 A  
HETATM   24  C   UNL     2      -8.160   8.209  70.905  1.00  0.00    -0.098 A  
HETATM   25  C   UNL     2      -7.274   8.216  73.157  1.00  0.00    -0.157 A  
HETATM   26  C   UNL     2      -6.554   8.252  69.086  1.00  0.00    -0.043 A  
HETATM   27  C   UNL     2      -6.007   8.225  72.600  1.00  0.00    -0.065 A  
HETATM   28  C   UNL     2      -9.161   8.242  69.909  1.00  0.00    -0.147 A  
HETATM   29  C   UNL     2      -8.400   8.190  72.318  1.00  0.00    -0.214 A  
HETATM   30  C   UNL     2      -6.817   8.212  70.452  1.00  0.00    -0.037 A  
HETATM   31  N   UNL     2      -5.766   8.212  71.278  1.00  0.00    -0.033 NA 
BRANCH  29  32
HETATM   32  C   UNL     2      -9.811   8.250  72.938  1.00  0.00    -0.233 C  
HETATM   33  H   UNL     2     -11.614   8.903  72.430  1.00  0.00     0.000 HD 
HETATM   34  O   UNL     2     -10.745   8.866  72.048  1.00  0.00    -0.339 OA 
BRANCH  32  35
HETATM   35  C   UNL     2     -10.450   6.887  73.393  1.00  0.00    -0.331 C  
HETATM   36  C   UNL     2      -9.530   4.541  73.588  1.00  0.00    -0.133 C  
HETATM   37  C   UNL     2     -10.997   4.102  73.743  1.00  0.00    -0.331 C  
HETATM   38  C   UNL     2     -11.901   5.015  72.901  1.00  0.00    -0.039 C  
HETATM   39  C   UNL     2      -9.434   5.978  74.133  1.00  0.00    -0.160 C  
HETATM   40  N   UNL     2     -11.132   6.125  72.290  1.00  0.00    -0.262 NA 
HETATM   41  C   UNL     2     -10.157   5.503  71.354  1.00  0.00    -0.201 C  
HETATM   42  C   UNL     2      -9.138   4.595  72.090  1.00  0.00    -0.151 C  
BRANCH  42  43
HETATM   43  C   UNL     2      -9.070   3.220  71.465  1.00  0.00    -0.174 C  
HETATM   44  C   UNL     2      -9.409   2.943  70.199  1.00  0.00    -0.212 C  
ENDBRANCH  42  43
ENDBRANCH  32  35
ENDBRANCH  29  32
ENDBRANCH   4  22
TORSDOF 6
ENDMDL
MODEL      193
REMARK 921   NORMALIZED FREE ENERGY PREDICTED BY IDOCK:   -2.92 KCAL/MOL
REMARK 922        TOTAL FREE ENERGY PREDICTED BY IDOCK:   -7.02 KCAL/MOL
REMARK 923 INTER-LIGAND FREE ENERGY PREDICTED BY IDOCK:   -4.69 KCAL/MOL
REMARK 924 INTRA-LIGAND FREE ENERGY PREDICTED BY IDOCK:   -2.33 KCAL/MOL
REMARK 927      BINDING AFFINITY PREDICTED BY RF-SCORE:    0.00 PKD
ROOT
HETATM    1  C   UNL     1     -11.052   9.833  68.124  1.00  0.00    -0.169 C  
HETATM    2  C   UNL     1      -9.686  10.295  68.624  1.00  0.00    -0.171 C  
HETATM    3  C   UNL     2     -12.086   7.677  70.637  1.00  0.00    -0.043 C  
HETATM    4  O   UNL     2     -10.989   8.539  70.893  1.00  0.00    -0.237 OA 
ENDROOT
BRANCH   2   5
HETATM    5  C   UNL     1      -8.428   9.591  68.012  1.00  0.00    -0.119 C  
HETATM    6  O   UNL     1      -7.180  11.613  67.352  1.00  0.00    -0.109 OA 
HETATM    7  C   UNL     1      -9.027   8.404  67.237  1.00  0.00    -0.130 C  
HETATM    8  C   UNL     1      -7.737  10.562  67.022  1.00  0.00    -0.110 C  
HETATM    9  H   UNL     1      -6.999  10.603  65.109  1.00  0.00     0.000 HD 
HETATM   10  N   UNL     1      -9.431   8.675  65.960  1.00  0.00    -0.335 N  
HETATM   11  O   UNL     1      -9.232   7.294  67.716  1.00  0.00    -0.128 OA 
HETATM   12  O   UNL     1      -8.539   9.047  63.928  1.00  0.00    -0.191 OA 
HETATM   13  N   UNL     1      -7.714  10.185  65.704  1.00  0.00    -0.137 N  
HETATM   14  C   UNL     1      -8.566   9.301  65.130  1.00  0.00    -0.172 C  
HETATM   15  H   UNL     1     -10.364   8.412  65.640  1.00  0.00     0.000 HD 
BRANCH   5  16
HETATM   16  C   UNL     1      -7.449   9.131  69.113  1.00  0.00    -0.072 A  
HETATM   17  C   UNL     1      -5.684   7.631  69.876  1.00  0.00    -0.023 A  
HETATM   18  C   UNL     1      -6.762   7.906  69.031  1.00  0.00    -0.049 A  
HETATM   19  C   UNL     1      -7.128   9.984  70.183  1.00  0.00    -0.157 A  
HETATM   20  C   UNL     1      -5.297   8.557  70.839  1.00  0.00    -0.028 A  
HETATM   21  C   UNL     1      -6.040   9.718  71.014  1.00  0.00    -0.069 A  
ENDBRANCH   5  16
ENDBRANCH   2   5
BRANCH   4  22
HETATM   22  C   UNL     2      -9.927   7.997  71.547  1.00  0.00    -0.177 A  
HETATM   23  C   UNL     2      -9.269   8.532  72.636  1.00  0.00    -0.269 A  
HETATM   24  C   UNL     2      -8.437   6.032  71.574  1.00  0.00    -0.128 A  
HETATM   25  C   UNL     2      -6.868   4.197  71.723  1.00  0.00    -0.030 A  
HETATM   26  C   UNL     2      -8.199   7.826  73.192  1.00  0.00    -0.197 A  
HETATM   27  C   UNL     2      -6.279   4.859  72.787  1.00  0.00    -0.030 A  
HETATM   28  C   UNL     2      -9.557   6.740  71.082  1.00  0.00    -0.177 A  
HETATM   29  C   UNL     2      -7.965   4.777  71.067  1.00  0.00    -0.083 A  
HETATM   30  C   UNL     2      -7.750   6.618  72.666  1.00  0.00    -0.101 A  
HETATM   31  N   UNL     2      -6.692   6.051  73.253  1.00  0.00    -0.074 NA 
BRANCH  29  32
HETATM   32  C   UNL     2      -8.663   4.007  69.928  1.00  0.00    -0.071 C  
HETATM   33  H   UNL     2     -10.072   4.343  68.573  1.00  0.00     0.000 HD 
HETATM   34  O   UNL     2      -9.642   4.818  69.275  1.00  0.00    -0.142 OA 
BRANCH  32  35
HETATM   35  C   UNL     2      -7.742   3.410  68.800  1.00  0.00    -0.051 C  
HETATM   36  C   UNL     2      -7.458   3.956  66.349  1.00  0.00    -0.084 C  
HETATM   37  C   UNL     2      -6.675   2.635  66.264  1.00  0.00    -0.043 C  
HETATM   38  C   UNL     2      -7.271   1.616  67.248  1.00  0.00    -0.050 C  
HETATM   39  C   UNL     2      -7.283   4.488  67.783  1.00  0.00    -0.065 C  
HETATM   40  N   UNL     2      -8.332   2.227  68.083  1.00  0.00    -0.061 NA 
HETATM   41  C   UNL     2      -9.428   2.622  67.158  1.00  0.00     0.007 C  
HETATM   42  C   UNL     2      -8.973   3.700  66.140  1.00  0.00    -0.142 C  
BRANCH  42  43
HETATM   43  C   UNL     2      -9.295   3.293  64.721  1.00  0.00    -0.148 C  
HETATM   44  C   UNL     2      -8.943   3.991  63.632  1.00  0.00    -0.122 C  
ENDBRANCH  42  43
ENDBRANCH  32  35
ENDBRANCH  29  32
ENDBRANCH   4  22
TORSDOF 6
ENDMDL
MODEL      194
REMARK 921   NORMALIZED FREE ENERGY PREDICTED BY IDOCK:   -2.90 KCAL/MOL
REMARK 922        TOTAL FREE ENERGY PREDICTED BY IDOCK:   -6.99 KCAL/MOL
REMARK 923 INTER-LIGAND FREE ENERGY PREDICTED BY IDOCK:   -5.34 KCAL/MOL
REMARK 924 INTRA-LIGAND FREE ENERGY PREDICTED BY IDOCK:   -1.65 KCAL/MOL
REMARK 927      BINDING AFFINITY PREDICTED BY RF-SCORE:    0.00 PKD
ROOT
HETATM    1  C   UNL     1     -10.985   9.223  66.345  1.00  0.00     0.592 C  
HETATM    2  C   UNL     1     -11.382  10.177  67.469  1.00  0.00     0.062 C  
HETATM    3  C   UNL     2     -10.037   6.370  68.075  1.00  0.00    -0.148 C  
HETATM    4  O   UNL     2     -10.758   7.375  68.769  1.00  0.00    -0.194 OA 
ENDROOT
BRANCH   2   5
HETATM    5  C   UNL     1     -10.325  11.251  67.898  1.00  0.00    -0.205 C  
HETATM    6  O   UNL     1     -11.087  11.583  70.219  1.00  0.00     0.031 OA 
HETATM    7  C   UNL     1     -10.225  12.164  66.664  1.00  0.00    -0.201 C  
HETATM    8  C   UNL     1     -10.883  12.056  69.098  1.00  0.00    -0.125 C  
HETATM    9  H   UNL     1     -11.144  13.996  69.711  1.00  0.00     0.000 HD 
HETATM   10  N   UNL     1     -11.146  13.173  66.600  1.00  0.00    -0.286 N  
HETATM   11  O   UNL     1      -9.450  11.990  65.731  1.00  0.00    -0.236 OA 
HETATM   12  O   UNL     1     -11.568  15.165  67.557  1.00  0.00    -0.331 OA 
HETATM   13  N   UNL     1     -11.113  13.392  68.890  1.00  0.00    -0.261 N  
HETATM   14  C   UNL     1     -11.303  13.972  67.680  1.00  0.00    -0.312 C  
HETATM   15  H   UNL     1     -11.702  13.320  65.757  1.00  0.00     0.000 HD 
BRANCH   5  16
HETATM   16  C   UNL     1      -8.971  10.598  68.249  1.00  0.00    -0.143 A  
HETATM   17  C   UNL     1      -7.262  10.038  69.895  1.00  0.00    -0.145 A  
HETATM   18  C   UNL     1      -8.328  10.838  69.477  1.00  0.00     0.064 A  
HETATM   19  C   UNL     1      -8.394   9.646  67.390  1.00  0.00    -0.114 A  
HETATM   20  C   UNL     1      -6.799   9.008  69.083  1.00  0.00    -0.054 A  
HETATM   21  C   UNL     1      -7.343   8.835  67.816  1.00  0.00    -0.088 A  
ENDBRANCH   5  16
ENDBRANCH   2   5
BRANCH   4  22
HETATM   22  C   UNL     2     -10.329   7.678  70.024  1.00  0.00    -0.223 A  
HETATM   23  C   UNL     2     -10.956   8.507  70.932  1.00  0.00    -0.292 A  
HETATM   24  C   UNL     2      -8.530   7.213  71.645  1.00  0.00    -0.114 A  
HETATM   25  C   UNL     2      -6.833   6.896  73.340  1.00  0.00    -0.074 A  
HETATM   26  C   UNL     2     -10.374   8.694  72.188  1.00  0.00    -0.403 A  
HETATM   27  C   UNL     2      -7.546   7.775  74.139  1.00  0.00    -0.157 A  
HETATM   28  C   UNL     2      -9.182   6.993  70.410  1.00  0.00    -0.156 A  
HETATM   29  C   UNL     2      -7.299   6.599  72.050  1.00  0.00    -0.090 A  
HETATM   30  C   UNL     2      -9.168   8.100  72.547  1.00  0.00    -0.251 A  
HETATM   31  N   UNL     2      -8.684   8.382  73.761  1.00  0.00    -0.259 NA 
BRANCH  29  32
HETATM   32  C   UNL     2      -6.543   5.568  71.188  1.00  0.00    -0.044 C  
HETATM   33  H   UNL     2      -4.677   4.942  70.942  1.00  0.00     0.000 HD 
HETATM   34  O   UNL     2      -5.143   5.577  71.474  1.00  0.00    -0.008 OA 
BRANCH  32  35
HETATM   35  C   UNL     2      -7.016   4.070  71.286  1.00  0.00    -0.032 C  
HETATM   36  C   UNL     2      -9.294   2.980  71.186  1.00  0.00    -0.212 C  
HETATM   37  C   UNL     2      -8.585   1.718  71.709  1.00  0.00    -0.080 C  
HETATM   38  C   UNL     2      -7.442   2.121  72.653  1.00  0.00    -0.039 C  
HETATM   39  C   UNL     2      -8.248   3.781  70.389  1.00  0.00    -0.073 C  
HETATM   40  N   UNL     2      -7.263   3.592  72.691  1.00  0.00    -0.047 NA 
HETATM   41  C   UNL     2      -8.514   4.159  73.263  1.00  0.00    -0.089 C  
HETATM   42  C   UNL     2      -9.748   3.873  72.369  1.00  0.00    -0.210 C  
BRANCH  42  43
HETATM   43  C   UNL     2     -10.873   3.247  73.160  1.00  0.00    -0.241 C  
HETATM   44  C   UNL     2     -10.777   2.857  74.438  1.00  0.00    -0.157 C  
ENDBRANCH  42  43
ENDBRANCH  32  35
ENDBRANCH  29  32
ENDBRANCH   4  22
TORSDOF 6
ENDMDL
MODEL      195
REMARK 921   NORMALIZED FREE ENERGY PREDICTED BY IDOCK:   -2.87 KCAL/MOL
REMARK 922        TOTAL FREE ENERGY PREDICTED BY IDOCK:   -6.95 KCAL/MOL
REMARK 923 INTER-LIGAND FREE ENERGY PREDICTED BY IDOCK:   -8.12 KCAL/MOL
REMARK 924 INTRA-LIGAND FREE ENERGY PREDICTED BY IDOCK:    1.17 KCAL/MOL
REMARK 927      BINDING AFFINITY PREDICTED BY RF-SCORE:    0.00 PKD
ROOT
HETATM    1  C   UNL     1      -9.981  14.878  64.879  1.00  0.00    -0.081 C  
HETATM    2  C   UNL     1     -10.768  15.490  66.035  1.00  0.00    -0.331 C  
HETATM    3  C   UNL     2     -10.518  11.479  65.316  1.00  0.00    -0.283 C  
HETATM    4  O   UNL     2     -11.341  12.391  66.024  1.00  0.00    -0.317 OA 
ENDROOT
BRANCH   2   5
HETATM    5  C   UNL     1      -9.955  15.914  67.305  1.00  0.00    -0.240 C  
HETATM    6  O   UNL     1      -9.219  13.670  68.014  1.00  0.00    -0.183 OA 
HETATM    7  C   UNL     1     -10.834  17.002  67.944  1.00  0.00    -0.302 C  
HETATM    8  C   UNL     1      -9.847  14.701  68.264  1.00  0.00    -0.222 C  
HETATM    9  H   UNL     1     -10.133  14.222  70.237  1.00  0.00     0.000 HD 
HETATM   10  N   UNL     1     -11.813  16.552  68.786  1.00  0.00     0.015 N  
HETATM   11  O   UNL     1     -10.762  18.197  67.681  1.00  0.00    -0.416 OA 
HETATM   12  O   UNL     1     -12.026  15.709  70.862  1.00  0.00    -0.331 OA 
HETATM   13  N   UNL     1     -10.462  14.825  69.483  1.00  0.00    -0.193 N  
HETATM   14  C   UNL     1     -11.471  15.685  69.766  1.00  0.00    -0.342 C  
HETATM   15  H   UNL     1     -12.778  16.862  68.678  1.00  0.00     0.000 HD 
BRANCH   5  16
HETATM   16  C   UNL     1      -8.557  16.446  66.925  1.00  0.00    -0.245 A  
HETATM   17  C   UNL     1      -7.160  18.147  65.875  1.00  0.00    -0.300 A  
HETATM   18  C   UNL     1      -8.387  17.492  65.999  1.00  0.00    -0.116 A  
HETATM   19  C   UNL     1      -7.409  15.973  67.585  1.00  0.00    -0.173 A  
HETATM   20  C   UNL     1      -6.073  17.747  66.645  1.00  0.00    -0.207 A  
HETATM   21  C   UNL     1      -6.189  16.639  67.475  1.00  0.00    -0.187 A  
ENDBRANCH   5  16
ENDBRANCH   2   5
BRANCH   4  22
HETATM   22  C   UNL     2     -11.601  12.096  67.326  1.00  0.00    -0.334 A  
HETATM   23  C   UNL     2     -12.268  12.892  68.235  1.00  0.00    -0.003 A  
HETATM   24  C   UNL     2     -11.316  10.336  69.030  1.00  0.00    -0.237 A  
HETATM   25  C   UNL     2     -11.095   8.735  70.830  1.00  0.00    -0.320 A  
HETATM   26  C   UNL     2     -12.457  12.418  69.536  1.00  0.00     0.184 A  
HETATM   27  C   UNL     2     -11.748   9.643  71.646  1.00  0.00    -0.369 A  
HETATM   28  C   UNL     2     -11.204  10.818  67.707  1.00  0.00    -0.385 A  
HETATM   29  C   UNL     2     -10.842   9.063  69.489  1.00  0.00    -0.177 A  
HETATM   30  C   UNL     2     -11.967  11.186  69.959  1.00  0.00    -0.367 A  
HETATM   31  N   UNL     2     -12.171  10.852  71.237  1.00  0.00    -0.325 NA 
BRANCH  29  32
HETATM   32  C   UNL     2     -10.177   8.024  68.564  1.00  0.00    -0.207 C  
HETATM   33  H   UNL     2     -10.148   7.581  66.631  1.00  0.00     0.000 HD 
HETATM   34  O   UNL     2     -10.557   8.221  67.201  1.00  0.00    -0.317 OA 
BRANCH  32  35
HETATM   35  C   UNL     2      -8.606   7.946  68.590  1.00  0.00    -0.128 C  
HETATM   36  C   UNL     2      -6.797   9.705  68.433  1.00  0.00    -0.061 C  
HETATM   37  C   UNL     2      -5.830   8.527  68.223  1.00  0.00    -0.042 C  
HETATM   38  C   UNL     2      -6.542   7.405  67.451  1.00  0.00    -0.061 C  
HETATM   39  C   UNL     2      -7.966   9.177  69.285  1.00  0.00    -0.097 C  
HETATM   40  N   UNL     2      -7.976   7.716  67.244  1.00  0.00    -0.117 NA 
HETATM   41  C   UNL     2      -8.030   8.930  66.386  1.00  0.00    -0.103 C  
HETATM   42  C   UNL     2      -7.393  10.163  67.077  1.00  0.00    -0.091 C  
BRANCH  42  43
HETATM   43  C   UNL     2      -6.361  10.823  66.192  1.00  0.00    -0.134 C  
HETATM   44  C   UNL     2      -6.259  10.630  64.870  1.00  0.00     0.026 C  
ENDBRANCH  42  43
ENDBRANCH  32  35
ENDBRANCH  29  32
ENDBRANCH   4  22
TORSDOF 6
ENDMDL
MODEL      196
REMARK 921   NORMALIZED FREE ENERGY PREDICTED BY IDOCK:   -2.86 KCAL/MOL
REMARK 922        TOTAL FREE ENERGY PREDICTED BY IDOCK:   -6.95 KCAL/MOL
REMARK 923 INTER-LIGAND FREE ENERGY PREDICTED BY IDOCK:   -7.15 KCAL/MOL
REMARK 924 INTRA-LIGAND FREE ENERGY PREDICTED BY IDOCK:    0.20 KCAL/MOL
REMARK 927      BINDING AFFINITY PREDICTED BY RF-SCORE:    0.00 PKD
ROOT
HETATM    1  C   UNL     1     -10.258  13.470  68.267  1.00  0.00    -0.250 C  
HETATM    2  C   UNL     1      -9.554  12.116  68.333  1.00  0.00    -0.186 C  
HETATM    3  C   UNL     2     -12.619  13.219  70.796  1.00  0.00    -0.280 C  
HETATM    4  O   UNL     2     -11.569  12.266  70.752  1.00  0.00     0.205 OA 
ENDROOT
BRANCH   2   5
HETATM    5  C   UNL     1      -9.995  11.032  67.292  1.00  0.00    -0.210 C  
HETATM    6  O   UNL     1     -12.363  10.851  67.957  1.00  0.00    -0.192 OA 
HETATM    7  C   UNL     1      -8.811  10.051  67.277  1.00  0.00    -0.135 C  
HETATM    8  C   UNL     1     -11.262  10.312  67.819  1.00  0.00    -0.190 C  
HETATM    9  H   UNL     1     -11.991   8.417  68.111  1.00  0.00     0.000 HD 
HETATM   10  N   UNL     1      -8.843   9.072  68.231  1.00  0.00    -0.133 N  
HETATM   11  O   UNL     1      -7.836  10.149  66.541  1.00  0.00    -0.107 OA 
HETATM   12  O   UNL     1      -9.926   7.149  68.670  1.00  0.00    -0.152 OA 
HETATM   13  N   UNL     1     -11.138   8.975  68.099  1.00  0.00     0.100 N  
HETATM   14  C   UNL     1      -9.971   8.337  68.363  1.00  0.00    -0.190 C  
HETATM   15  H   UNL     1      -8.035   8.898  68.829  1.00  0.00     0.000 HD 
BRANCH   5  16
HETATM   16  C   UNL     1     -10.249  11.657  65.904  1.00  0.00    -0.277 A  
HETATM   17  C   UNL     1     -11.207  11.509  63.666  1.00  0.00    -0.451 A  
HETATM   18  C   UNL     1     -10.718  10.892  64.820  1.00  0.00    -0.248 A  
HETATM   19  C   UNL     1     -10.127  13.044  65.712  1.00  0.00    -0.294 A  
HETATM   20  C   UNL     1     -11.203  12.896  63.559  1.00  0.00    -0.350 A  
HETATM   21  C   UNL     1     -10.632  13.662  64.568  1.00  0.00    -0.428 A  
ENDBRANCH   5  16
ENDBRANCH   2   5
BRANCH   4  22
HETATM   22  C   UNL     2     -11.911  10.969  70.981  1.00  0.00    -0.229 A  
HETATM   23  C   UNL     2     -13.162  10.407  70.828  1.00  0.00    -0.266 A  
HETATM   24  C   UNL     2     -10.984   8.792  71.673  1.00  0.00    -0.391 A  
HETATM   25  C   UNL     2     -10.251   6.592  72.365  1.00  0.00    -0.200 A  
HETATM   26  C   UNL     2     -13.328   9.046  71.099  1.00  0.00    -0.157 A  
HETATM   27  C   UNL     2     -11.558   6.165  72.203  1.00  0.00    -0.317 A  
HETATM   28  C   UNL     2     -10.839  10.153  71.325  1.00  0.00     0.251 A  
HETATM   29  C   UNL     2      -9.924   7.935  72.119  1.00  0.00    -0.266 A  
HETATM   30  C   UNL     2     -12.285   8.243  71.549  1.00  0.00    -0.301 A  
HETATM   31  N   UNL     2     -12.567   6.964  71.815  1.00  0.00    -0.359 NA 
BRANCH  29  32
HETATM   32  C   UNL     2      -8.456   8.393  72.233  1.00  0.00    -0.177 C  
HETATM   33  H   UNL     2      -7.156   8.822  73.668  1.00  0.00     0.000 HD 
HETATM   34  O   UNL     2      -8.060   8.539  73.599  1.00  0.00    -0.381 OA 
BRANCH  32  35
HETATM   35  C   UNL     2      -7.370   7.489  71.540  1.00  0.00    -0.075 C  
HETATM   36  C   UNL     2      -7.209   4.998  71.145  1.00  0.00    -0.064 C  
HETATM   37  C   UNL     2      -5.739   5.268  70.779  1.00  0.00    -0.020 C  
HETATM   38  C   UNL     2      -5.199   6.427  71.630  1.00  0.00    -0.026 C  
HETATM   39  C   UNL     2      -7.996   6.277  70.803  1.00  0.00    -0.112 C  
HETATM   40  N   UNL     2      -6.268   7.036  72.458  1.00  0.00    -0.052 NA 
HETATM   41  C   UNL     2      -6.725   5.984  73.405  1.00  0.00    -0.075 C  
HETATM   42  C   UNL     2      -7.352   4.770  72.671  1.00  0.00    -0.084 C  
BRANCH  42  43
HETATM   43  C   UNL     2      -6.727   3.469  73.117  1.00  0.00    -0.038 C  
HETATM   44  C   UNL     2      -7.417   2.377  73.474  1.00  0.00    -0.041 C  
ENDBRANCH  42  43
ENDBRANCH  32  35
ENDBRANCH  29  32
ENDBRANCH   4  22
TORSDOF 6
ENDMDL
MODEL      197
REMARK 921   NORMALIZED FREE ENERGY PREDICTED BY IDOCK:   -2.84 KCAL/MOL
REMARK 922        TOTAL FREE ENERGY PREDICTED BY IDOCK:   -6.92 KCAL/MOL
REMARK 923 INTER-LIGAND FREE ENERGY PREDICTED BY IDOCK:   -8.31 KCAL/MOL
REMARK 924 INTRA-LIGAND FREE ENERGY PREDICTED BY IDOCK:    1.39 KCAL/MOL
REMARK 927      BINDING AFFINITY PREDICTED BY RF-SCORE:    0.00 PKD
ROOT
HETATM    1  C   UNL     1      -7.870  16.179  68.650  1.00  0.00    -0.188 C  
HETATM    2  C   UNL     1      -8.462  15.746  67.311  1.00  0.00    -0.212 C  
HETATM    3  C   UNL     2      -6.743  13.181  69.981  1.00  0.00     0.312 C  
HETATM    4  O   UNL     2      -7.084  13.226  68.605  1.00  0.00    -0.095 OA 
ENDROOT
BRANCH   2   5
HETATM    5  C   UNL     1     -10.018  15.572  67.243  1.00  0.00    -0.238 C  
HETATM    6  O   UNL     1     -10.074  13.262  66.382  1.00  0.00    -0.276 OA 
HETATM    7  C   UNL     1     -10.504  16.927  66.701  1.00  0.00    -0.257 C  
HETATM    8  C   UNL     1     -10.356  14.453  66.226  1.00  0.00    -0.295 C  
HETATM    9  H   UNL     1     -11.578  14.101  64.617  1.00  0.00     0.000 HD 
HETATM   10  N   UNL     1     -10.512  17.050  65.339  1.00  0.00    -0.206 N  
HETATM   11  O   UNL     1     -10.791  17.892  67.399  1.00  0.00    -0.339 OA 
HETATM   12  O   UNL     1     -11.710  16.352  63.567  1.00  0.00    -0.637 OA 
HETATM   13  N   UNL     1     -11.058  14.827  65.109  1.00  0.00    -0.362 N  
HETATM   14  C   UNL     1     -11.115  16.085  64.608  1.00  0.00    -0.332 C  
HETATM   15  H   UNL     1     -10.073  17.852  64.885  1.00  0.00     0.000 HD 
BRANCH   5  16
HETATM   16  C   UNL     1     -10.609  15.256  68.633  1.00  0.00    -0.236 A  
HETATM   17  C   UNL     1     -11.164  15.963  70.900  1.00  0.00    -0.389 A  
HETATM   18  C   UNL     1     -10.404  16.106  69.736  1.00  0.00    -0.244 A  
HETATM   19  C   UNL     1     -11.471  14.161  68.810  1.00  0.00    -0.333 A  
HETATM   20  C   UNL     1     -12.113  14.952  70.996  1.00  0.00    -0.380 A  
HETATM   21  C   UNL     1     -12.243  14.030  69.964  1.00  0.00    -0.414 A  
ENDBRANCH   5  16
ENDBRANCH   2   5
BRANCH   4  22
HETATM   22  C   UNL     2      -7.791  12.171  68.117  1.00  0.00    -0.147 A  
HETATM   23  C   UNL     2      -8.006  11.867  66.788  1.00  0.00    -0.087 A  
HETATM   24  C   UNL     2      -9.070  10.181  68.811  1.00  0.00    -0.153 A  
HETATM   25  C   UNL     2     -10.382   8.210  69.313  1.00  0.00    -0.222 A  
HETATM   26  C   UNL     2      -8.751  10.729  66.468  1.00  0.00    -0.154 A  
HETATM   27  C   UNL     2     -10.548   8.040  67.949  1.00  0.00    -0.145 A  
HETATM   28  C   UNL     2      -8.255  11.299  69.096  1.00  0.00     0.045 A  
HETATM   29  C   UNL     2      -9.645   9.306  69.791  1.00  0.00    -0.203 A  
HETATM   30  C   UNL     2      -9.314   9.908  67.442  1.00  0.00    -0.137 A  
HETATM   31  N   UNL     2     -10.041   8.869  67.021  1.00  0.00    -0.236 NA 
BRANCH  29  32
HETATM   32  C   UNL     2      -9.401   9.455  71.306  1.00  0.00     0.010 C  
HETATM   33  H   UNL     2     -10.397   9.144  72.993  1.00  0.00     0.000 HD 
HETATM   34  O   UNL     2     -10.547   9.051  72.060  1.00  0.00    -0.345 OA 
BRANCH  32  35
HETATM   35  C   UNL     2      -8.168   8.689  71.911  1.00  0.00    -0.103 C  
HETATM   36  C   UNL     2      -7.560   6.239  72.031  1.00  0.00    -0.096 C  
HETATM   37  C   UNL     2      -6.483   6.674  73.040  1.00  0.00    -0.063 C  
HETATM   38  C   UNL     2      -6.995   7.868  73.861  1.00  0.00    -0.117 C  
HETATM   39  C   UNL     2      -7.793   7.431  71.085  1.00  0.00    -0.092 C  
HETATM   40  N   UNL     2      -8.310   8.340  73.367  1.00  0.00    -0.303 NA 
HETATM   41  C   UNL     2      -9.272   7.225  73.583  1.00  0.00    -0.219 C  
HETATM   42  C   UNL     2      -8.901   5.965  72.758  1.00  0.00    -0.124 C  
BRANCH  42  43
HETATM   43  C   UNL     2      -8.841   4.731  73.628  1.00  0.00    -0.105 C  
HETATM   44  C   UNL     2      -9.789   4.371  74.503  1.00  0.00    -0.198 C  
ENDBRANCH  42  43
ENDBRANCH  32  35
ENDBRANCH  29  32
ENDBRANCH   4  22
TORSDOF 6
ENDMDL
MODEL      198
REMARK 921   NORMALIZED FREE ENERGY PREDICTED BY IDOCK:   -2.80 KCAL/MOL
REMARK 922        TOTAL FREE ENERGY PREDICTED BY IDOCK:   -6.85 KCAL/MOL
REMARK 923 INTER-LIGAND FREE ENERGY PREDICTED BY IDOCK:   -4.40 KCAL/MOL
REMARK 924 INTRA-LIGAND FREE ENERGY PREDICTED BY IDOCK:   -2.45 KCAL/MOL
REMARK 927      BINDING AFFINITY PREDICTED BY RF-SCORE:    0.00 PKD
ROOT
HETATM    1  C   UNL     1      -9.244   5.580  64.991  1.00  0.00     0.153 C  
HETATM    2  C   UNL     1      -8.916   5.997  66.422  1.00  0.00    -0.150 C  
HETATM    3  C   UNL     2      -8.750   2.148  65.072  1.00  0.00    -0.115 C  
HETATM    4  O   UNL     2      -8.835   2.849  66.302  1.00  0.00    -0.131 OA 
ENDROOT
BRANCH   2   5
HETATM    5  C   UNL     1      -7.491   6.593  66.682  1.00  0.00    -0.079 C  
HETATM    6  O   UNL     1      -6.165   4.805  65.620  1.00  0.00    -0.032 OA 
HETATM    7  C   UNL     1      -7.590   7.143  68.115  1.00  0.00    -0.115 C  
HETATM    8  C   UNL     1      -6.448   5.448  66.634  1.00  0.00    -0.044 C  
HETATM    9  H   UNL     1      -4.880   4.698  67.722  1.00  0.00     0.000 HD 
HETATM   10  N   UNL     1      -7.337   6.242  69.112  1.00  0.00    -0.086 N  
HETATM   11  O   UNL     1      -7.955   8.277  68.401  1.00  0.00    -0.115 OA 
HETATM   12  O   UNL     1      -5.590   5.184  70.056  1.00  0.00    -0.014 OA 
HETATM   13  N   UNL     1      -5.775   5.180  67.799  1.00  0.00    -0.016 N  
HETATM   14  C   UNL     1      -6.205   5.505  69.042  1.00  0.00    -0.029 C  
HETATM   15  H   UNL     1      -7.987   6.128  69.891  1.00  0.00     0.000 HD 
BRANCH   5  16
HETATM   16  C   UNL     1      -7.149   7.697  65.659  1.00  0.00    -0.061 A  
HETATM   17  C   UNL     1      -5.620   8.653  64.017  1.00  0.00    -0.065 A  
HETATM   18  C   UNL     1      -5.852   7.847  65.134  1.00  0.00    -0.037 A  
HETATM   19  C   UNL     1      -8.160   8.520  65.132  1.00  0.00    -0.142 A  
HETATM   20  C   UNL     1      -6.669   9.349  63.427  1.00  0.00    -0.094 A  
HETATM   21  C   UNL     1      -7.932   9.309  64.005  1.00  0.00    -0.137 A  
ENDBRANCH   5  16
ENDBRANCH   2   5
BRANCH   4  22
HETATM   22  C   UNL     2      -7.941   2.502  67.266  1.00  0.00    -0.070 A  
HETATM   23  C   UNL     2      -6.707   1.914  67.074  1.00  0.00    -0.038 A  
HETATM   24  C   UNL     2      -7.574   2.544  69.704  1.00  0.00    -0.043 A  
HETATM   25  C   UNL     2      -7.065   2.474  72.068  1.00  0.00    -0.038 A  
HETATM   26  C   UNL     2      -5.910   1.637  68.187  1.00  0.00    -0.019 A  
HETATM   27  C   UNL     2      -5.871   1.856  71.737  1.00  0.00    -0.009 A  
HETATM   28  C   UNL     2      -8.322   2.872  68.551  1.00  0.00    -0.085 A  
HETATM   29  C   UNL     2      -7.969   2.824  71.053  1.00  0.00    -0.054 A  
HETATM   30  C   UNL     2      -6.329   1.903  69.488  1.00  0.00    -0.025 A  
HETATM   31  N   UNL     2      -5.501   1.559  70.479  1.00  0.00    -0.004 NA 
BRANCH  29  32
HETATM   32  C   UNL     2      -9.267   3.574  71.417  1.00  0.00    -0.126 C  
HETATM   33  H   UNL     2     -10.987   3.182  72.323  1.00  0.00     0.000 HD 
HETATM   34  O   UNL     2     -10.188   2.720  72.099  1.00  0.00    -0.161 OA 
BRANCH  32  35
HETATM   35  C   UNL     2      -9.120   4.873  72.293  1.00  0.00    -0.130 C  
HETATM   36  C   UNL     2     -10.802   6.361  73.452  1.00  0.00    -0.243 C  
HETATM   37  C   UNL     2      -9.637   7.352  73.620  1.00  0.00    -0.337 C  
HETATM   38  C   UNL     2      -8.694   7.251  72.411  1.00  0.00    -0.119 C  
HETATM   39  C   UNL     2     -10.186   4.950  73.416  1.00  0.00    -0.212 C  
HETATM   40  N   UNL     2      -9.095   6.152  71.502  1.00  0.00    -0.143 NA 
HETATM   41  C   UNL     2     -10.439   6.507  70.970  1.00  0.00    -0.222 C  
HETATM   42  C   UNL     2     -11.508   6.584  72.091  1.00  0.00    -0.332 C  
BRANCH  42  43
HETATM   43  C   UNL     2     -12.266   7.891  72.045  1.00  0.00    -0.357 C  
HETATM   44  C   UNL     2     -12.047   8.865  71.151  1.00  0.00    -0.326 C  
ENDBRANCH  42  43
ENDBRANCH  32  35
ENDBRANCH  29  32
ENDBRANCH   4  22
TORSDOF 6
ENDMDL
MODEL      199
REMARK 921   NORMALIZED FREE ENERGY PREDICTED BY IDOCK:   -2.79 KCAL/MOL
REMARK 922        TOTAL FREE ENERGY PREDICTED BY IDOCK:   -6.85 KCAL/MOL
REMARK 923 INTER-LIGAND FREE ENERGY PREDICTED BY IDOCK:   -7.45 KCAL/MOL
REMARK 924 INTRA-LIGAND FREE ENERGY PREDICTED BY IDOCK:    0.60 KCAL/MOL
REMARK 927      BINDING AFFINITY PREDICTED BY RF-SCORE:    0.00 PKD
ROOT
HETATM    1  C   UNL     1      -8.587  14.282  68.230  1.00  0.00    -0.176 C  
HETATM    2  C   UNL     1      -9.203  13.974  66.867  1.00  0.00    -0.271 C  
HETATM    3  C   UNL     2      -6.238  11.755  68.587  1.00  0.00    -0.054 C  
HETATM    4  O   UNL     2      -6.803  11.979  67.306  1.00  0.00    -0.127 OA 
ENDROOT
BRANCH   2   5
HETATM    5  C   UNL     1     -10.575  13.219  66.860  1.00  0.00    -0.264 C  
HETATM    6  O   UNL     1      -9.726  10.943  67.280  1.00  0.00    -0.163 OA 
HETATM    7  C   UNL     1     -11.338  13.879  65.698  1.00  0.00    -0.309 C  
HETATM    8  C   UNL     1     -10.328  11.724  66.539  1.00  0.00    -0.223 C  
HETATM    9  H   UNL     1     -11.016  10.243  65.298  1.00  0.00     0.000 HD 
HETATM   10  N   UNL     1     -11.100  13.349  64.460  1.00  0.00    -0.363 N  
HETATM   11  O   UNL     1     -12.051  14.869  65.807  1.00  0.00    -0.169 OA 
HETATM   12  O   UNL     1     -11.624  11.523  63.253  1.00  0.00    -0.298 OA 
HETATM   13  N   UNL     1     -10.864  11.249  65.369  1.00  0.00    -0.231 N  
HETATM   14  C   UNL     1     -11.206  12.010  64.301  1.00  0.00    -0.357 C  
HETATM   15  H   UNL     1     -10.850  13.950  63.674  1.00  0.00     0.000 HD 
BRANCH   5  16
HETATM   16  C   UNL     1     -11.313  13.383  68.206  1.00  0.00    -0.330 A  
HETATM   17  C   UNL     1     -11.980  12.481  70.371  1.00  0.00    -0.335 A  
HETATM   18  C   UNL     1     -11.570  12.287  69.049  1.00  0.00    -0.368 A  
HETATM   19  C   UNL     1     -11.651  14.661  68.683  1.00  0.00    -0.343 A  
HETATM   20  C   UNL     1     -12.172  13.767  70.862  1.00  0.00    -0.427 A  
HETATM   21  C   UNL     1     -12.041  14.856  70.008  1.00  0.00    -0.387 A  
ENDBRANCH   5  16
ENDBRANCH   2   5
BRANCH   4  22
HETATM   22  C   UNL     2      -7.152  10.876  66.591  1.00  0.00    -0.135 A  
HETATM   23  C   UNL     2      -7.487  10.831  65.253  1.00  0.00     0.094 A  
HETATM   24  C   UNL     2      -7.454   8.435  66.778  1.00  0.00    -0.083 A  
HETATM   25  C   UNL     2      -7.830   6.045  66.791  1.00  0.00    -0.101 A  
HETATM   26  C   UNL     2      -7.808   9.599  64.678  1.00  0.00    -0.133 A  
HETATM   27  C   UNL     2      -8.177   6.148  65.454  1.00  0.00    -0.145 A  
HETATM   28  C   UNL     2      -7.069   9.687  67.308  1.00  0.00    -0.086 A  
HETATM   29  C   UNL     2      -7.470   7.200  67.505  1.00  0.00    -0.101 A  
HETATM   30  C   UNL     2      -7.835   8.418  65.413  1.00  0.00    -0.108 A  
HETATM   31  N   UNL     2      -8.196   7.304  64.769  1.00  0.00    -0.097 NA 
BRANCH  29  32
HETATM   32  C   UNL     2      -7.017   7.074  68.973  1.00  0.00    -0.078 C  
HETATM   33  H   UNL     2      -5.389   7.440  70.046  1.00  0.00     0.000 HD 
HETATM   34  O   UNL     2      -5.668   7.517  69.141  1.00  0.00    -0.024 OA 
BRANCH  32  35
HETATM   35  C   UNL     2      -7.879   7.826  70.053  1.00  0.00    -0.103 C  
HETATM   36  C   UNL     2      -7.554   8.239  72.526  1.00  0.00    -0.159 C  
HETATM   37  C   UNL     2      -9.028   8.680  72.528  1.00  0.00    -0.163 C  
HETATM   38  C   UNL     2      -9.817   7.854  71.501  1.00  0.00    -0.165 C  
HETATM   39  C   UNL     2      -7.002   8.534  71.119  1.00  0.00    -0.070 C  
HETATM   40  N   UNL     2      -8.924   6.970  70.716  1.00  0.00    -0.149 NA 
HETATM   41  C   UNL     2      -8.328   6.004  71.677  1.00  0.00    -0.127 C  
HETATM   42  C   UNL     2      -7.449   6.707  72.744  1.00  0.00    -0.092 C  
BRANCH  42  43
HETATM   43  C   UNL     2      -7.844   6.299  74.144  1.00  0.00    -0.094 C  
HETATM   44  C   UNL     2      -9.078   5.922  74.506  1.00  0.00    -0.137 C  
ENDBRANCH  42  43
ENDBRANCH  32  35
ENDBRANCH  29  32
ENDBRANCH   4  22
TORSDOF 6
ENDMDL
MODEL      200
REMARK 921   NORMALIZED FREE ENERGY PREDICTED BY IDOCK:   -2.77 KCAL/MOL
REMARK 922        TOTAL FREE ENERGY PREDICTED BY IDOCK:   -6.82 KCAL/MOL
REMARK 923 INTER-LIGAND FREE ENERGY PREDICTED BY IDOCK:   -5.81 KCAL/MOL
REMARK 924 INTRA-LIGAND FREE ENERGY PREDICTED BY IDOCK:   -1.01 KCAL/MOL
REMARK 927      BINDING AFFINITY PREDICTED BY RF-SCORE:    0.00 PKD
ROOT
HETATM    1  C   UNL     1     -10.765   8.866  67.278  1.00  0.00    -0.219 C  
HETATM    2  C   UNL     1      -9.919   9.837  68.098  1.00  0.00    -0.179 C  
HETATM    3  C   UNL     2     -11.491   6.371  69.575  1.00  0.00    -0.343 C  
HETATM    4  O   UNL     2     -10.973   7.601  70.053  1.00  0.00    -0.255 OA 
ENDROOT
BRANCH   2   5
HETATM    5  C   UNL     1      -8.365   9.751  67.921  1.00  0.00    -0.114 C  
HETATM    6  O   UNL     1      -8.059   7.413  68.641  1.00  0.00    -0.121 OA 
HETATM    7  C   UNL     1      -7.871  11.107  68.454  1.00  0.00    -0.133 C  
HETATM    8  C   UNL     1      -7.817   8.610  68.814  1.00  0.00    -0.106 C  
HETATM    9  H   UNL     1      -6.346   8.260  70.200  1.00  0.00     0.000 HD 
HETATM   10  N   UNL     1      -7.661  11.171  69.803  1.00  0.00    -0.332 N  
HETATM   11  O   UNL     1      -7.744  12.117  67.772  1.00  0.00    -0.119 OA 
HETATM   12  O   UNL     1      -6.171  10.466  71.336  1.00  0.00    -0.317 OA 
HETATM   13  N   UNL     1      -6.972   8.975  69.831  1.00  0.00    -0.049 N  
HETATM   14  C   UNL     1      -6.904  10.211  70.383  1.00  0.00    -0.124 C  
HETATM   15  H   UNL     1      -8.065  11.924  70.360  1.00  0.00     0.000 HD 
BRANCH   5  16
HETATM   16  C   UNL     1      -7.979   9.533  66.443  1.00  0.00    -0.111 A  
HETATM   17  C   UNL     1      -6.750   8.286  64.744  1.00  0.00    -0.067 A  
HETATM   18  C   UNL     1      -6.911   8.695  66.071  1.00  0.00    -0.079 A  
HETATM   19  C   UNL     1      -8.762  10.080  65.412  1.00  0.00    -0.176 A  
HETATM   20  C   UNL     1      -7.628   8.734  63.763  1.00  0.00    -0.124 A  
HETATM   21  C   UNL     1      -8.614   9.657  64.092  1.00  0.00    -0.209 A  
ENDBRANCH   5  16
ENDBRANCH   2   5
BRANCH   4  22
HETATM   22  C   UNL     2     -10.019   7.528  71.020  1.00  0.00    -0.186 A  
HETATM   23  C   UNL     2      -9.562   8.565  71.808  1.00  0.00    -0.337 A  
HETATM   24  C   UNL     2      -8.507   5.952  72.166  1.00  0.00    -0.125 A  
HETATM   25  C   UNL     2      -6.940   4.555  73.368  1.00  0.00    -0.065 A  
HETATM   26  C   UNL     2      -8.581   8.302  72.767  1.00  0.00    -0.270 A  
HETATM   27  C   UNL     2      -6.549   5.686  74.064  1.00  0.00    -0.079 A  
HETATM   28  C   UNL     2      -9.548   6.241  71.255  1.00  0.00    -0.189 A  
HETATM   29  C   UNL     2      -7.928   4.657  72.376  1.00  0.00    -0.095 A  
HETATM   30  C   UNL     2      -8.022   7.039  72.935  1.00  0.00    -0.105 A  
HETATM   31  N   UNL     2      -7.061   6.911  73.856  1.00  0.00    -0.081 NA 
BRANCH  29  32
HETATM   32  C   UNL     2      -8.412   3.386  71.650  1.00  0.00    -0.072 C  
HETATM   33  H   UNL     2     -10.096   2.689  70.868  1.00  0.00     0.000 HD 
HETATM   34  O   UNL     2      -9.799   3.472  71.315  1.00  0.00    -0.182 OA 
BRANCH  32  35
HETATM   35  C   UNL     2      -7.651   2.982  70.333  1.00  0.00    -0.043 C  
HETATM   36  C   UNL     2      -7.300   4.160  68.125  1.00  0.00    -0.064 C  
HETATM   37  C   UNL     2      -6.807   2.798  67.608  1.00  0.00    -0.045 C  
HETATM   38  C   UNL     2      -7.583   1.669  68.303  1.00  0.00    -0.046 C  
HETATM   39  C   UNL     2      -6.997   4.202  69.634  1.00  0.00    -0.045 C  
HETATM   40  N   UNL     2      -8.483   2.198  69.355  1.00  0.00    -0.049 NA 
HETATM   41  C   UNL     2      -9.489   3.051  68.666  1.00  0.00    -0.126 C  
HETATM   42  C   UNL     2      -8.838   4.272  67.966  1.00  0.00    -0.129 C  
BRANCH  42  43
HETATM   43  C   UNL     2      -9.260   4.371  66.518  1.00  0.00    -0.145 C  
HETATM   44  C   UNL     2      -8.950   5.390  65.705  1.00  0.00    -0.160 C  
ENDBRANCH  42  43
ENDBRANCH  32  35
ENDBRANCH  29  32
ENDBRANCH   4  22
TORSDOF 6
ENDMDL
MODEL      201
REMARK 921   NORMALIZED FREE ENERGY PREDICTED BY IDOCK:   -2.77 KCAL/MOL
REMARK 922        TOTAL FREE ENERGY PREDICTED BY IDOCK:   -6.82 KCAL/MOL
REMARK 923 INTER-LIGAND FREE ENERGY PREDICTED BY IDOCK:   -5.85 KCAL/MOL
REMARK 924 INTRA-LIGAND FREE ENERGY PREDICTED BY IDOCK:   -0.97 KCAL/MOL
REMARK 927      BINDING AFFINITY PREDICTED BY RF-SCORE:    0.00 PKD
ROOT
HETATM    1  C   UNL     1      -5.684   7.086  67.796  1.00  0.00    -0.024 C  
HETATM    2  C   UNL     1      -6.441   6.438  68.952  1.00  0.00    -0.043 C  
HETATM    3  C   UNL     2      -6.515  10.437  68.133  1.00  0.00    -0.056 C  
HETATM    4  O   UNL     2      -6.789   9.559  69.213  1.00  0.00    -0.048 OA 
ENDROOT
BRANCH   2   5
HETATM    5  C   UNL     1      -7.802   5.740  68.611  1.00  0.00    -0.097 C  
HETATM    6  O   UNL     1      -8.779   5.752  70.874  1.00  0.00    -0.131 OA 
HETATM    7  C   UNL     1      -7.395   4.630  67.627  1.00  0.00    -0.074 C  
HETATM    8  C   UNL     1      -8.382   5.107  69.900  1.00  0.00    -0.093 C  
HETATM    9  H   UNL     1      -9.164   3.334  70.571  1.00  0.00     0.000 HD 
HETATM   10  N   UNL     1      -6.995   3.453  68.197  1.00  0.00    -0.049 N  
HETATM   11  O   UNL     1      -7.330   4.768  66.411  1.00  0.00    -0.079 OA 
HETATM   12  O   UNL     1      -7.889   1.668  69.236  1.00  0.00    -0.042 OA 
HETATM   13  N   UNL     1      -8.496   3.741  69.917  1.00  0.00    -0.055 N  
HETATM   14  C   UNL     1      -7.791   2.888  69.134  1.00  0.00    -0.046 C  
HETATM   15  H   UNL     1      -6.118   3.011  67.922  1.00  0.00     0.000 HD 
BRANCH   5  16
HETATM   16  C   UNL     1      -8.800   6.735  67.982  1.00  0.00    -0.119 A  
HETATM   17  C   UNL     1      -9.246   8.654  66.544  1.00  0.00    -0.236 A  
HETATM   18  C   UNL     1      -8.371   7.913  67.343  1.00  0.00    -0.123 A  
HETATM   19  C   UNL     1     -10.172   6.433  67.930  1.00  0.00    -0.200 A  
HETATM   20  C   UNL     1     -10.569   8.252  66.396  1.00  0.00     0.353 A  
HETATM   21  C   UNL     1     -11.040   7.160  67.116  1.00  0.00    -0.220 A  
ENDBRANCH   5  16
ENDBRANCH   2   5
BRANCH   4  22
HETATM   22  C   UNL     2      -7.990   9.710  69.833  1.00  0.00    -0.167 A  
HETATM   23  C   UNL     2      -8.370   9.161  71.041  1.00  0.00    -0.205 A  
HETATM   24  C   UNL     2     -10.180  10.822  69.616  1.00  0.00    -0.099 A  
HETATM   25  C   UNL     2     -12.388  11.809  69.549  1.00  0.00    -0.120 A  
HETATM   26  C   UNL     2      -9.647   9.435  71.535  1.00  0.00     0.039 A  
HETATM   27  C   UNL     2     -12.650  11.172  70.750  1.00  0.00    -0.352 A  
HETATM   28  C   UNL     2      -8.858  10.580  69.181  1.00  0.00    -0.161 A  
HETATM   29  C   UNL     2     -11.139  11.639  68.931  1.00  0.00    -0.287 A  
HETATM   30  C   UNL     2     -10.565  10.216  70.838  1.00  0.00     0.120 A  
HETATM   31  N   UNL     2     -11.772  10.379  71.388  1.00  0.00    -0.247 NA 
BRANCH  29  32
HETATM   32  C   UNL     2     -10.824  12.404  67.630  1.00  0.00    -0.225 C  
HETATM   33  H   UNL     2     -11.288  12.286  65.705  1.00  0.00     0.000 HD 
HETATM   34  O   UNL     2     -11.483  11.815  66.507  1.00  0.00    -0.395 OA 
BRANCH  32  35
HETATM   35  C   UNL     2     -11.168  13.939  67.603  1.00  0.00    -0.295 C  
HETATM   36  C   UNL     2     -10.266  15.877  66.253  1.00  0.00    -0.324 C  
HETATM   37  C   UNL     2     -11.012  16.773  67.257  1.00  0.00    -0.040 C  
HETATM   38  C   UNL     2     -11.001  16.116  68.646  1.00  0.00    -0.336 C  
HETATM   39  C   UNL     2     -11.039  14.547  66.182  1.00  0.00    -0.334 C  
HETATM   40  N   UNL     2     -10.398  14.762  68.599  1.00  0.00    -0.238 NA 
HETATM   41  C   UNL     2      -8.977  14.942  68.197  1.00  0.00    -0.176 C  
HETATM   42  C   UNL     2      -8.844  15.549  66.776  1.00  0.00    -0.297 C  
BRANCH  42  43
HETATM   43  C   UNL     2      -7.939  16.759  66.773  1.00  0.00    -0.275 C  
HETATM   44  C   UNL     2      -6.664  16.753  66.363  1.00  0.00    -0.056 C  
ENDBRANCH  42  43
ENDBRANCH  32  35
ENDBRANCH  29  32
ENDBRANCH   4  22
TORSDOF 6
ENDMDL
MODEL      202
REMARK 921   NORMALIZED FREE ENERGY PREDICTED BY IDOCK:   -2.73 KCAL/MOL
REMARK 922        TOTAL FREE ENERGY PREDICTED BY IDOCK:   -6.77 KCAL/MOL
REMARK 923 INTER-LIGAND FREE ENERGY PREDICTED BY IDOCK:   -5.82 KCAL/MOL
REMARK 924 INTRA-LIGAND FREE ENERGY PREDICTED BY IDOCK:   -0.95 KCAL/MOL
REMARK 927      BINDING AFFINITY PREDICTED BY RF-SCORE:    0.00 PKD
ROOT
HETATM    1  C   UNL     1      -9.285   5.372  65.757  1.00  0.00    -0.149 C  
HETATM    2  C   UNL     1     -10.008   6.661  66.141  1.00  0.00     0.132 C  
HETATM    3  C   UNL     2      -9.446   3.516  68.683  1.00  0.00    -0.141 C  
HETATM    4  O   UNL     2     -10.279   4.657  68.558  1.00  0.00    -0.067 OA 
ENDROOT
BRANCH   2   5
HETATM    5  C   UNL     1      -9.117   7.892  66.520  1.00  0.00    -0.209 C  
HETATM    6  O   UNL     1      -7.730   6.803  68.244  1.00  0.00    -0.102 OA 
HETATM    7  C   UNL     1     -10.115   9.063  66.533  1.00  0.00    -0.283 C  
HETATM    8  C   UNL     1      -8.543   7.681  67.943  1.00  0.00    -0.122 C  
HETATM    9  H   UNL     1      -8.350   8.673  69.728  1.00  0.00     0.000 HD 
HETATM   10  N   UNL     1     -10.786   9.254  67.708  1.00  0.00    -0.480 N  
HETATM   11  O   UNL     1     -10.392   9.751  65.557  1.00  0.00    -0.178 OA 
HETATM   12  O   UNL     1     -10.415  10.058  69.777  1.00  0.00    -0.222 OA 
HETATM   13  N   UNL     1      -8.945   8.570  68.907  1.00  0.00    -0.145 N  
HETATM   14  C   UNL     1     -10.072   9.323  68.854  1.00  0.00    -0.195 C  
HETATM   15  H   UNL     1     -11.803   9.343  67.721  1.00  0.00     0.000 HD 
BRANCH   5  16
HETATM   16  C   UNL     1      -7.986   8.104  65.492  1.00  0.00    -0.112 A  
HETATM   17  C   UNL     1      -7.222   8.162  63.176  1.00  0.00    -0.091 A  
HETATM   18  C   UNL     1      -8.125   7.718  64.146  1.00  0.00    -0.068 A  
HETATM   19  C   UNL     1      -6.818   8.801  65.848  1.00  0.00    -0.068 A  
HETATM   20  C   UNL     1      -6.149   8.969  63.538  1.00  0.00    -0.088 A  
HETATM   21  C   UNL     1      -5.928   9.260  64.878  1.00  0.00    -0.065 A  
ENDBRANCH   5  16
ENDBRANCH   2   5
BRANCH   4  22
HETATM   22  C   UNL     2     -10.378   5.463  69.649  1.00  0.00    -0.291 A  
HETATM   23  C   UNL     2     -11.499   6.151  70.067  1.00  0.00    -0.369 A  
HETATM   24  C   UNL     2      -9.096   6.324  71.571  1.00  0.00    -0.145 A  
HETATM   25  C   UNL     2      -7.980   7.289  73.489  1.00  0.00    -0.133 A  
HETATM   26  C   UNL     2     -11.422   6.926  71.227  1.00  0.00    -0.337 A  
HETATM   27  C   UNL     2      -9.163   7.950  73.776  1.00  0.00    -0.203 A  
HETATM   28  C   UNL     2      -9.230   5.497  70.434  1.00  0.00    -0.182 A  
HETATM   29  C   UNL     2      -7.905   6.461  72.358  1.00  0.00    -0.102 A  
HETATM   30  C   UNL     2     -10.246   7.056  71.960  1.00  0.00    -0.190 A  
HETATM   31  N   UNL     2     -10.277   7.856  73.030  1.00  0.00    -0.322 NA 
BRANCH  29  32
HETATM   32  C   UNL     2      -6.611   5.671  72.079  1.00  0.00    -0.058 C  
HETATM   33  H   UNL     2      -4.666   5.869  72.415  1.00  0.00     0.000 HD 
HETATM   34  O   UNL     2      -5.463   6.356  72.587  1.00  0.00    -0.035 OA 
BRANCH  32  35
HETATM   35  C   UNL     2      -6.540   4.199  72.629  1.00  0.00    -0.036 C  
HETATM   36  C   UNL     2      -7.938   2.137  72.199  1.00  0.00    -0.053 C  
HETATM   37  C   UNL     2      -7.221   1.538  73.422  1.00  0.00    -0.027 C  
HETATM   38  C   UNL     2      -6.926   2.647  74.443  1.00  0.00    -0.035 C  
HETATM   39  C   UNL     2      -6.968   3.152  71.567  1.00  0.00    -0.031 C  
HETATM   40  N   UNL     2      -7.291   3.982  73.914  1.00  0.00    -0.065 NA 
HETATM   41  C   UNL     2      -8.764   3.970  73.706  1.00  0.00    -0.093 C  
HETATM   42  C   UNL     2      -9.196   2.926  72.644  1.00  0.00    -0.128 C  
BRANCH  42  43
HETATM   43  C   UNL     2     -10.285   2.019  73.169  1.00  0.00    -0.195 C  
HETATM   44  C   UNL     2     -10.888   2.166  74.356  1.00  0.00    -0.136 C  
ENDBRANCH  42  43
ENDBRANCH  32  35
ENDBRANCH  29  32
ENDBRANCH   4  22
TORSDOF 6
ENDMDL
MODEL      203
REMARK 921   NORMALIZED FREE ENERGY PREDICTED BY IDOCK:   -2.71 KCAL/MOL
REMARK 922        TOTAL FREE ENERGY PREDICTED BY IDOCK:   -6.74 KCAL/MOL
REMARK 923 INTER-LIGAND FREE ENERGY PREDICTED BY IDOCK:   -5.39 KCAL/MOL
REMARK 924 INTRA-LIGAND FREE ENERGY PREDICTED BY IDOCK:   -1.35 KCAL/MOL
REMARK 927      BINDING AFFINITY PREDICTED BY RF-SCORE:    0.00 PKD
ROOT
HETATM    1  C   UNL     1      -7.097   7.309  69.454  1.00  0.00    -0.074 C  
HETATM    2  C   UNL     1      -8.349   6.845  68.712  1.00  0.00    -0.121 C  
HETATM    3  C   UNL     2      -7.546  10.745  69.617  1.00  0.00    -0.042 C  
HETATM    4  O   UNL     2      -8.654   9.933  69.263  1.00  0.00    -0.141 OA 
ENDROOT
BRANCH   2   5
HETATM    5  C   UNL     1      -8.201   6.553  67.180  1.00  0.00    -0.113 C  
HETATM    6  O   UNL     1     -10.573   6.789  66.548  1.00  0.00    -0.157 OA 
HETATM    7  C   UNL     1      -7.193   5.392  67.135  1.00  0.00    -0.075 C  
HETATM    8  C   UNL     1      -9.566   6.079  66.622  1.00  0.00    -0.154 C  
HETATM    9  H   UNL     1     -10.367   4.575  65.480  1.00  0.00     0.000 HD 
HETATM   10  N   UNL     1      -7.727   4.141  67.268  1.00  0.00    -0.087 N  
HETATM   11  O   UNL     1      -5.977   5.529  67.075  1.00  0.00    -0.017 OA 
HETATM   12  O   UNL     1      -8.906   2.649  66.065  1.00  0.00    -0.127 OA 
HETATM   13  N   UNL     1      -9.623   4.796  66.142  1.00  0.00    -0.163 N  
HETATM   14  C   UNL     1      -8.770   3.798  66.478  1.00  0.00    -0.118 C  
HETATM   15  H   UNL     1      -7.348   3.480  67.947  1.00  0.00     0.000 HD 
BRANCH   5  16
HETATM   16  C   UNL     1      -7.691   7.795  66.418  1.00  0.00    -0.093 A  
HETATM   17  C   UNL     1      -8.056   9.561  64.777  1.00  0.00    -0.130 A  
HETATM   18  C   UNL     1      -8.357   8.294  65.283  1.00  0.00    -0.175 A  
HETATM   19  C   UNL     1      -6.602   8.536  66.908  1.00  0.00    -0.058 A  
HETATM   20  C   UNL     1      -7.065  10.335  65.370  1.00  0.00    -0.139 A  
HETATM   21  C   UNL     1      -6.315   9.808  66.415  1.00  0.00    -0.070 A  
ENDBRANCH   5  16
ENDBRANCH   2   5
BRANCH   4  22
HETATM   22  C   UNL     2      -9.436  10.378  68.243  1.00  0.00    -0.148 A  
HETATM   23  C   UNL     2     -10.481   9.699  67.648  1.00  0.00    -0.317 A  
HETATM   24  C   UNL     2      -9.814  12.315  66.765  1.00  0.00    -0.218 A  
HETATM   25  C   UNL     2     -10.300  14.108  65.215  1.00  0.00    -0.409 A  
HETATM   26  C   UNL     2     -11.188  10.320  66.615  1.00  0.00     0.283 A  
HETATM   27  C   UNL     2     -11.298  13.307  64.686  1.00  0.00    -0.346 A  
HETATM   28  C   UNL     2      -9.167  11.685  67.852  1.00  0.00    -0.171 A  
HETATM   29  C   UNL     2      -9.508  13.625  66.269  1.00  0.00    -0.209 A  
HETATM   30  C   UNL     2     -10.856  11.586  66.141  1.00  0.00    -0.278 A  
HETATM   31  N   UNL     2     -11.575  12.065  65.121  1.00  0.00    -0.308 NA 
BRANCH  29  32
HETATM   32  C   UNL     2      -8.444  14.544  66.902  1.00  0.00    -0.150 C  
HETATM   33  H   UNL     2      -7.148  15.921  66.305  1.00  0.00     0.000 HD 
HETATM   34  O   UNL     2      -7.803  15.356  65.915  1.00  0.00     0.983 OA 
BRANCH  32  35
HETATM   35  C   UNL     2      -8.925  15.513  68.044  1.00  0.00    -0.174 C  
HETATM   36  C   UNL     2     -10.882  17.101  68.237  1.00  0.00    -0.314 C  
HETATM   37  C   UNL     2     -10.155  17.664  69.471  1.00  0.00     0.088 C  
HETATM   38  C   UNL     2      -8.636  17.586  69.257  1.00  0.00     0.252 C  
HETATM   39  C   UNL     2     -10.470  15.623  68.112  1.00  0.00    -0.259 C  
HETATM   40  N   UNL     2      -8.302  16.882  67.996  1.00  0.00    -0.199 NA 
HETATM   41  C   UNL     2      -8.851  17.708  66.887  1.00  0.00    -0.246 C  
HETATM   42  C   UNL     2     -10.396  17.819  66.951  1.00  0.00    -0.344 C  
BRANCH  42  43
HETATM   43  C   UNL     2     -10.852  19.258  66.892  1.00  0.00    -0.479 C  
HETATM   44  C   UNL     2     -10.590  20.097  65.880  1.00  0.00    -0.374 C  
ENDBRANCH  42  43
ENDBRANCH  32  35
ENDBRANCH  29  32
ENDBRANCH   4  22
TORSDOF 6
ENDMDL
MODEL      204
REMARK 921   NORMALIZED FREE ENERGY PREDICTED BY IDOCK:   -2.70 KCAL/MOL
REMARK 922        TOTAL FREE ENERGY PREDICTED BY IDOCK:   -6.73 KCAL/MOL
REMARK 923 INTER-LIGAND FREE ENERGY PREDICTED BY IDOCK:   -7.56 KCAL/MOL
REMARK 924 INTRA-LIGAND FREE ENERGY PREDICTED BY IDOCK:    0.83 KCAL/MOL
REMARK 927      BINDING AFFINITY PREDICTED BY RF-SCORE:    0.00 PKD
ROOT
HETATM    1  C   UNL     1     -12.013  14.941  67.935  1.00  0.00    -0.206 C  
HETATM    2  C   UNL     1     -10.602  15.507  67.786  1.00  0.00    -0.281 C  
HETATM    3  C   UNL     2     -11.413  11.670  68.920  1.00  0.00    -0.287 C  
HETATM    4  O   UNL     2     -10.345  12.601  68.977  1.00  0.00    -0.095 OA 
ENDROOT
BRANCH   2   5
HETATM    5  C   UNL     1     -10.014  15.582  66.336  1.00  0.00    -0.300 C  
HETATM    6  O   UNL     1     -10.959  17.765  65.687  1.00  0.00    -0.203 OA 
HETATM    7  C   UNL     1     -10.181  14.146  65.810  1.00  0.00    -0.332 C  
HETATM    8  C   UNL     1     -10.879  16.550  65.490  1.00  0.00    -0.188 C  
HETATM    9  H   UNL     1     -11.836  16.634  63.678  1.00  0.00     0.000 HD 
HETATM   10  N   UNL     1     -11.394  13.860  65.247  1.00  0.00    -0.306 N  
HETATM   11  O   UNL     1      -9.349  13.256  65.943  1.00  0.00    -0.092 OA 
HETATM   12  O   UNL     1     -12.537  14.271  63.353  1.00  0.00    -0.777 OA 
HETATM   13  N   UNL     1     -11.554  16.004  64.428  1.00  0.00    -0.343 N  
HETATM   14  C   UNL     1     -11.876  14.694  64.297  1.00  0.00    -0.337 C  
HETATM   15  H   UNL     1     -11.923  13.037  65.536  1.00  0.00     0.000 HD 
BRANCH   5  16
HETATM   16  C   UNL     1      -8.537  16.026  66.352  1.00  0.00    -0.369 A  
HETATM   17  C   UNL     1      -6.847  17.749  65.997  1.00  0.00    -0.327 A  
HETATM   18  C   UNL     1      -8.115  17.221  65.740  1.00  0.00     0.205 A  
HETATM   19  C   UNL     1      -7.580  15.301  67.083  1.00  0.00    -0.224 A  
HETATM   20  C   UNL     1      -5.968  17.078  66.840  1.00  0.00    -0.226 A  
HETATM   21  C   UNL     1      -6.322  15.837  67.355  1.00  0.00    -0.173 A  
ENDBRANCH   5  16
ENDBRANCH   2   5
BRANCH   4  22
HETATM   22  C   UNL     2      -9.133  12.167  68.537  1.00  0.00    -0.090 A  
HETATM   23  C   UNL     2      -7.950  12.878  68.543  1.00  0.00    -0.095 A  
HETATM   24  C   UNL     2      -7.986  10.210  67.569  1.00  0.00    -0.106 A  
HETATM   25  C   UNL     2      -6.712   8.402  66.588  1.00  0.00    -0.061 A  
HETATM   26  C   UNL     2      -6.791  12.265  68.062  1.00  0.00    -0.082 A  
HETATM   27  C   UNL     2      -5.607   9.236  66.621  1.00  0.00    -0.046 A  
HETATM   28  C   UNL     2      -9.122  10.838  68.126  1.00  0.00    -0.151 A  
HETATM   29  C   UNL     2      -7.951   8.874  67.050  1.00  0.00    -0.102 A  
HETATM   30  C   UNL     2      -6.791  10.972  67.546  1.00  0.00    -0.084 A  
HETATM   31  N   UNL     2      -5.632  10.501  67.076  1.00  0.00    -0.042 NA 
BRANCH  29  32
HETATM   32  C   UNL     2      -9.164   7.923  67.078  1.00  0.00    -0.148 C  
HETATM   33  H   UNL     2     -10.961   7.806  66.248  1.00  0.00     0.000 HD 
HETATM   34  O   UNL     2     -10.214   8.393  66.230  1.00  0.00    -0.212 OA 
BRANCH  32  35
HETATM   35  C   UNL     2      -8.903   6.421  66.688  1.00  0.00    -0.130 C  
HETATM   36  C   UNL     2      -9.965   4.248  67.421  1.00  0.00    -0.120 C  
HETATM   37  C   UNL     2      -8.771   3.565  66.731  1.00  0.00    -0.124 C  
HETATM   38  C   UNL     2      -7.519   4.446  66.872  1.00  0.00    -0.081 C  
HETATM   39  C   UNL     2     -10.205   5.579  66.685  1.00  0.00    -0.279 C  
HETATM   40  N   UNL     2      -7.840   5.745  67.510  1.00  0.00    -0.101 NA 
HETATM   41  C   UNL     2      -8.309   5.439  68.888  1.00  0.00    -0.100 C  
HETATM   42  C   UNL     2      -9.611   4.598  68.890  1.00  0.00    -0.233 C  
BRANCH  42  43
HETATM   43  C   UNL     2      -9.475   3.366  69.755  1.00  0.00    -0.229 C  
HETATM   44  C   UNL     2      -8.337   2.976  70.346  1.00  0.00    -0.079 C  
ENDBRANCH  42  43
ENDBRANCH  32  35
ENDBRANCH  29  32
ENDBRANCH   4  22
TORSDOF 6
ENDMDL
MODEL      205
REMARK 921   NORMALIZED FREE ENERGY PREDICTED BY IDOCK:   -2.69 KCAL/MOL
REMARK 922        TOTAL FREE ENERGY PREDICTED BY IDOCK:   -6.71 KCAL/MOL
REMARK 923 INTER-LIGAND FREE ENERGY PREDICTED BY IDOCK:   -6.07 KCAL/MOL
REMARK 924 INTRA-LIGAND FREE ENERGY PREDICTED BY IDOCK:   -0.64 KCAL/MOL
REMARK 927      BINDING AFFINITY PREDICTED BY RF-SCORE:    0.00 PKD
ROOT
HETATM    1  C   UNL     1      -5.815   8.402  66.513  1.00  0.00    -0.044 C  
HETATM    2  C   UNL     1      -6.560   7.164  67.006  1.00  0.00    -0.059 C  
HETATM    3  C   UNL     2      -6.714  10.803  68.848  1.00  0.00    -0.064 C  
HETATM    4  O   UNL     2      -6.971   9.441  69.145  1.00  0.00    -0.056 OA 
ENDROOT
BRANCH   2   5
HETATM    5  C   UNL     1      -7.905   6.809  66.287  1.00  0.00    -0.104 C  
HETATM    6  O   UNL     1      -6.959   5.924  64.189  1.00  0.00    -0.048 OA 
HETATM    7  C   UNL     1      -8.817   8.000  66.630  1.00  0.00    -0.145 C  
HETATM    8  C   UNL     1      -7.664   6.762  64.757  1.00  0.00    -0.111 C  
HETATM    9  H   UNL     1      -8.461   7.487  63.012  1.00  0.00     0.000 HD 
HETATM   10  N   UNL     1      -8.717   9.079  65.797  1.00  0.00    -0.158 N  
HETATM   11  O   UNL     1      -9.534   8.063  67.621  1.00  0.00    -0.141 OA 
HETATM   12  O   UNL     1      -9.339   9.702  63.725  1.00  0.00    -0.215 OA 
HETATM   13  N   UNL     1      -8.324   7.696  64.001  1.00  0.00     0.040 N  
HETATM   14  C   UNL     1      -8.810   8.874  64.463  1.00  0.00    -0.026 C  
HETATM   15  H   UNL     1      -8.577  10.018  66.172  1.00  0.00     0.000 HD 
BRANCH   5  16
HETATM   16  C   UNL     1      -8.480   5.471  66.799  1.00  0.00    -0.111 A  
HETATM   17  C   UNL     1      -8.784   3.857  68.602  1.00  0.00    -0.133 A  
HETATM   18  C   UNL     1      -8.067   4.904  68.019  1.00  0.00    -0.093 A  
HETATM   19  C   UNL     1      -9.527   4.834  66.110  1.00  0.00    -0.164 A  
HETATM   20  C   UNL     1      -9.904   3.336  67.962  1.00  0.00     0.169 A  
HETATM   21  C   UNL     1     -10.255   3.801  66.701  1.00  0.00     0.523 A  
ENDBRANCH   5  16
ENDBRANCH   2   5
BRANCH   4  22
HETATM   22  C   UNL     2      -8.176   9.155  69.709  1.00  0.00    -0.128 A  
HETATM   23  C   UNL     2      -8.467   8.089  70.536  1.00  0.00    -0.125 A  
HETATM   24  C   UNL     2     -10.495   9.970  69.892  1.00  0.00    -0.317 A  
HETATM   25  C   UNL     2     -12.815  10.606  70.153  1.00  0.00    -0.146 A  
HETATM   26  C   UNL     2      -9.765   7.959  71.037  1.00  0.00    -0.178 A  
HETATM   27  C   UNL     2     -12.979   9.479  70.941  1.00  0.00    -0.122 A  
HETATM   28  C   UNL     2      -9.157  10.108  69.460  1.00  0.00    -0.213 A  
HETATM   29  C   UNL     2     -11.561  10.880  69.585  1.00  0.00    -0.394 A  
HETATM   30  C   UNL     2     -10.784   8.846  70.706  1.00  0.00    -0.233 A  
HETATM   31  N   UNL     2     -11.997   8.601  71.211  1.00  0.00    -0.289 NA 
BRANCH  29  32
HETATM   32  C   UNL     2     -11.362  12.171  68.766  1.00  0.00    -0.288 C  
HETATM   33  H   UNL     2     -10.142  13.734  68.758  1.00  0.00     0.000 HD 
HETATM   34  O   UNL     2     -10.264  12.939  69.263  1.00  0.00     0.163 OA 
BRANCH  32  35
HETATM   35  C   UNL     2     -11.138  12.007  67.218  1.00  0.00    -0.285 C  
HETATM   36  C   UNL     2      -9.983  13.445  65.490  1.00  0.00    -0.226 C  
HETATM   37  C   UNL     2     -10.668  12.543  64.449  1.00  0.00    -0.379 C  
HETATM   38  C   UNL     2     -12.041  12.096  64.976  1.00  0.00    -0.243 C  
HETATM   39  C   UNL     2      -9.778  12.591  66.755  1.00  0.00    -0.234 C  
HETATM   40  N   UNL     2     -12.258  12.546  66.371  1.00  0.00    -0.555 NA 
HETATM   41  C   UNL     2     -12.272  14.033  66.342  1.00  0.00    -0.460 C  
HETATM   42  C   UNL     2     -10.913  14.622  65.880  1.00  0.00    -0.332 C  
BRANCH  42  43
HETATM   43  C   UNL     2     -11.092  15.610  64.751  1.00  0.00    -0.426 C  
HETATM   44  C   UNL     2     -12.147  15.638  63.926  1.00  0.00     0.276 C  
ENDBRANCH  42  43
ENDBRANCH  32  35
ENDBRANCH  29  32
ENDBRANCH   4  22
TORSDOF 6
ENDMDL
MODEL      206
REMARK 921   NORMALIZED FREE ENERGY PREDICTED BY IDOCK:   -2.68 KCAL/MOL
REMARK 922        TOTAL FREE ENERGY PREDICTED BY IDOCK:   -6.70 KCAL/MOL
REMARK 923 INTER-LIGAND FREE ENERGY PREDICTED BY IDOCK:   -8.67 KCAL/MOL
REMARK 924 INTRA-LIGAND FREE ENERGY PREDICTED BY IDOCK:    1.97 KCAL/MOL
REMARK 927      BINDING AFFINITY PREDICTED BY RF-SCORE:    0.00 PKD
ROOT
HETATM    1  C   UNL     1     -10.389   8.115  67.056  1.00  0.00    -0.403 C  
HETATM    2  C   UNL     1      -9.451   7.564  68.127  1.00  0.00    -0.147 C  
HETATM    3  C   UNL     2      -8.886  11.125  66.210  1.00  0.00    -0.185 C  
HETATM    4  O   UNL     2      -8.139  10.182  66.962  1.00  0.00    -0.116 OA 
ENDROOT
BRANCH   2   5
HETATM    5  C   UNL     1      -9.881   7.760  69.621  1.00  0.00    -0.182 C  
HETATM    6  O   UNL     1      -7.820   8.838  70.441  1.00  0.00    -0.079 OA 
HETATM    7  C   UNL     1     -10.607   6.446  69.957  1.00  0.00    -0.236 C  
HETATM    8  C   UNL     1      -8.612   7.893  70.499  1.00  0.00    -0.131 C  
HETATM    9  H   UNL     1      -7.799   7.130  72.220  1.00  0.00     0.000 HD 
HETATM   10  N   UNL     1      -9.808   5.420  70.377  1.00  0.00    -0.190 N  
HETATM   11  O   UNL     1     -11.806   6.253  69.791  1.00  0.00    -0.319 OA 
HETATM   12  O   UNL     1      -8.651   4.793  72.203  1.00  0.00    -0.117 OA 
HETATM   13  N   UNL     1      -8.400   6.907  71.427  1.00  0.00    -0.114 N  
HETATM   14  C   UNL     1      -8.926   5.658  71.374  1.00  0.00    -0.140 C  
HETATM   15  H   UNL     1      -9.874   4.497  69.949  1.00  0.00     0.000 HD 
BRANCH   5  16
HETATM   16  C   UNL     1     -10.800   8.990  69.783  1.00  0.00    -0.215 A  
HETATM   17  C   UNL     1     -12.235  10.382  71.180  1.00  0.00    -0.498 A  
HETATM   18  C   UNL     1     -11.629   9.153  70.909  1.00  0.00    -0.350 A  
HETATM   19  C   UNL     1     -10.748  10.047  68.858  1.00  0.00    -0.243 A  
HETATM   20  C   UNL     1     -12.053  11.457  70.317  1.00  0.00    -0.459 A  
HETATM   21  C   UNL     1     -11.337  11.280  69.139  1.00  0.00    -0.349 A  
ENDBRANCH   5  16
ENDBRANCH   2   5
BRANCH   4  22
HETATM   22  C   UNL     2      -7.399  10.672  67.993  1.00  0.00    -0.088 A  
HETATM   23  C   UNL     2      -6.664   9.938  68.902  1.00  0.00    -0.053 A  
HETATM   24  C   UNL     2      -6.693  12.773  69.072  1.00  0.00    -0.096 A  
HETATM   25  C   UNL     2      -5.931  14.731  70.273  1.00  0.00    -0.160 A  
HETATM   26  C   UNL     2      -5.950  10.614  69.894  1.00  0.00    -0.076 A  
HETATM   27  C   UNL     2      -5.266  13.876  71.135  1.00  0.00    -0.151 A  
HETATM   28  C   UNL     2      -7.346  12.060  68.042  1.00  0.00    -0.102 A  
HETATM   29  C   UNL     2      -6.686  14.200  69.215  1.00  0.00    -0.122 A  
HETATM   30  C   UNL     2      -5.978  11.999  70.021  1.00  0.00    -0.159 A  
HETATM   31  N   UNL     2      -5.289  12.536  71.032  1.00  0.00    -0.209 NA 
BRANCH  29  32
HETATM   32  C   UNL     2      -7.369  15.154  68.215  1.00  0.00    -0.113 C  
HETATM   33  H   UNL     2      -7.844  15.171  66.289  1.00  0.00     0.000 HD 
HETATM   34  O   UNL     2      -7.424  14.583  66.905  1.00  0.00     0.045 OA 
BRANCH  32  35
HETATM   35  C   UNL     2      -8.828  15.630  68.563  1.00  0.00    -0.187 C  
HETATM   36  C   UNL     2     -11.082  14.494  68.429  1.00  0.00    -0.271 C  
HETATM   37  C   UNL     2     -11.673  15.898  68.644  1.00  0.00    -0.328 C  
HETATM   38  C   UNL     2     -10.770  16.947  67.977  1.00  0.00    -0.364 C  
HETATM   39  C   UNL     2      -9.706  14.478  69.120  1.00  0.00    -0.062 C  
HETATM   40  N   UNL     2      -9.534  16.333  67.437  1.00  0.00    -0.226 NA 
HETATM   41  C   UNL     2      -9.959  15.390  66.367  1.00  0.00    -0.278 C  
HETATM   42  C   UNL     2     -10.836  14.237  66.920  1.00  0.00    -0.298 C  
BRANCH  42  43
HETATM   43  C   UNL     2     -12.126  14.102  66.144  1.00  0.00    -0.454 C  
HETATM   44  C   UNL     2     -12.276  14.434  64.855  1.00  0.00    -0.440 C  
ENDBRANCH  42  43
ENDBRANCH  32  35
ENDBRANCH  29  32
ENDBRANCH   4  22
TORSDOF 6
ENDMDL
MODEL      207
REMARK 921   NORMALIZED FREE ENERGY PREDICTED BY IDOCK:   -2.67 KCAL/MOL
REMARK 922        TOTAL FREE ENERGY PREDICTED BY IDOCK:   -6.68 KCAL/MOL
REMARK 923 INTER-LIGAND FREE ENERGY PREDICTED BY IDOCK:   -7.17 KCAL/MOL
REMARK 924 INTRA-LIGAND FREE ENERGY PREDICTED BY IDOCK:    0.49 KCAL/MOL
REMARK 927      BINDING AFFINITY PREDICTED BY RF-SCORE:    0.00 PKD
ROOT
HETATM    1  C   UNL     1      -5.750   8.552  64.815  1.00  0.00    -0.048 C  
HETATM    2  C   UNL     1      -6.547   7.468  65.537  1.00  0.00    -0.045 C  
HETATM    3  C   UNL     2      -6.030  11.255  66.970  1.00  0.00    -0.100 C  
HETATM    4  O   UNL     2      -6.389   9.969  67.447  1.00  0.00    -0.065 OA 
ENDROOT
BRANCH   2   5
HETATM    5  C   UNL     1      -8.014   7.217  65.048  1.00  0.00    -0.129 C  
HETATM    6  O   UNL     1      -7.614   7.417  62.623  1.00  0.00    -0.096 OA 
HETATM    7  C   UNL     1      -8.865   8.004  66.060  1.00  0.00    -0.162 C  
HETATM    8  C   UNL     1      -8.187   7.829  63.635  1.00  0.00     0.024 C  
HETATM    9  H   UNL     1      -9.460   9.053  62.592  1.00  0.00     0.000 HD 
HETATM   10  N   UNL     1      -9.052   9.327  65.773  1.00  0.00    -0.193 N  
HETATM   11  O   UNL     1      -9.295   7.546  67.112  1.00  0.00    -0.132 OA 
HETATM   12  O   UNL     1     -10.237  10.619  64.361  1.00  0.00    -0.346 OA 
HETATM   13  N   UNL     1      -9.076   8.866  63.518  1.00  0.00     0.264 N  
HETATM   14  C   UNL     1      -9.485   9.663  64.536  1.00  0.00    -0.113 C  
HETATM   15  H   UNL     1      -8.868  10.045  66.474  1.00  0.00     0.000 HD 
BRANCH   5  16
HETATM   16  C   UNL     1      -8.357   5.712  65.047  1.00  0.00    -0.146 A  
HETATM   17  C   UNL     1     -10.015   3.925  65.122  1.00  0.00    -0.171 A  
HETATM   18  C   UNL     1      -9.638   5.243  65.393  1.00  0.00     0.044 A  
HETATM   19  C   UNL     1      -7.424   4.768  64.586  1.00  0.00    -0.072 A  
HETATM   20  C   UNL     1      -9.112   3.046  64.533  1.00  0.00    -0.128 A  
HETATM   21  C   UNL     1      -7.806   3.458  64.297  1.00  0.00    -0.081 A  
ENDBRANCH   5  16
ENDBRANCH   2   5
BRANCH   4  22
HETATM   22  C   UNL     2      -7.522   9.890  68.195  1.00  0.00    -0.080 A  
HETATM   23  C   UNL     2      -7.751   9.040  69.258  1.00  0.00    -0.090 A  
HETATM   24  C   UNL     2      -9.762  10.884  68.469  1.00  0.00    -0.183 A  
HETATM   25  C   UNL     2     -11.999  11.719  68.857  1.00  0.00    -0.332 A  
HETATM   26  C   UNL     2      -8.978   9.106  69.923  1.00  0.00    -0.183 A  
HETATM   27  C   UNL     2     -12.109  10.793  69.880  1.00  0.00    -0.337 A  
HETATM   28  C   UNL     2      -8.486  10.837  67.865  1.00  0.00    -0.122 A  
HETATM   29  C   UNL     2     -10.817  11.782  68.102  1.00  0.00    -0.258 A  
HETATM   30  C   UNL     2      -9.992   9.975  69.532  1.00  0.00    -0.228 A  
HETATM   31  N   UNL     2     -11.140   9.924  70.215  1.00  0.00    -0.285 NA 
BRANCH  29  32
HETATM   32  C   UNL     2     -10.670  12.860  67.009  1.00  0.00    -0.257 C  
HETATM   33  H   UNL     2     -11.837  13.822  65.725  1.00  0.00     0.000 HD 
HETATM   34  O   UNL     2     -11.928  13.158  66.399  1.00  0.00    -0.384 OA 
BRANCH  32  35
HETATM   35  C   UNL     2     -10.039  14.234  67.441  1.00  0.00    -0.247 C  
HETATM   36  C   UNL     2      -9.761  15.366  69.684  1.00  0.00    -0.251 C  
HETATM   37  C   UNL     2      -9.409  16.626  68.875  1.00  0.00    -0.244 C  
HETATM   38  C   UNL     2     -10.215  16.644  67.567  1.00  0.00    -0.289 C  
HETATM   39  C   UNL     2      -9.348  14.155  68.827  1.00  0.00    -0.092 C  
HETATM   40  N   UNL     2     -10.995  15.395  67.395  1.00  0.00    -0.311 NA 
HETATM   41  C   UNL     2     -11.981  15.352  68.507  1.00  0.00    -0.181 C  
HETATM   42  C   UNL     2     -11.294  15.271  69.895  1.00  0.00    -0.308 C  
BRANCH  42  43
HETATM   43  C   UNL     2     -11.810  16.339  70.832  1.00  0.00    -0.191 C  
HETATM   44  C   UNL     2     -11.977  16.176  72.151  1.00  0.00    -0.623 C  
ENDBRANCH  42  43
ENDBRANCH  32  35
ENDBRANCH  29  32
ENDBRANCH   4  22
TORSDOF 6
ENDMDL
MODEL      208
REMARK 921   NORMALIZED FREE ENERGY PREDICTED BY IDOCK:   -2.63 KCAL/MOL
REMARK 922        TOTAL FREE ENERGY PREDICTED BY IDOCK:   -6.63 KCAL/MOL
REMARK 923 INTER-LIGAND FREE ENERGY PREDICTED BY IDOCK:   -8.51 KCAL/MOL
REMARK 924 INTRA-LIGAND FREE ENERGY PREDICTED BY IDOCK:    1.88 KCAL/MOL
REMARK 927      BINDING AFFINITY PREDICTED BY RF-SCORE:    0.00 PKD
ROOT
HETATM    1  C   UNL     1      -6.147   9.648  70.032  1.00  0.00    -0.049 C  
HETATM    2  C   UNL     1      -7.631   9.812  70.353  1.00  0.00    -0.165 C  
HETATM    3  C   UNL     2      -5.659  11.978  67.510  1.00  0.00    -0.105 C  
HETATM    4  O   UNL     2      -6.851  12.049  68.276  1.00  0.00    -0.059 OA 
ENDROOT
BRANCH   2   5
HETATM    5  C   UNL     1      -8.615   8.769  69.723  1.00  0.00    -0.131 C  
HETATM    6  O   UNL     1      -7.159   6.784  69.863  1.00  0.00    -0.067 OA 
HETATM    7  C   UNL     1      -9.257   9.543  68.559  1.00  0.00    -0.131 C  
HETATM    8  C   UNL     1      -7.799   7.576  69.166  1.00  0.00    -0.119 C  
HETATM    9  H   UNL     1      -7.616   6.448  67.463  1.00  0.00     0.000 HD 
HETATM   10  N   UNL     1      -8.564   9.522  67.381  1.00  0.00    -0.125 N  
HETATM   11  O   UNL     1     -10.272  10.223  68.653  1.00  0.00    -0.165 OA 
HETATM   12  O   UNL     1      -8.122   8.112  65.684  1.00  0.00    -0.104 OA 
HETATM   13  N   UNL     1      -7.842   7.380  67.809  1.00  0.00    -0.112 N  
HETATM   14  C   UNL     1      -8.160   8.327  66.893  1.00  0.00    -0.103 C  
HETATM   15  H   UNL     1      -8.356  10.387  66.882  1.00  0.00     0.000 HD 
BRANCH   5  16
HETATM   16  C   UNL     1      -9.663   8.292  70.751  1.00  0.00    -0.197 A  
HETATM   17  C   UNL     1     -11.457   6.766  71.384  1.00  0.00    -0.336 A  
HETATM   18  C   UNL     1     -10.696   7.403  70.401  1.00  0.00    -0.250 A  
HETATM   19  C   UNL     1      -9.546   8.646  72.106  1.00  0.00    -0.378 A  
HETATM   20  C   UNL     1     -11.225   7.031  72.729  1.00  0.00    -0.294 A  
HETATM   21  C   UNL     1     -10.292   7.997  73.089  1.00  0.00    -0.269 A  
ENDBRANCH   5  16
ENDBRANCH   2   5
BRANCH   4  22
HETATM   22  C   UNL     2      -8.003  12.286  67.593  1.00  0.00    -0.161 A  
HETATM   23  C   UNL     2      -8.460  11.603  66.484  1.00  0.00    -0.141 A  
HETATM   24  C   UNL     2     -10.007  13.723  67.571  1.00  0.00    -0.233 A  
HETATM   25  C   UNL     2     -12.013  15.062  67.380  1.00  0.00    -0.064 A  
HETATM   26  C   UNL     2      -9.680  11.977  65.916  1.00  0.00    -0.256 A  
HETATM   27  C   UNL     2     -12.336  14.319  66.257  1.00  0.00    -0.373 A  
HETATM   28  C   UNL     2      -8.803  13.273  68.159  1.00  0.00    -0.187 A  
HETATM   29  C   UNL     2     -10.818  14.795  68.068  1.00  0.00    -0.261 A  
HETATM   30  C   UNL     2     -10.438  13.036  66.408  1.00  0.00    -0.276 A  
HETATM   31  N   UNL     2     -11.569  13.332  65.762  1.00  0.00    -0.325 NA 
BRANCH  29  32
HETATM   32  C   UNL     2     -10.494  15.576  69.357  1.00  0.00    -0.253 C  
HETATM   33  H   UNL     2      -9.864  17.388  69.860  1.00  0.00     0.000 HD 
HETATM   34  O   UNL     2     -10.064  16.908  69.065  1.00  0.00    -0.271 OA 
BRANCH  32  35
HETATM   35  C   UNL     2     -11.640  15.694  70.429  1.00  0.00    -0.349 C  
HETATM   36  C   UNL     2     -12.214  14.339  72.484  1.00  0.00    -0.060 C  
HETATM   37  C   UNL     2     -13.554  15.094  72.465  1.00  0.00    -0.592 C  
HETATM   38  C   UNL     2     -13.966  15.382  71.013  1.00  0.00    -0.210 C  
HETATM   39  C   UNL     2     -11.168  15.271  71.845  1.00  0.00    -0.350 C  
HETATM   40  N   UNL     2     -12.907  14.974  70.059  1.00  0.00    -0.154 NA 
HETATM   41  C   UNL     2     -12.768  13.498  70.182  1.00  0.00    -0.003 C  
HETATM   42  C   UNL     2     -12.296  13.071  71.596  1.00  0.00     0.091 C  
BRANCH  42  43
HETATM   43  C   UNL     2     -13.201  12.015  72.188  1.00  0.00    -0.400 C  
HETATM   44  C   UNL     2     -13.173  10.717  71.856  1.00  0.00    -0.524 C  
ENDBRANCH  42  43
ENDBRANCH  32  35
ENDBRANCH  29  32
ENDBRANCH   4  22
TORSDOF 6
ENDMDL
MODEL      209
REMARK 921   NORMALIZED FREE ENERGY PREDICTED BY IDOCK:   -2.59 KCAL/MOL
REMARK 922        TOTAL FREE ENERGY PREDICTED BY IDOCK:   -6.57 KCAL/MOL
REMARK 923 INTER-LIGAND FREE ENERGY PREDICTED BY IDOCK:   -6.07 KCAL/MOL
REMARK 924 INTRA-LIGAND FREE ENERGY PREDICTED BY IDOCK:   -0.50 KCAL/MOL
REMARK 927      BINDING AFFINITY PREDICTED BY RF-SCORE:    0.00 PKD
ROOT
HETATM    1  C   UNL     1     -10.081  10.264  64.850  1.00  0.00    -0.346 C  
HETATM    2  C   UNL     1     -10.647  10.842  66.145  1.00  0.00    -0.270 C  
HETATM    3  C   UNL     2      -8.120   7.640  65.989  1.00  0.00    -0.118 C  
HETATM    4  O   UNL     2      -9.049   8.229  66.884  1.00  0.00    -0.138 OA 
ENDROOT
BRANCH   2   5
HETATM    5  C   UNL     1      -9.946  12.120  66.720  1.00  0.00    -0.218 C  
HETATM    6  O   UNL     1      -9.920  11.464  69.097  1.00  0.00    -0.121 OA 
HETATM    7  C   UNL     1     -10.601  13.269  65.935  1.00  0.00    -0.281 C  
HETATM    8  C   UNL     1     -10.293  12.252  68.224  1.00  0.00    -0.221 C  
HETATM    9  H   UNL     1     -10.975  13.643  69.568  1.00  0.00     0.000 HD 
HETATM   10  N   UNL     1     -11.773  13.745  66.452  1.00  0.00    -0.359 N  
HETATM   11  O   UNL     1     -10.188  13.705  64.867  1.00  0.00    -0.372 OA 
HETATM   12  O   UNL     1     -12.495  15.020  68.160  1.00  0.00     0.123 OA 
HETATM   13  N   UNL     1     -11.025  13.351  68.592  1.00  0.00    -0.253 N  
HETATM   14  C   UNL     1     -11.811  14.080  67.762  1.00  0.00    -0.384 C  
HETATM   15  H   UNL     1     -12.601  13.844  65.864  1.00  0.00     0.000 HD 
BRANCH   5  16
HETATM   16  C   UNL     1      -8.418  12.066  66.506  1.00  0.00    -0.065 A  
HETATM   17  C   UNL     1      -6.159  12.555  67.285  1.00  0.00    -0.119 A  
HETATM   18  C   UNL     1      -7.531  12.819  67.297  1.00  0.00    -0.101 A  
HETATM   19  C   UNL     1      -7.858  11.168  65.581  1.00  0.00     0.156 A  
HETATM   20  C   UNL     1      -5.646  11.561  66.459  1.00  0.00    -0.119 A  
HETATM   21  C   UNL     1      -6.491  10.891  65.582  1.00  0.00     0.023 A  
ENDBRANCH   5  16
ENDBRANCH   2   5
BRANCH   4  22
HETATM   22  C   UNL     2      -8.617   8.451  68.154  1.00  0.00    -0.139 A  
HETATM   23  C   UNL     2      -7.596   9.295  68.543  1.00  0.00    -0.085 A  
HETATM   24  C   UNL     2      -9.043   7.836  70.504  1.00  0.00    -0.154 A  
HETATM   25  C   UNL     2      -9.301   7.320  72.854  1.00  0.00    -0.194 A  
HETATM   26  C   UNL     2      -7.296   9.409  69.902  1.00  0.00    -0.088 A  
HETATM   27  C   UNL     2      -8.239   8.173  73.101  1.00  0.00    -0.193 A  
HETATM   28  C   UNL     2      -9.365   7.798  69.128  1.00  0.00    -0.151 A  
HETATM   29  C   UNL     2      -9.729   7.111  71.533  1.00  0.00    -0.169 A  
HETATM   30  C   UNL     2      -7.965   8.677  70.878  1.00  0.00    -0.122 A  
HETATM   31  N   UNL     2      -7.567   8.835  72.144  1.00  0.00    -0.334 NA 
BRANCH  29  32
HETATM   32  C   UNL     2     -10.956   6.216  71.265  1.00  0.00    -0.282 C  
HETATM   33  H   UNL     2     -12.388   6.054  69.902  1.00  0.00     0.000 HD 
HETATM   34  O   UNL     2     -11.632   6.605  70.067  1.00  0.00    -0.380 OA 
BRANCH  32  35
HETATM   35  C   UNL     2     -10.700   4.667  71.158  1.00  0.00     0.268 C  
HETATM   36  C   UNL     2      -9.142   3.096  72.380  1.00  0.00    -0.136 C  
HETATM   37  C   UNL     2      -9.497   2.077  71.283  1.00  0.00    -0.208 C  
HETATM   38  C   UNL     2      -9.730   2.808  69.952  1.00  0.00     0.104 C  
HETATM   39  C   UNL     2     -10.357   4.031  72.530  1.00  0.00    -0.223 C  
HETATM   40  N   UNL     2      -9.677   4.279  70.127  1.00  0.00    -0.202 NA 
HETATM   41  C   UNL     2      -8.292   4.608  70.561  1.00  0.00    -0.090 C  
HETATM   42  C   UNL     2      -7.945   3.974  71.933  1.00  0.00    -0.079 C  
BRANCH  42  43
HETATM   43  C   UNL     2      -6.653   3.192  71.872  1.00  0.00    -0.015 C  
HETATM   44  C   UNL     2      -5.879   3.088  70.783  1.00  0.00    -0.017 C  
ENDBRANCH  42  43
ENDBRANCH  32  35
ENDBRANCH  29  32
ENDBRANCH   4  22
TORSDOF 6
ENDMDL
MODEL      210
REMARK 921   NORMALIZED FREE ENERGY PREDICTED BY IDOCK:   -2.57 KCAL/MOL
REMARK 922        TOTAL FREE ENERGY PREDICTED BY IDOCK:   -6.55 KCAL/MOL
REMARK 923 INTER-LIGAND FREE ENERGY PREDICTED BY IDOCK:   -6.62 KCAL/MOL
REMARK 924 INTRA-LIGAND FREE ENERGY PREDICTED BY IDOCK:    0.07 KCAL/MOL
REMARK 927      BINDING AFFINITY PREDICTED BY RF-SCORE:    0.00 PKD
ROOT
HETATM    1  C   UNL     1      -7.478   5.607  72.637  1.00  0.00    -0.097 C  
HETATM    2  C   UNL     1      -8.972   5.598  72.950  1.00  0.00    -0.123 C  
HETATM    3  C   UNL     2      -6.962   8.849  71.515  1.00  0.00    -0.067 C  
HETATM    4  O   UNL     2      -8.175   8.549  72.187  1.00  0.00    -0.195 OA 
ENDROOT
BRANCH   2   5
HETATM    5  C   UNL     1      -9.921   4.969  71.873  1.00  0.00    -0.245 C  
HETATM    6  O   UNL     1      -9.235   6.352  69.951  1.00  0.00    -0.150 OA 
HETATM    7  C   UNL     1     -11.244   4.776  72.634  1.00  0.00    -0.065 C  
HETATM    8  C   UNL     1     -10.125   5.986  70.723  1.00  0.00    -0.197 C  
HETATM    9  H   UNL     1     -11.630   6.844  69.625  1.00  0.00     0.000 HD 
HETATM   10  N   UNL     1     -12.076   5.861  72.657  1.00  0.00    -0.531 N  
HETATM   11  O   UNL     1     -11.541   3.771  73.269  1.00  0.00    -0.120 OA 
HETATM   12  O   UNL     1     -13.476   6.969  71.287  1.00  0.00    -0.333 OA 
HETATM   13  N   UNL     1     -11.398   6.464  70.542  1.00  0.00    -0.352 N  
HETATM   14  C   UNL     1     -12.371   6.471  71.486  1.00  0.00    -0.226 C  
HETATM   15  H   UNL     1     -12.465   6.202  73.536  1.00  0.00     0.000 HD 
BRANCH   5  16
HETATM   16  C   UNL     1      -9.358   3.634  71.340  1.00  0.00    -0.211 A  
HETATM   17  C   UNL     1      -8.736   2.205  69.464  1.00  0.00    -0.119 A  
HETATM   18  C   UNL     1      -9.482   3.264  69.988  1.00  0.00    -0.231 A  
HETATM   19  C   UNL     1      -8.599   2.795  72.174  1.00  0.00    -0.085 A  
HETATM   20  C   UNL     1      -7.883   1.477  70.286  1.00  0.00    -0.042 A  
HETATM   21  C   UNL     1      -7.840   1.751  71.648  1.00  0.00    -0.041 A  
ENDBRANCH   5  16
ENDBRANCH   2   5
BRANCH   4  22
HETATM   22  C   UNL     2      -9.312   9.076  71.658  1.00  0.00    -0.183 A  
HETATM   23  C   UNL     2     -10.585   8.988  72.185  1.00  0.00    -0.209 A  
HETATM   24  C   UNL     2     -10.156  10.415  69.767  1.00  0.00    -0.201 A  
HETATM   25  C   UNL     2     -11.157  11.684  67.967  1.00  0.00    -0.299 A  
HETATM   26  C   UNL     2     -11.640   9.605  71.508  1.00  0.00    -0.451 A  
HETATM   27  C   UNL     2     -12.381  11.491  68.585  1.00  0.00     0.293 A  
HETATM   28  C   UNL     2      -9.104   9.838  70.513  1.00  0.00    -0.069 A  
HETATM   29  C   UNL     2      -9.998  11.132  68.535  1.00  0.00    -0.204 A  
HETATM   30  C   UNL     2     -11.460  10.277  70.303  1.00  0.00    -0.317 A  
HETATM   31  N   UNL     2     -12.548  10.795  69.723  1.00  0.00    -0.191 NA 
BRANCH  29  32
HETATM   32  C   UNL     2      -8.628  11.406  67.884  1.00  0.00    -0.140 C  
HETATM   33  H   UNL     2      -7.513  10.647  66.430  1.00  0.00     0.000 HD 
HETATM   34  O   UNL     2      -8.357  10.478  66.831  1.00  0.00    -0.123 OA 
BRANCH  32  35
HETATM   35  C   UNL     2      -8.393  12.844  67.292  1.00  0.00    -0.185 C  
HETATM   36  C   UNL     2      -6.674  14.635  67.766  1.00  0.00    -0.194 C  
HETATM   37  C   UNL     2      -7.591  15.568  66.956  1.00  0.00    -0.228 C  
HETATM   38  C   UNL     2      -9.059  15.167  67.173  1.00  0.00    -0.211 C  
HETATM   39  C   UNL     2      -6.888  13.212  67.218  1.00  0.00    -0.001 C  
HETATM   40  N   UNL     2      -9.168  13.931  67.985  1.00  0.00    -0.187 NA 
HETATM   41  C   UNL     2      -8.607  14.251  69.325  1.00  0.00     0.271 C  
HETATM   42  C   UNL     2      -7.102  14.619  69.256  1.00  0.00    -0.150 C  
BRANCH  42  43
HETATM   43  C   UNL     2      -6.820  15.933  69.948  1.00  0.00    -0.014 C  
HETATM   44  C   UNL     2      -5.602  16.474  70.082  1.00  0.00    -0.200 C  
ENDBRANCH  42  43
ENDBRANCH  32  35
ENDBRANCH  29  32
ENDBRANCH   4  22
TORSDOF 6
ENDMDL
MODEL      211
REMARK 921   NORMALIZED FREE ENERGY PREDICTED BY IDOCK:   -2.56 KCAL/MOL
REMARK 922        TOTAL FREE ENERGY PREDICTED BY IDOCK:   -6.54 KCAL/MOL
REMARK 923 INTER-LIGAND FREE ENERGY PREDICTED BY IDOCK:   -5.12 KCAL/MOL
REMARK 924 INTRA-LIGAND FREE ENERGY PREDICTED BY IDOCK:   -1.42 KCAL/MOL
REMARK 927      BINDING AFFINITY PREDICTED BY RF-SCORE:    0.00 PKD
ROOT
HETATM    1  C   UNL     1      -6.956   5.302  72.374  1.00  0.00    -0.080 C  
HETATM    2  C   UNL     1      -8.352   5.396  72.984  1.00  0.00    -0.112 C  
HETATM    3  C   UNL     2      -6.604   8.382  70.819  1.00  0.00    -0.039 C  
HETATM    4  O   UNL     2      -7.657   8.212  71.753  1.00  0.00    -0.075 OA 
ENDROOT
BRANCH   2   5
HETATM    5  C   UNL     1      -9.520   4.705  72.201  1.00  0.00    -0.185 C  
HETATM    6  O   UNL     1     -11.374   6.102  73.031  1.00  0.00    -0.218 OA 
HETATM    7  C   UNL     1      -9.180   3.208  72.303  1.00  0.00    -0.104 C  
HETATM    8  C   UNL     1     -10.856   4.987  72.932  1.00  0.00    -0.261 C  
HETATM    9  H   UNL     1     -12.512   3.997  73.629  1.00  0.00     0.000 HD 
HETATM   10  N   UNL     1      -9.631   2.575  73.428  1.00  0.00    -0.090 N  
HETATM   11  O   UNL     1      -8.480   2.598  71.504  1.00  0.00    -0.062 OA 
HETATM   12  O   UNL     1     -11.558   1.799  74.295  1.00  0.00    -0.029 OA 
HETATM   13  N   UNL     1     -11.511   3.903  73.458  1.00  0.00    -0.184 N  
HETATM   14  C   UNL     1     -10.933   2.716  73.768  1.00  0.00    -0.211 C  
HETATM   15  H   UNL     1      -9.002   2.010  73.998  1.00  0.00     0.000 HD 
BRANCH   5  16
HETATM   16  C   UNL     1      -9.576   5.188  70.736  1.00  0.00    -0.241 A  
HETATM   17  C   UNL     1     -10.748   6.352  68.941  1.00  0.00    -0.339 A  
HETATM   18  C   UNL     1     -10.768   5.663  70.157  1.00  0.00    -0.376 A  
HETATM   19  C   UNL     1      -8.403   5.276  69.967  1.00  0.00    -0.098 A  
HETATM   20  C   UNL     1      -9.548   6.547  68.267  1.00  0.00    -0.131 A  
HETATM   21  C   UNL     1      -8.380   5.979  68.764  1.00  0.00    -0.106 A  
ENDBRANCH   5  16
ENDBRANCH   2   5
BRANCH   4  22
HETATM   22  C   UNL     2      -8.866   8.734  71.412  1.00  0.00    -0.225 A  
HETATM   23  C   UNL     2      -9.998   8.776  72.201  1.00  0.00    -0.359 A  
HETATM   24  C   UNL     2     -10.057   9.889  69.588  1.00  0.00    -0.254 A  
HETATM   25  C   UNL     2     -11.385  10.994  67.894  1.00  0.00    -0.381 A  
HETATM   26  C   UNL     2     -11.156   9.367  71.688  1.00  0.00    -0.409 A  
HETATM   27  C   UNL     2     -12.453  10.940  68.773  1.00  0.00     0.572 A  
HETATM   28  C   UNL     2      -8.886   9.347  70.164  1.00  0.00    -0.249 A  
HETATM   29  C   UNL     2     -10.147  10.450  68.271  1.00  0.00    -0.174 A  
HETATM   30  C   UNL     2     -11.220   9.886  70.398  1.00  0.00    -0.313 A  
HETATM   31  N   UNL     2     -12.391  10.391  69.999  1.00  0.00    -0.211 NA 
BRANCH  29  32
HETATM   32  C   UNL     2      -8.941  10.572  67.318  1.00  0.00    -0.139 C  
HETATM   33  H   UNL     2      -8.314   9.748  65.627  1.00  0.00     0.000 HD 
HETATM   34  O   UNL     2      -9.057   9.673  66.213  1.00  0.00    -0.148 OA 
BRANCH  32  35
HETATM   35  C   UNL     2      -8.648  11.995  66.716  1.00  0.00    -0.177 C  
HETATM   36  C   UNL     2      -7.013  13.819  67.340  1.00  0.00    -0.066 C  
HETATM   37  C   UNL     2      -7.833  14.717  66.397  1.00  0.00     1.014 C  
HETATM   38  C   UNL     2      -9.313  14.305  66.448  1.00  0.00    -0.245 C  
HETATM   39  C   UNL     2      -7.148  12.379  66.813  1.00  0.00     0.247 C  
HETATM   40  N   UNL     2      -9.509  13.093  67.277  1.00  0.00    -0.218 NA 
HETATM   41  C   UNL     2      -9.117  13.458  68.665  1.00  0.00     0.012 C  
HETATM   42  C   UNL     2      -7.617  13.841  68.767  1.00  0.00    -0.099 C  
BRANCH  42  43
HETATM   43  C   UNL     2      -7.432  15.177  69.448  1.00  0.00    -0.204 C  
HETATM   44  C   UNL     2      -6.263  15.826  69.543  1.00  0.00    -0.154 C  
ENDBRANCH  42  43
ENDBRANCH  32  35
ENDBRANCH  29  32
ENDBRANCH   4  22
TORSDOF 6
ENDMDL
MODEL      212
REMARK 921   NORMALIZED FREE ENERGY PREDICTED BY IDOCK:   -2.56 KCAL/MOL
REMARK 922        TOTAL FREE ENERGY PREDICTED BY IDOCK:   -6.53 KCAL/MOL
REMARK 923 INTER-LIGAND FREE ENERGY PREDICTED BY IDOCK:   -7.18 KCAL/MOL
REMARK 924 INTRA-LIGAND FREE ENERGY PREDICTED BY IDOCK:    0.65 KCAL/MOL
REMARK 927      BINDING AFFINITY PREDICTED BY RF-SCORE:    0.00 PKD
ROOT
HETATM    1  C   UNL     1     -12.136  12.268  69.042  1.00  0.00    -0.197 C  
HETATM    2  C   UNL     1     -10.824  13.039  68.912  1.00  0.00    -0.244 C  
HETATM    3  C   UNL     2     -11.056   9.065  69.817  1.00  0.00    -0.104 C  
HETATM    4  O   UNL     2     -10.131  10.135  69.919  1.00  0.00    -0.244 OA 
ENDROOT
BRANCH   2   5
HETATM    5  C   UNL     1     -10.282  13.283  67.463  1.00  0.00    -0.222 C  
HETATM    6  O   UNL     1     -12.449  13.570  66.322  1.00  0.00    -0.396 OA 
HETATM    7  C   UNL     1      -9.134  12.267  67.337  1.00  0.00    -0.184 C  
HETATM    8  C   UNL     1     -11.396  12.939  66.443  1.00  0.00    -0.319 C  
HETATM    9  H   UNL     1     -11.680  11.855  64.725  1.00  0.00     0.000 HD 
HETATM   10  N   UNL     1      -9.496  11.013  66.933  1.00  0.00    -0.175 N  
HETATM   11  O   UNL     1      -7.971  12.491  67.650  1.00  0.00    -0.145 OA 
HETATM   12  O   UNL     1     -10.133   9.937  65.061  1.00  0.00    -0.286 OA 
HETATM   13  N   UNL     1     -11.152  11.888  65.596  1.00  0.00    -0.313 N  
HETATM   14  C   UNL     1     -10.265  10.889  65.827  1.00  0.00    -0.259 C  
HETATM   15  H   UNL     1      -9.195  10.189  67.453  1.00  0.00     0.000 HD 
BRANCH   5  16
HETATM   16  C   UNL     1      -9.795  14.736  67.283  1.00  0.00    -0.230 A  
HETATM   17  C   UNL     1      -9.686  16.777  65.951  1.00  0.00    -0.247 A  
HETATM   18  C   UNL     1      -9.863  15.394  66.041  1.00  0.00    -0.355 A  
HETATM   19  C   UNL     1      -9.370  15.489  68.392  1.00  0.00    -0.192 A  
HETATM   20  C   UNL     1      -9.404  17.521  67.092  1.00  0.00    -0.250 A  
HETATM   21  C   UNL     1      -9.213  16.872  68.306  1.00  0.00    -0.241 A  
ENDBRANCH   5  16
ENDBRANCH   2   5
BRANCH   4  22
HETATM   22  C   UNL     2      -8.878   9.906  69.440  1.00  0.00    -0.187 A  
HETATM   23  C   UNL     2      -7.718  10.549  69.824  1.00  0.00    -0.079 A  
HETATM   24  C   UNL     2      -7.611   8.496  67.864  1.00  0.00    -0.098 A  
HETATM   25  C   UNL     2      -6.219   7.226  66.345  1.00  0.00    -0.040 A  
HETATM   26  C   UNL     2      -6.510  10.173  69.231  1.00  0.00    -0.047 A  
HETATM   27  C   UNL     2      -5.142   7.970  66.796  1.00  0.00    -0.027 A  
HETATM   28  C   UNL     2      -8.802   8.854  68.534  1.00  0.00    -0.134 A  
HETATM   29  C   UNL     2      -7.502   7.480  66.858  1.00  0.00    -0.098 A  
HETATM   30  C   UNL     2      -6.438   9.196  68.242  1.00  0.00    -0.055 A  
HETATM   31  N   UNL     2      -5.235   8.946  67.716  1.00  0.00    -0.034 NA 
BRANCH  29  32
HETATM   32  C   UNL     2      -8.688   6.604  66.406  1.00  0.00    -0.141 C  
HETATM   33  H   UNL     2      -9.266   5.641  64.772  1.00  0.00     0.000 HD 
HETATM   34  O   UNL     2      -8.535   6.181  65.050  1.00  0.00    -0.138 OA 
BRANCH  32  35
HETATM   35  C   UNL     2      -8.986   5.313  67.254  1.00  0.00    -0.111 C  
HETATM   36  C   UNL     2      -9.811   4.964  69.617  1.00  0.00    -0.288 C  
HETATM   37  C   UNL     2      -9.388   3.497  69.426  1.00  0.00    -0.243 C  
HETATM   38  C   UNL     2      -8.148   3.431  68.521  1.00  0.00    -0.065 C  
HETATM   39  C   UNL     2     -10.180   5.508  68.225  1.00  0.00    -0.237 C  
HETATM   40  N   UNL     2      -7.793   4.768  67.990  1.00  0.00    -0.082 NA 
HETATM   41  C   UNL     2      -7.426   5.608  69.161  1.00  0.00    -0.083 C  
HETATM   42  C   UNL     2      -8.617   5.807  70.134  1.00  0.00    -0.128 C  
BRANCH  42  43
HETATM   43  C   UNL     2      -8.238   5.454  71.554  1.00  0.00    -0.118 C  
HETATM   44  C   UNL     2      -9.113   5.300  72.558  1.00  0.00    -0.144 C  
ENDBRANCH  42  43
ENDBRANCH  32  35
ENDBRANCH  29  32
ENDBRANCH   4  22
TORSDOF 6
ENDMDL
MODEL      213
REMARK 921   NORMALIZED FREE ENERGY PREDICTED BY IDOCK:   -2.54 KCAL/MOL
REMARK 922        TOTAL FREE ENERGY PREDICTED BY IDOCK:   -6.51 KCAL/MOL
REMARK 923 INTER-LIGAND FREE ENERGY PREDICTED BY IDOCK:   -6.25 KCAL/MOL
REMARK 924 INTRA-LIGAND FREE ENERGY PREDICTED BY IDOCK:   -0.26 KCAL/MOL
REMARK 927      BINDING AFFINITY PREDICTED BY RF-SCORE:    0.00 PKD
ROOT
HETATM    1  C   UNL     1     -10.041   4.244  65.776  1.00  0.00    -0.229 C  
HETATM    2  C   UNL     1      -9.636   5.418  66.664  1.00  0.00    -0.161 C  
HETATM    3  C   UNL     2      -9.380   1.504  67.799  1.00  0.00    -0.125 C  
HETATM    4  O   UNL     2      -9.414   2.792  68.392  1.00  0.00    -0.197 OA 
ENDROOT
BRANCH   2   5
HETATM    5  C   UNL     1      -8.226   6.051  66.409  1.00  0.00    -0.112 C  
HETATM    6  O   UNL     1      -8.313   6.116  63.945  1.00  0.00    -0.059 OA 
HETATM    7  C   UNL     1      -7.324   5.335  67.429  1.00  0.00    -0.083 C  
HETATM    8  C   UNL     1      -7.768   5.700  64.971  1.00  0.00    -0.094 C  
HETATM    9  H   UNL     1      -6.141   4.946  63.975  1.00  0.00     0.000 HD 
HETATM   10  N   UNL     1      -6.803   4.140  67.019  1.00  0.00    -0.051 N  
HETATM   11  O   UNL     1      -7.127   5.722  68.574  1.00  0.00    -0.072 OA 
HETATM   12  O   UNL     1      -5.206   3.354  65.642  1.00  0.00    -0.008 OA 
HETATM   13  N   UNL     1      -6.652   4.910  64.857  1.00  0.00    -0.042 N  
HETATM   14  C   UNL     1      -6.176   4.086  65.822  1.00  0.00    -0.032 C  
HETATM   15  H   UNL     1      -6.885   3.307  67.603  1.00  0.00     0.000 HD 
BRANCH   5  16
HETATM   16  C   UNL     1      -8.249   7.579  66.626  1.00  0.00    -0.125 A  
HETATM   17  C   UNL     1      -7.072   9.712  66.744  1.00  0.00    -0.086 A  
HETATM   18  C   UNL     1      -7.069   8.317  66.829  1.00  0.00    -0.077 A  
HETATM   19  C   UNL     1      -9.451   8.299  66.511  1.00  0.00    -0.284 A  
HETATM   20  C   UNL     1      -8.257  10.394  66.490  1.00  0.00    -0.131 A  
HETATM   21  C   UNL     1      -9.452   9.689  66.407  1.00  0.00    -0.244 A  
ENDBRANCH   5  16
ENDBRANCH   2   5
BRANCH   4  22
HETATM   22  C   UNL     2      -8.441   3.072  69.300  1.00  0.00    -0.063 A  
HETATM   23  C   UNL     2      -7.164   2.548  69.329  1.00  0.00    -0.044 A  
HETATM   24  C   UNL     2      -7.957   4.439  71.294  1.00  0.00    -0.082 A  
HETATM   25  C   UNL     2      -7.324   5.681  73.272  1.00  0.00    -0.095 A  
HETATM   26  C   UNL     2      -6.287   2.962  70.334  1.00  0.00    -0.027 A  
HETATM   27  C   UNL     2      -6.090   5.056  73.203  1.00  0.00    -0.030 A  
HETATM   28  C   UNL     2      -8.793   4.051  70.224  1.00  0.00    -0.141 A  
HETATM   29  C   UNL     2      -8.310   5.377  72.320  1.00  0.00    -0.122 A  
HETATM   30  C   UNL     2      -6.664   3.859  71.330  1.00  0.00    -0.031 A  
HETATM   31  N   UNL     2      -5.756   4.153  72.265  1.00  0.00    -0.011 NA 
BRANCH  29  32
HETATM   32  C   UNL     2      -9.658   6.124  72.357  1.00  0.00    -0.151 C  
HETATM   33  H   UNL     2     -10.723   7.173  73.661  1.00  0.00     0.000 HD 
HETATM   34  O   UNL     2      -9.892   6.713  73.638  1.00  0.00    -0.180 OA 
BRANCH  32  35
HETATM   35  C   UNL     2      -9.874   7.260  71.290  1.00  0.00    -0.180 C  
HETATM   36  C   UNL     2     -10.799   9.607  71.446  1.00  0.00    -0.294 C  
HETATM   37  C   UNL     2     -10.841   9.569  69.908  1.00  0.00    -0.272 C  
HETATM   38  C   UNL     2     -11.152   8.140  69.435  1.00  0.00     0.104 C  
HETATM   39  C   UNL     2      -9.654   8.676  71.884  1.00  0.00    -0.377 C  
HETATM   40  N   UNL     2     -11.194   7.190  70.572  1.00  0.00    -0.280 NA 
HETATM   41  C   UNL     2     -12.326   7.612  71.439  1.00  0.00    -0.333 C  
HETATM   42  C   UNL     2     -12.109   9.027  72.036  1.00  0.00    -0.440 C  
BRANCH  42  43
HETATM   43  C   UNL     2     -13.299   9.924  71.782  1.00  0.00    -0.501 C  
HETATM   44  C   UNL     2     -13.277  11.260  71.879  1.00  0.00    -0.491 C  
ENDBRANCH  42  43
ENDBRANCH  32  35
ENDBRANCH  29  32
ENDBRANCH   4  22
TORSDOF 6
ENDMDL
MODEL      214
REMARK 921   NORMALIZED FREE ENERGY PREDICTED BY IDOCK:   -2.51 KCAL/MOL
REMARK 922        TOTAL FREE ENERGY PREDICTED BY IDOCK:   -6.47 KCAL/MOL
REMARK 923 INTER-LIGAND FREE ENERGY PREDICTED BY IDOCK:   -7.74 KCAL/MOL
REMARK 924 INTRA-LIGAND FREE ENERGY PREDICTED BY IDOCK:    1.27 KCAL/MOL
REMARK 927      BINDING AFFINITY PREDICTED BY RF-SCORE:    0.00 PKD
ROOT
HETATM    1  C   UNL     1     -10.646  15.567  69.953  1.00  0.00    -0.322 C  
HETATM    2  C   UNL     1      -9.171  15.356  69.619  1.00  0.00    -0.188 C  
HETATM    3  C   UNL     2     -12.086  12.583  68.927  1.00  0.00    -0.122 C  
HETATM    4  O   UNL     2     -10.674  12.645  69.055  1.00  0.00    -0.195 OA 
ENDROOT
BRANCH   2   5
HETATM    5  C   UNL     1      -8.642  16.000  68.292  1.00  0.00    -0.179 C  
HETATM    6  O   UNL     1     -10.046  18.027  68.302  1.00  0.00    -0.342 OA 
HETATM    7  C   UNL     1      -8.507  14.797  67.343  1.00  0.00    -0.201 C  
HETATM    8  C   UNL     1      -9.711  16.979  67.745  1.00  0.00    -0.258 C  
HETATM    9  H   UNL     1     -10.700  17.419  66.003  1.00  0.00     0.000 HD 
HETATM   10  N   UNL     1      -9.641  14.452  66.661  1.00  0.00    -0.270 N  
HETATM   11  O   UNL     1      -7.501  14.106  67.235  1.00  0.00    -0.167 OA 
HETATM   12  O   UNL     1     -10.884  15.182  64.933  1.00  0.00    -0.404 OA 
HETATM   13  N   UNL     1     -10.274  16.661  66.535  1.00  0.00    -0.300 N  
HETATM   14  C   UNL     1     -10.310  15.419  65.992  1.00  0.00    -0.324 C  
HETATM   15  H   UNL     1      -9.976  13.489  66.657  1.00  0.00     0.000 HD 
BRANCH   5  16
HETATM   16  C   UNL     1      -7.294  16.718  68.515  1.00  0.00    -0.205 A  
HETATM   17  C   UNL     1      -5.693  18.445  67.882  1.00  0.00    -0.164 A  
HETATM   18  C   UNL     1      -6.755  17.597  67.557  1.00  0.00    -0.178 A  
HETATM   19  C   UNL     1      -6.617  16.601  69.741  1.00  0.00    -0.066 A  
HETATM   20  C   UNL     1      -5.131  18.407  69.153  1.00  0.00    -0.187 A  
HETATM   21  C   UNL     1      -5.570  17.461  70.071  1.00  0.00    -0.240 A  
ENDBRANCH   5  16
ENDBRANCH   2   5
BRANCH   4  22
HETATM   22  C   UNL     2      -9.945  12.058  68.069  1.00  0.00    -0.197 A  
HETATM   23  C   UNL     2     -10.186  12.128  66.712  1.00  0.00    -0.224 A  
HETATM   24  C   UNL     2      -7.948  10.666  67.673  1.00  0.00    -0.106 A  
HETATM   25  C   UNL     2      -6.046   9.283  67.105  1.00  0.00    -0.057 A  
HETATM   26  C   UNL     2      -9.318  11.469  65.837  1.00  0.00    -0.242 A  
HETATM   27  C   UNL     2      -6.421   9.407  65.778  1.00  0.00    -0.069 A  
HETATM   28  C   UNL     2      -8.806  11.401  68.522  1.00  0.00    -0.151 A  
HETATM   29  C   UNL     2      -6.815   9.901  68.104  1.00  0.00    -0.064 A  
HETATM   30  C   UNL     2      -8.237  10.716  66.286  1.00  0.00    -0.153 A  
HETATM   31  N   UNL     2      -7.498  10.095  65.362  1.00  0.00    -0.139 NA 
BRANCH  29  32
HETATM   32  C   UNL     2      -6.358   9.820  69.574  1.00  0.00    -0.045 C  
HETATM   33  H   UNL     2      -6.466  10.935  71.211  1.00  0.00     0.000 HD 
HETATM   34  O   UNL     2      -6.748  10.985  70.306  1.00  0.00    -0.230 OA 
BRANCH  32  35
HETATM   35  C   UNL     2      -6.845   8.578  70.407  1.00  0.00    -0.037 C  
HETATM   36  C   UNL     2      -8.817   7.016  70.165  1.00  0.00    -0.145 C  
HETATM   37  C   UNL     2      -8.464   6.536  71.583  1.00  0.00    -0.124 C  
HETATM   38  C   UNL     2      -7.903   7.709  72.401  1.00  0.00    -0.103 C  
HETATM   39  C   UNL     2      -7.505   7.493  69.516  1.00  0.00    -0.093 C  
HETATM   40  N   UNL     2      -7.739   8.923  71.566  1.00  0.00    -0.282 NA 
HETATM   41  C   UNL     2      -9.102   9.321  71.122  1.00  0.00    -0.127 C  
HETATM   42  C   UNL     2      -9.765   8.240  70.229  1.00  0.00    -0.177 C  
BRANCH  42  43
HETATM   43  C   UNL     2     -11.142   7.873  70.734  1.00  0.00    -0.264 C  
HETATM   44  C   UNL     2     -11.689   8.348  71.861  1.00  0.00    -0.398 C  
ENDBRANCH  42  43
ENDBRANCH  32  35
ENDBRANCH  29  32
ENDBRANCH   4  22
TORSDOF 6
ENDMDL
MODEL      215
REMARK 921   NORMALIZED FREE ENERGY PREDICTED BY IDOCK:   -2.47 KCAL/MOL
REMARK 922        TOTAL FREE ENERGY PREDICTED BY IDOCK:   -6.42 KCAL/MOL
REMARK 923 INTER-LIGAND FREE ENERGY PREDICTED BY IDOCK:   -4.23 KCAL/MOL
REMARK 924 INTRA-LIGAND FREE ENERGY PREDICTED BY IDOCK:   -2.19 KCAL/MOL
REMARK 927      BINDING AFFINITY PREDICTED BY RF-SCORE:    0.00 PKD
ROOT
HETATM    1  C   UNL     1      -9.779   6.085  66.854  1.00  0.00    -0.173 C  
HETATM    2  C   UNL     1      -8.283   6.089  67.163  1.00  0.00    -0.105 C  
HETATM    3  C   UNL     2     -10.350   9.353  65.842  1.00  0.00     0.097 C  
HETATM    4  O   UNL     2      -9.011   8.893  65.922  1.00  0.00    -0.174 OA 
ENDROOT
BRANCH   2   5
HETATM    5  C   UNL     1      -7.867   6.224  68.667  1.00  0.00    -0.102 C  
HETATM    6  O   UNL     1      -5.661   7.273  68.327  1.00  0.00    -0.021 OA 
HETATM    7  C   UNL     1      -8.335   4.896  69.286  1.00  0.00    -0.084 C  
HETATM    8  C   UNL     1      -6.324   6.325  68.757  1.00  0.00    -0.041 C  
HETATM    9  H   UNL     1      -4.746   5.495  69.771  1.00  0.00     0.000 HD 
HETATM   10  N   UNL     1      -7.453   3.856  69.190  1.00  0.00    -0.053 N  
HETATM   11  O   UNL     1      -9.447   4.706  69.764  1.00  0.00    -0.133 OA 
HETATM   12  O   UNL     1      -5.525   3.159  70.118  1.00  0.00    -0.014 OA 
HETATM   13  N   UNL     1      -5.676   5.302  69.402  1.00  0.00    -0.015 N  
HETATM   14  C   UNL     1      -6.176   4.055  69.587  1.00  0.00    -0.028 C  
HETATM   15  H   UNL     1      -7.751   2.950  68.827  1.00  0.00     0.000 HD 
BRANCH   5  16
HETATM   16  C   UNL     1      -8.542   7.443  69.330  1.00  0.00    -0.137 A  
HETATM   17  C   UNL     1      -8.388   9.685  70.277  1.00  0.00    -0.216 A  
HETATM   18  C   UNL     1      -7.792   8.468  69.936  1.00  0.00    -0.096 A  
HETATM   19  C   UNL     1      -9.934   7.622  69.245  1.00  0.00    -0.180 A  
HETATM   20  C   UNL     1      -9.745   9.887  70.052  1.00  0.00    -0.274 A  
HETATM   21  C   UNL     1     -10.524   8.844  69.567  1.00  0.00    -0.229 A  
ENDBRANCH   5  16
ENDBRANCH   2   5
BRANCH   4  22
HETATM   22  C   UNL     2      -8.104   9.746  66.470  1.00  0.00    -0.116 A  
HETATM   23  C   UNL     2      -6.740   9.556  66.554  1.00  0.00    -0.075 A  
HETATM   24  C   UNL     2      -7.896  11.946  67.564  1.00  0.00    -0.152 A  
HETATM   25  C   UNL     2      -7.514  14.059  68.679  1.00  0.00    -0.125 A  
HETATM   26  C   UNL     2      -5.955  10.551  67.143  1.00  0.00    -0.054 A  
HETATM   27  C   UNL     2      -6.171  13.728  68.728  1.00  0.00    -0.089 A  
HETATM   28  C   UNL     2      -8.649  10.950  66.902  1.00  0.00    -0.136 A  
HETATM   29  C   UNL     2      -8.429  13.162  68.105  1.00  0.00    -0.173 A  
HETATM   30  C   UNL     2      -6.503  11.713  67.678  1.00  0.00    -0.075 A  
HETATM   31  N   UNL     2      -5.661  12.578  68.253  1.00  0.00    -0.058 NA 
BRANCH  29  32
HETATM   32  C   UNL     2      -9.914  13.561  67.989  1.00  0.00    -0.248 C  
HETATM   33  H   UNL     2     -11.326  14.328  69.152  1.00  0.00     0.000 HD 
HETATM   34  O   UNL     2     -10.411  14.082  69.224  1.00  0.00    -0.152 OA 
BRANCH  32  35
HETATM   35  C   UNL     2     -10.287  14.606  66.873  1.00  0.00    -0.264 C  
HETATM   36  C   UNL     2     -12.339  14.915  65.430  1.00  0.00     0.037 C  
HETATM   37  C   UNL     2     -11.471  15.882  64.605  1.00  0.00    -0.265 C  
HETATM   38  C   UNL     2     -10.013  15.395  64.603  1.00  0.00     0.711 C  
HETATM   39  C   UNL     2     -11.799  14.951  66.871  1.00  0.00    -0.202 C  
HETATM   40  N   UNL     2      -9.833  14.222  65.491  1.00  0.00    -0.293 NA 
HETATM   41  C   UNL     2     -10.654  13.123  64.917  1.00  0.00    -0.349 C  
HETATM   42  C   UNL     2     -12.167  13.463  64.915  1.00  0.00    -0.450 C  
BRANCH  42  43
HETATM   43  C   UNL     2     -12.778  13.264  63.547  1.00  0.00     0.020 C  
HETATM   44  C   UNL     2     -12.783  12.103  62.879  1.00  0.00     0.257 C  
ENDBRANCH  42  43
ENDBRANCH  32  35
ENDBRANCH  29  32
ENDBRANCH   4  22
TORSDOF 6
ENDMDL
MODEL      216
REMARK 921   NORMALIZED FREE ENERGY PREDICTED BY IDOCK:   -2.39 KCAL/MOL
REMARK 922        TOTAL FREE ENERGY PREDICTED BY IDOCK:   -6.31 KCAL/MOL
REMARK 923 INTER-LIGAND FREE ENERGY PREDICTED BY IDOCK:   -6.65 KCAL/MOL
REMARK 924 INTRA-LIGAND FREE ENERGY PREDICTED BY IDOCK:    0.33 KCAL/MOL
REMARK 927      BINDING AFFINITY PREDICTED BY RF-SCORE:    0.00 PKD
ROOT
HETATM    1  C   UNL     1      -8.116  13.261  68.173  1.00  0.00    -0.159 C  
HETATM    2  C   UNL     1      -8.834  12.970  66.858  1.00  0.00    -0.184 C  
HETATM    3  C   UNL     2      -6.097  10.469  68.566  1.00  0.00    -0.043 C  
HETATM    4  O   UNL     2      -6.692  10.702  67.300  1.00  0.00    -0.073 OA 
ENDROOT
BRANCH   2   5
HETATM    5  C   UNL     1     -10.291  12.403  66.952  1.00  0.00    -0.240 C  
HETATM    6  O   UNL     1     -10.105  10.670  65.208  1.00  0.00    -0.267 OA 
HETATM    7  C   UNL     1     -11.155  13.665  67.117  1.00  0.00    -0.297 C  
HETATM    8  C   UNL     1     -10.647  11.700  65.618  1.00  0.00    -0.275 C  
HETATM    9  H   UNL     1     -12.139  11.648  64.211  1.00  0.00     0.000 HD 
HETATM   10  N   UNL     1     -11.527  14.282  65.955  1.00  0.00    -0.339 N  
HETATM   11  O   UNL     1     -11.442  14.175  68.194  1.00  0.00    -0.276 OA 
HETATM   12  O   UNL     1     -12.969  13.992  64.252  1.00  0.00    -0.436 OA 
HETATM   13  N   UNL     1     -11.665  12.251  64.884  1.00  0.00    -0.358 N  
HETATM   14  C   UNL     1     -12.092  13.534  64.981  1.00  0.00    -0.397 C  
HETATM   15  H   UNL     1     -11.382  15.284  65.826  1.00  0.00     0.000 HD 
BRANCH   5  16
HETATM   16  C   UNL     1     -10.441  11.436  68.146  1.00  0.00    -0.212 A  
HETATM   17  C   UNL     1     -11.744   9.772  69.363  1.00  0.00     0.169 A  
HETATM   18  C   UNL     1     -11.676  10.846  68.472  1.00  0.00    -0.307 A  
HETATM   19  C   UNL     1      -9.314  11.025  68.878  1.00  0.00    -0.155 A  
HETATM   20  C   UNL     1     -10.588   9.293  69.970  1.00  0.00    -0.256 A  
HETATM   21  C   UNL     1      -9.378   9.941  69.753  1.00  0.00    -0.248 A  
ENDBRANCH   5  16
ENDBRANCH   2   5
BRANCH   4  22
HETATM   22  C   UNL     2      -7.216   9.620  66.663  1.00  0.00    -0.086 A  
HETATM   23  C   UNL     2      -7.683   9.573  65.365  1.00  0.00    -0.109 A  
HETATM   24  C   UNL     2      -7.735   7.229  66.968  1.00  0.00    -0.111 A  
HETATM   25  C   UNL     2      -8.340   4.890  67.104  1.00  0.00    -0.106 A  
HETATM   26  C   UNL     2      -8.178   8.365  64.869  1.00  0.00    -0.155 A  
HETATM   27  C   UNL     2      -8.805   4.991  65.804  1.00  0.00    -0.139 A  
HETATM   28  C   UNL     2      -7.179   8.449  67.413  1.00  0.00    -0.088 A  
HETATM   29  C   UNL     2      -7.802   6.021  67.738  1.00  0.00    -0.105 A  
HETATM   30  C   UNL     2      -8.248   7.213  65.646  1.00  0.00    -0.138 A  
HETATM   31  N   UNL     2      -8.777   6.123  65.081  1.00  0.00    -0.047 NA 
BRANCH  29  32
HETATM   32  C   UNL     2      -7.221   5.891  69.161  1.00  0.00    -0.078 C  
HETATM   33  H   UNL     2      -5.880   6.816  70.292  1.00  0.00     0.000 HD 
HETATM   34  O   UNL     2      -6.237   6.896  69.415  1.00  0.00    -0.032 OA 
BRANCH  32  35
HETATM   35  C   UNL     2      -8.243   5.943  70.356  1.00  0.00    -0.111 C  
HETATM   36  C   UNL     2      -8.152   5.079  72.729  1.00  0.00    -0.105 C  
HETATM   37  C   UNL     2      -9.663   5.366  72.769  1.00  0.00    -0.169 C  
HETATM   38  C   UNL     2     -10.273   5.119  71.380  1.00  0.00    -0.213 C  
HETATM   39  C   UNL     2      -7.535   6.075  71.730  1.00  0.00    -0.095 C  
HETATM   40  N   UNL     2      -9.227   4.807  70.377  1.00  0.00    -0.128 NA 
HETATM   41  C   UNL     2      -8.597   3.528  70.803  1.00  0.00    -0.071 C  
HETATM   42  C   UNL     2      -7.887   3.656  72.176  1.00  0.00    -0.063 C  
BRANCH  42  43
HETATM   43  C   UNL     2      -8.335   2.576  73.134  1.00  0.00    -0.070 C  
HETATM   44  C   UNL     2      -8.997   1.468  72.774  1.00  0.00    -0.072 C  
ENDBRANCH  42  43
ENDBRANCH  32  35
ENDBRANCH  29  32
ENDBRANCH   4  22
TORSDOF 6
ENDMDL
MODEL      217
REMARK 921   NORMALIZED FREE ENERGY PREDICTED BY IDOCK:   -2.31 KCAL/MOL
REMARK 922        TOTAL FREE ENERGY PREDICTED BY IDOCK:   -6.20 KCAL/MOL
REMARK 923 INTER-LIGAND FREE ENERGY PREDICTED BY IDOCK:   -7.93 KCAL/MOL
REMARK 924 INTRA-LIGAND FREE ENERGY PREDICTED BY IDOCK:    1.74 KCAL/MOL
REMARK 927      BINDING AFFINITY PREDICTED BY RF-SCORE:    0.00 PKD
ROOT
HETATM    1  C   UNL     1      -8.187   6.669  68.115  1.00  0.00    -0.114 C  
HETATM    2  C   UNL     1      -7.905   6.809  69.609  1.00  0.00    -0.115 C  
HETATM    3  C   UNL     2      -6.316   9.249  66.747  1.00  0.00    -0.066 C  
HETATM    4  O   UNL     2      -6.068   8.872  68.091  1.00  0.00    -0.049 OA 
ENDROOT
BRANCH   2   5
HETATM    5  C   UNL     1      -8.989   7.541  70.472  1.00  0.00    -0.152 C  
HETATM    6  O   UNL     1     -10.994   6.613  69.376  1.00  0.00    -0.265 OA 
HETATM    7  C   UNL     1      -8.418   8.960  70.632  1.00  0.00    -0.184 C  
HETATM    8  C   UNL     1     -10.315   7.600  69.674  1.00  0.00    -0.213 C  
HETATM    9  H   UNL     1     -11.763   8.943  69.118  1.00  0.00     0.000 HD 
HETATM   10  N   UNL     1      -8.711   9.832  69.621  1.00  0.00    -0.183 N  
HETATM   11  O   UNL     1      -7.672   9.311  71.538  1.00  0.00    -0.340 OA 
HETATM   12  O   UNL     1     -10.450  11.039  68.855  1.00  0.00    -0.188 OA 
HETATM   13  N   UNL     1     -10.769   8.846  69.325  1.00  0.00    -0.202 N  
HETATM   14  C   UNL     1     -10.001   9.959  69.233  1.00  0.00    -0.207 C  
HETATM   15  H   UNL     1      -7.975  10.375  69.168  1.00  0.00     0.000 HD 
BRANCH   5  16
HETATM   16  C   UNL     1      -9.191   6.839  71.832  1.00  0.00    -0.142 A  
HETATM   17  C   UNL     1      -8.335   5.425  73.625  1.00  0.00    -0.112 A  
HETATM   18  C   UNL     1      -8.307   5.846  72.293  1.00  0.00    -0.118 A  
HETATM   19  C   UNL     1     -10.208   7.258  72.707  1.00  0.00    -0.266 A  
HETATM   20  C   UNL     1      -9.265   5.961  74.508  1.00  0.00    -0.144 A  
HETATM   21  C   UNL     1     -10.223   6.852  74.041  1.00  0.00    -0.384 A  
ENDBRANCH   5  16
ENDBRANCH   2   5
BRANCH   4  22
HETATM   22  C   UNL     2      -5.890   9.881  68.986  1.00  0.00    -0.034 A  
HETATM   23  C   UNL     2      -5.253   9.797  70.208  1.00  0.00    -0.036 A  
HETATM   24  C   UNL     2      -6.319  12.283  69.341  1.00  0.00    -0.118 A  
HETATM   25  C   UNL     2      -6.686  14.616  69.868  1.00  0.00    -0.157 A  
HETATM   26  C   UNL     2      -5.151  10.946  70.996  1.00  0.00    -0.102 A  
HETATM   27  C   UNL     2      -6.054  14.385  71.078  1.00  0.00    -0.100 A  
HETATM   28  C   UNL     2      -6.343  11.118  68.542  1.00  0.00    -0.046 A  
HETATM   29  C   UNL     2      -6.854  13.558  68.961  1.00  0.00    -0.107 A  
HETATM   30  C   UNL     2      -5.697  12.166  70.609  1.00  0.00    -0.128 A  
HETATM   31  N   UNL     2      -5.575  13.189  71.461  1.00  0.00    -0.382 NA 
BRANCH  29  32
HETATM   32  C   UNL     2      -7.496  13.831  67.585  1.00  0.00    -0.178 C  
HETATM   33  H   UNL     2      -8.664  12.882  66.293  1.00  0.00     0.000 HD 
HETATM   34  O   UNL     2      -8.269  12.714  67.140  1.00  0.00    -0.182 OA 
BRANCH  32  35
HETATM   35  C   UNL     2      -8.420  15.098  67.467  1.00  0.00    -0.170 C  
HETATM   36  C   UNL     2      -9.578  16.544  69.186  1.00  0.00    -0.228 C  
HETATM   37  C   UNL     2     -10.361  17.129  67.997  1.00  0.00    -0.353 C  
HETATM   38  C   UNL     2     -10.585  16.038  66.938  1.00  0.00    -0.300 C  
HETATM   39  C   UNL     2      -8.212  16.091  68.640  1.00  0.00    -0.193 C  
HETATM   40  N   UNL     2      -9.881  14.784  67.296  1.00  0.00    -0.229 NA 
HETATM   41  C   UNL     2     -10.498  14.292  68.556  1.00  0.00    -0.253 C  
HETATM   42  C   UNL     2     -10.292  15.281  69.733  1.00  0.00    -0.266 C  
BRANCH  42  43
HETATM   43  C   UNL     2     -11.599  15.612  70.415  1.00  0.00    -0.368 C  
HETATM   44  C   UNL     2     -11.703  16.189  71.620  1.00  0.00    -0.558 C  
ENDBRANCH  42  43
ENDBRANCH  32  35
ENDBRANCH  29  32
ENDBRANCH   4  22
TORSDOF 6
ENDMDL
MODEL      218
REMARK 921   NORMALIZED FREE ENERGY PREDICTED BY IDOCK:   -2.31 KCAL/MOL
REMARK 922        TOTAL FREE ENERGY PREDICTED BY IDOCK:   -6.19 KCAL/MOL
REMARK 923 INTER-LIGAND FREE ENERGY PREDICTED BY IDOCK:   -8.15 KCAL/MOL
REMARK 924 INTRA-LIGAND FREE ENERGY PREDICTED BY IDOCK:    1.95 KCAL/MOL
REMARK 927      BINDING AFFINITY PREDICTED BY RF-SCORE:    0.00 PKD
ROOT
HETATM    1  C   UNL     1      -9.680   8.944  71.747  1.00  0.00    -0.365 C  
HETATM    2  C   UNL     1      -9.250   7.957  70.664  1.00  0.00    -0.157 C  
HETATM    3  C   UNL     2     -11.673  11.173  69.989  1.00  0.00    -0.356 C  
HETATM    4  O   UNL     2     -11.336   9.938  69.378  1.00  0.00    -0.193 OA 
ENDROOT
BRANCH   2   5
HETATM    5  C   UNL     1      -7.824   8.154  70.048  1.00  0.00    -0.103 C  
HETATM    6  O   UNL     1      -6.589   8.560  72.143  1.00  0.00    -0.075 OA 
HETATM    7  C   UNL     1      -8.094   8.991  68.786  1.00  0.00    -0.105 C  
HETATM    8  C   UNL     1      -6.954   8.968  71.037  1.00  0.00    -0.097 C  
HETATM    9  H   UNL     1      -5.713  10.601  71.070  1.00  0.00     0.000 HD 
HETATM   10  N   UNL     1      -8.141  10.345  68.974  1.00  0.00    -0.128 N  
HETATM   11  O   UNL     1      -8.345   8.524  67.682  1.00  0.00    -0.126 OA 
HETATM   12  O   UNL     1      -6.742  12.068  69.345  1.00  0.00    -0.110 OA 
HETATM   13  N   UNL     1      -6.534  10.204  70.615  1.00  0.00    -0.113 N  
HETATM   14  C   UNL     1      -7.125  10.938  69.640  1.00  0.00    -0.116 C  
HETATM   15  H   UNL     1      -8.925  10.894  68.621  1.00  0.00     0.000 HD 
BRANCH   5  16
HETATM   16  C   UNL     1      -7.164   6.799  69.715  1.00  0.00    -0.077 A  
HETATM   17  C   UNL     1      -5.157   5.454  69.377  1.00  0.00    -0.003 A  
HETATM   18  C   UNL     1      -5.796   6.697  69.400  1.00  0.00    -0.018 A  
HETATM   19  C   UNL     1      -7.893   5.602  69.830  1.00  0.00    -0.087 A  
HETATM   20  C   UNL     1      -5.878   4.293  69.634  1.00  0.00    -0.018 A  
HETATM   21  C   UNL     1      -7.252   4.364  69.827  1.00  0.00    -0.050 A  
ENDBRANCH   5  16
ENDBRANCH   2   5
BRANCH   4  22
HETATM   22  C   UNL     2     -10.986   9.983  68.064  1.00  0.00    -0.240 A  
HETATM   23  C   UNL     2     -10.611   8.915  67.273  1.00  0.00    -0.304 A  
HETATM   24  C   UNL     2     -10.739  11.522  66.154  1.00  0.00    -0.324 A  
HETATM   25  C   UNL     2     -10.411  12.893  64.187  1.00  0.00    -0.429 A  
HETATM   26  C   UNL     2     -10.297   9.146  65.932  1.00  0.00     0.237 A  
HETATM   27  C   UNL     2     -10.021  11.745  63.519  1.00  0.00    -0.408 A  
HETATM   28  C   UNL     2     -11.115  11.241  67.486  1.00  0.00    -0.346 A  
HETATM   29  C   UNL     2     -10.769  12.819  65.542  1.00  0.00    -0.303 A  
HETATM   30  C   UNL     2     -10.316  10.419  65.370  1.00  0.00    -0.200 A  
HETATM   31  N   UNL     2      -9.958  10.528  64.087  1.00  0.00    -0.333 NA 
BRANCH  29  32
HETATM   32  C   UNL     2     -11.270  14.085  66.266  1.00  0.00    -0.320 C  
HETATM   33  H   UNL     2     -12.565  14.547  67.696  1.00  0.00     0.000 HD 
HETATM   34  O   UNL     2     -12.256  13.767  67.250  1.00  0.00    -0.375 OA 
BRANCH  32  35
HETATM   35  C   UNL     2     -10.187  14.975  66.981  1.00  0.00    -0.257 C  
HETATM   36  C   UNL     2      -9.489  15.218  69.398  1.00  0.00    -0.231 C  
HETATM   37  C   UNL     2      -8.729  16.472  68.932  1.00  0.00    -0.247 C  
HETATM   38  C   UNL     2      -9.500  17.149  67.788  1.00  0.00    -0.253 C  
HETATM   39  C   UNL     2      -9.544  14.257  68.196  1.00  0.00    -0.218 C  
HETATM   40  N   UNL     2     -10.672  16.343  67.374  1.00  0.00    -0.309 NA 
HETATM   41  C   UNL     2     -11.592  16.296  68.543  1.00  0.00    -0.188 C  
HETATM   42  C   UNL     2     -10.953  15.578  69.760  1.00  0.00    -0.299 C  
BRANCH  42  43
HETATM   43  C   UNL     2     -11.043  16.421  71.011  1.00  0.00    -0.003 C  
HETATM   44  C   UNL     2     -11.573  16.007  72.170  1.00  0.00    -0.499 C  
ENDBRANCH  42  43
ENDBRANCH  32  35
ENDBRANCH  29  32
ENDBRANCH   4  22
TORSDOF 6
ENDMDL
MODEL      219
REMARK 921   NORMALIZED FREE ENERGY PREDICTED BY IDOCK:   -2.23 KCAL/MOL
REMARK 922        TOTAL FREE ENERGY PREDICTED BY IDOCK:   -6.10 KCAL/MOL
REMARK 923 INTER-LIGAND FREE ENERGY PREDICTED BY IDOCK:   -7.46 KCAL/MOL
REMARK 924 INTRA-LIGAND FREE ENERGY PREDICTED BY IDOCK:    1.36 KCAL/MOL
REMARK 927      BINDING AFFINITY PREDICTED BY RF-SCORE:    0.00 PKD
ROOT
HETATM    1  C   UNL     1     -12.387  14.291  67.059  1.00  0.00    -0.203 C  
HETATM    2  C   UNL     1     -11.088  13.668  67.563  1.00  0.00    -0.296 C  
HETATM    3  C   UNL     2     -13.049  12.446  64.197  1.00  0.00    -0.021 C  
HETATM    4  O   UNL     2     -12.078  11.958  65.108  1.00  0.00    -0.319 OA 
ENDROOT
BRANCH   2   5
HETATM    5  C   UNL     1      -9.758  14.426  67.228  1.00  0.00    -0.233 C  
HETATM    6  O   UNL     1      -9.582  15.756  69.297  1.00  0.00    -0.236 OA 
HETATM    7  C   UNL     1      -9.916  14.781  65.739  1.00  0.00    -0.347 C  
HETATM    8  C   UNL     1      -9.692  15.726  68.069  1.00  0.00    -0.212 C  
HETATM    9  H   UNL     1      -9.335  17.733  67.843  1.00  0.00     0.000 HD 
HETATM   10  N   UNL     1     -10.583  15.944  65.477  1.00  0.00    -0.385 N  
HETATM   11  O   UNL     1      -9.565  14.060  64.812  1.00  0.00     0.141 OA 
HETATM   12  O   UNL     1     -10.243  18.167  65.569  1.00  0.00    -0.534 OA 
HETATM   13  N   UNL     1      -9.712  16.909  67.376  1.00  0.00    -0.243 N  
HETATM   14  C   UNL     1     -10.193  17.070  66.119  1.00  0.00    -0.337 C  
HETATM   15  H   UNL     1     -11.357  15.965  64.812  1.00  0.00     0.000 HD 
BRANCH   5  16
HETATM   16  C   UNL     1      -8.524  13.535  67.485  1.00  0.00    -0.192 A  
HETATM   17  C   UNL     1      -6.937  12.526  69.037  1.00  0.00    -0.066 A  
HETATM   18  C   UNL     1      -7.863  13.525  68.727  1.00  0.00    -0.029 A  
HETATM   19  C   UNL     1      -8.092  12.616  66.514  1.00  0.00     0.326 A  
HETATM   20  C   UNL     1      -6.630  11.542  68.103  1.00  0.00    -0.057 A  
HETATM   21  C   UNL     1      -7.183  11.607  66.830  1.00  0.00    -0.082 A  
ENDBRANCH   5  16
ENDBRANCH   2   5
BRANCH   4  22
HETATM   22  C   UNL     2     -10.935  11.453  64.571  1.00  0.00    -0.277 A  
HETATM   23  C   UNL     2     -10.245  11.952  63.484  1.00  0.00    -0.485 A  
HETATM   24  C   UNL     2      -9.266   9.660  64.847  1.00  0.00    -0.306 A  
HETATM   25  C   UNL     2      -7.559   7.948  64.950  1.00  0.00    -0.104 A  
HETATM   26  C   UNL     2      -9.074  11.308  63.076  1.00  0.00    -0.257 A  
HETATM   27  C   UNL     2      -6.985   8.530  63.832  1.00  0.00    -0.083 A  
HETATM   28  C   UNL     2     -10.407  10.376  65.273  1.00  0.00    -0.267 A  
HETATM   29  C   UNL     2      -8.738   8.490  65.487  1.00  0.00    -0.208 A  
HETATM   30  C   UNL     2      -8.595  10.162  63.705  1.00  0.00    -0.197 A  
HETATM   31  N   UNL     2      -7.487   9.607  63.204  1.00  0.00    -0.110 NA 
BRANCH  29  32
HETATM   32  C   UNL     2      -9.336   7.884  66.772  1.00  0.00    -0.184 C  
HETATM   33  H   UNL     2     -11.019   8.015  67.814  1.00  0.00     0.000 HD 
HETATM   34  O   UNL     2     -10.650   8.389  67.022  1.00  0.00    -0.314 OA 
BRANCH  32  35
HETATM   35  C   UNL     2      -9.431   6.316  66.845  1.00  0.00    -0.138 C  
HETATM   36  C   UNL     2      -9.670   4.699  68.773  1.00  0.00    -0.230 C  
HETATM   37  C   UNL     2      -9.315   3.606  67.750  1.00  0.00    -0.242 C  
HETATM   38  C   UNL     2      -8.327   4.168  66.715  1.00  0.00    -0.101 C  
HETATM   39  C   UNL     2     -10.357   5.834  67.993  1.00  0.00    -0.258 C  
HETATM   40  N   UNL     2      -8.100   5.619  66.915  1.00  0.00    -0.102 NA 
HETATM   41  C   UNL     2      -7.459   5.770  68.249  1.00  0.00    -0.081 C  
HETATM   42  C   UNL     2      -8.382   5.291  69.399  1.00  0.00    -0.095 C  
BRANCH  42  43
HETATM   43  C   UNL     2      -7.677   4.304  70.301  1.00  0.00    -0.045 C  
HETATM   44  C   UNL     2      -8.008   3.012  70.418  1.00  0.00    -0.050 C  
ENDBRANCH  42  43
ENDBRANCH  32  35
ENDBRANCH  29  32
ENDBRANCH   4  22
TORSDOF 6
ENDMDL
MODEL      220
REMARK 921   NORMALIZED FREE ENERGY PREDICTED BY IDOCK:   -2.12 KCAL/MOL
REMARK 922        TOTAL FREE ENERGY PREDICTED BY IDOCK:   -5.94 KCAL/MOL
REMARK 923 INTER-LIGAND FREE ENERGY PREDICTED BY IDOCK:   -4.58 KCAL/MOL
REMARK 924 INTRA-LIGAND FREE ENERGY PREDICTED BY IDOCK:   -1.36 KCAL/MOL
REMARK 927      BINDING AFFINITY PREDICTED BY RF-SCORE:    0.00 PKD
ROOT
HETATM    1  C   UNL     1     -10.487   9.022  69.253  1.00  0.00    -0.238 C  
HETATM    2  C   UNL     1      -9.309   9.426  70.136  1.00  0.00    -0.276 C  
HETATM    3  C   UNL     2     -11.592   6.099  70.759  1.00  0.00    -0.187 C  
HETATM    4  O   UNL     2     -10.695   6.933  71.475  1.00  0.00    -0.221 OA 
ENDROOT
BRANCH   2   5
HETATM    5  C   UNL     1      -7.875   9.069  69.617  1.00  0.00    -0.088 C  
HETATM    6  O   UNL     1      -8.294   6.712  69.025  1.00  0.00    -0.118 OA 
HETATM    7  C   UNL     1      -6.947   9.769  70.625  1.00  0.00    -0.094 C  
HETATM    8  C   UNL     1      -7.674   7.535  69.704  1.00  0.00    -0.100 C  
HETATM    9  H   UNL     1      -6.322   6.159  70.399  1.00  0.00     0.000 HD 
HETATM   10  N   UNL     1      -6.658   9.057  71.756  1.00  0.00    -0.050 N  
HETATM   11  O   UNL     1      -6.541  10.919  70.512  1.00  0.00    -0.309 OA 
HETATM   12  O   UNL     1      -5.393   7.311  72.398  1.00  0.00    -0.036 OA 
HETATM   13  N   UNL     1      -6.705   7.088  70.566  1.00  0.00    -0.052 N  
HETATM   14  C   UNL     1      -6.217   7.786  71.621  1.00  0.00    -0.035 C  
HETATM   15  H   UNL     1      -6.772   9.475  72.680  1.00  0.00     0.000 HD 
BRANCH   5  16
HETATM   16  C   UNL     1      -7.656   9.577  68.176  1.00  0.00    -0.079 A  
HETATM   17  C   UNL     1      -7.283   9.117  65.811  1.00  0.00    -0.089 A  
HETATM   18  C   UNL     1      -7.209   8.725  67.150  1.00  0.00    -0.080 A  
HETATM   19  C   UNL     1      -8.011  10.889  67.821  1.00  0.00    -0.111 A  
HETATM   20  C   UNL     1      -7.772  10.375  65.477  1.00  0.00    -0.147 A  
HETATM   21  C   UNL     1      -8.104  11.274  66.483  1.00  0.00    -0.160 A  
ENDBRANCH   5  16
ENDBRANCH   2   5
BRANCH   4  22
HETATM   22  C   UNL     2      -9.688   6.312  72.147  1.00  0.00    -0.152 A  
HETATM   23  C   UNL     2      -9.148   6.693  73.358  1.00  0.00    -0.142 A  
HETATM   24  C   UNL     2      -8.167   4.374  72.043  1.00  0.00    -0.100 A  
HETATM   25  C   UNL     2      -6.580   2.548  72.086  1.00  0.00    -0.015 A  
HETATM   26  C   UNL     2      -8.121   5.924  73.911  1.00  0.00    -0.108 A  
HETATM   27  C   UNL     2      -6.109   3.058  73.284  1.00  0.00    -0.008 A  
HETATM   28  C   UNL     2      -9.250   5.135  71.549  1.00  0.00    -0.177 A  
HETATM   29  C   UNL     2      -7.623   3.207  71.414  1.00  0.00    -0.044 A  
HETATM   30  C   UNL     2      -7.598   4.806  73.267  1.00  0.00    -0.091 A  
HETATM   31  N   UNL     2      -6.589   4.169  73.869  1.00  0.00    -0.050 NA 
BRANCH  29  32
HETATM   32  C   UNL     2      -8.193   2.599  70.117  1.00  0.00    -0.041 C  
HETATM   33  H   UNL     2      -9.938   1.936  69.447  1.00  0.00     0.000 HD 
HETATM   34  O   UNL     2      -9.587   2.310  70.246  1.00  0.00    -0.111 OA 
BRANCH  32  35
HETATM   35  C   UNL     2      -8.026   3.443  68.799  1.00  0.00    -0.061 C  
HETATM   36  C   UNL     2      -9.335   3.530  66.639  1.00  0.00    -0.194 C  
HETATM   37  C   UNL     2      -8.143   4.330  66.084  1.00  0.00    -0.102 C  
HETATM   38  C   UNL     2      -6.840   3.829  66.726  1.00  0.00    -0.054 C  
HETATM   39  C   UNL     2      -9.389   3.804  68.153  1.00  0.00    -0.228 C  
HETATM   40  N   UNL     2      -7.109   2.823  67.781  1.00  0.00    -0.049 NA 
HETATM   41  C   UNL     2      -7.731   1.653  67.106  1.00  0.00    -0.060 C  
HETATM   42  C   UNL     2      -9.095   2.009  66.459  1.00  0.00    -0.062 C  
BRANCH  42  43
HETATM   43  C   UNL     2      -9.148   1.588  65.009  1.00  0.00    -0.121 C  
HETATM   44  C   UNL     2      -9.690   2.319  64.025  1.00  0.00    -0.139 C  
ENDBRANCH  42  43
ENDBRANCH  32  35
ENDBRANCH  29  32
ENDBRANCH   4  22
TORSDOF 6
ENDMDL
MODEL      221
REMARK 921   NORMALIZED FREE ENERGY PREDICTED BY IDOCK:   -2.11 KCAL/MOL
REMARK 922        TOTAL FREE ENERGY PREDICTED BY IDOCK:   -5.93 KCAL/MOL
REMARK 923 INTER-LIGAND FREE ENERGY PREDICTED BY IDOCK:   -6.97 KCAL/MOL
REMARK 924 INTRA-LIGAND FREE ENERGY PREDICTED BY IDOCK:    1.04 KCAL/MOL
REMARK 927      BINDING AFFINITY PREDICTED BY RF-SCORE:    0.00 PKD
ROOT
HETATM    1  C   UNL     1      -6.689   7.461  68.603  1.00  0.00    -0.057 C  
HETATM    2  C   UNL     1      -7.796   7.248  67.573  1.00  0.00    -0.112 C  
HETATM    3  C   UNL     2      -7.537  10.520  70.001  1.00  0.00     0.061 C  
HETATM    4  O   UNL     2      -8.503   9.844  69.213  1.00  0.00    -0.132 OA 
ENDROOT
BRANCH   2   5
HETATM    5  C   UNL     1      -7.457   7.591  66.083  1.00  0.00    -0.083 C  
HETATM    6  O   UNL     1      -5.149   6.723  66.039  1.00  0.00    -0.016 OA 
HETATM    7  C   UNL     1      -8.078   8.985  65.888  1.00  0.00    -0.108 C  
HETATM    8  C   UNL     1      -5.918   7.681  65.922  1.00  0.00    -0.038 C  
HETATM    9  H   UNL     1      -4.484   8.924  65.145  1.00  0.00     0.000 HD 
HETATM   10  N   UNL     1      -7.291  10.040  66.256  1.00  0.00    -0.102 N  
HETATM   11  O   UNL     1      -9.229   9.187  65.519  1.00  0.00    -0.216 OA 
HETATM   12  O   UNL     1      -5.491  11.168  65.512  1.00  0.00    -0.180 OA 
HETATM   13  N   UNL     1      -5.405   8.906  65.582  1.00  0.00    -0.037 N  
HETATM   14  C   UNL     1      -6.025  10.095  65.780  1.00  0.00    -0.088 C  
HETATM   15  H   UNL     1      -7.648  10.769  66.873  1.00  0.00     0.000 HD 
BRANCH   5  16
HETATM   16  C   UNL     1      -8.056   6.548  65.116  1.00  0.00    -0.133 A  
HETATM   17  C   UNL     1      -7.996   5.369  62.981  1.00  0.00    -0.097 A  
HETATM   18  C   UNL     1      -7.665   6.477  63.766  1.00  0.00    -0.108 A  
HETATM   19  C   UNL     1      -8.932   5.556  65.589  1.00  0.00    -0.152 A  
HETATM   20  C   UNL     1      -8.749   4.332  63.519  1.00  0.00    -0.121 A  
HETATM   21  C   UNL     1      -9.246   4.441  64.813  1.00  0.00    -0.157 A  
ENDBRANCH   5  16
ENDBRANCH   2   5
BRANCH   4  22
HETATM   22  C   UNL     2      -9.220  10.604  68.341  1.00  0.00    -0.159 A  
HETATM   23  C   UNL     2     -10.382  10.239  67.692  1.00  0.00    -0.264 A  
HETATM   24  C   UNL     2      -9.286  12.827  67.277  1.00  0.00    -0.200 A  
HETATM   25  C   UNL     2      -9.487  14.942  66.119  1.00  0.00    -0.328 A  
HETATM   26  C   UNL     2     -10.993  11.159  66.836  1.00  0.00    -0.333 A  
HETATM   27  C   UNL     2     -10.623  14.439  65.510  1.00  0.00    -0.347 A  
HETATM   28  C   UNL     2      -8.734  11.898  68.186  1.00  0.00    -0.173 A  
HETATM   29  C   UNL     2      -8.767  14.138  67.017  1.00  0.00    -0.222 A  
HETATM   30  C   UNL     2     -10.456  12.418  66.588  1.00  0.00    -0.229 A  
HETATM   31  N   UNL     2     -11.104  13.201  65.720  1.00  0.00    -0.272 NA 
BRANCH  29  32
HETATM   32  C   UNL     2      -7.542  14.724  67.748  1.00  0.00    -0.160 C  
HETATM   33  H   UNL     2      -5.706  15.320  67.295  1.00  0.00     0.000 HD 
HETATM   34  O   UNL     2      -6.460  14.960  66.844  1.00  0.00    -0.001 OA 
BRANCH  32  35
HETATM   35  C   UNL     2      -7.761  16.058  68.552  1.00  0.00    -0.158 C  
HETATM   36  C   UNL     2      -9.457  17.922  68.356  1.00  0.00    -0.304 C  
HETATM   37  C   UNL     2      -8.530  18.709  69.299  1.00  0.00     0.160 C  
HETATM   38  C   UNL     2      -7.067  18.327  69.024  1.00  0.00    -0.236 C  
HETATM   39  C   UNL     2      -9.261  16.430  68.681  1.00  0.00    -0.231 C  
HETATM   40  N   UNL     2      -6.971  17.229  68.033  1.00  0.00    -0.172 NA 
HETATM   41  C   UNL     2      -7.525  17.756  66.757  1.00  0.00    -0.211 C  
HETATM   42  C   UNL     2      -9.026  18.127  66.881  1.00  0.00    -0.275 C  
BRANCH  42  43
HETATM   43  C   UNL     2      -9.290  19.535  66.397  1.00  0.00    -0.443 C  
HETATM   44  C   UNL     2     -10.508  20.078  66.270  1.00  0.00    -0.536 C  
ENDBRANCH  42  43
ENDBRANCH  32  35
ENDBRANCH  29  32
ENDBRANCH   4  22
TORSDOF 6
ENDMDL
MODEL      222
REMARK 921   NORMALIZED FREE ENERGY PREDICTED BY IDOCK:   -2.07 KCAL/MOL
REMARK 922        TOTAL FREE ENERGY PREDICTED BY IDOCK:   -5.87 KCAL/MOL
REMARK 923 INTER-LIGAND FREE ENERGY PREDICTED BY IDOCK:   -4.57 KCAL/MOL
REMARK 924 INTRA-LIGAND FREE ENERGY PREDICTED BY IDOCK:   -1.30 KCAL/MOL
REMARK 927      BINDING AFFINITY PREDICTED BY RF-SCORE:    0.00 PKD
ROOT
HETATM    1  C   UNL     1      -6.508  13.404  67.330  1.00  0.00    -0.014 C  
HETATM    2  C   UNL     1      -7.953  13.438  66.837  1.00  0.00     0.160 C  
HETATM    3  C   UNL     2      -5.687  10.047  67.031  1.00  0.00    -0.046 C  
HETATM    4  O   UNL     2      -6.856  10.519  66.382  1.00  0.00    -0.103 OA 
ENDROOT
BRANCH   2   5
HETATM    5  C   UNL     1      -9.077  13.459  67.928  1.00  0.00    -0.208 C  
HETATM    6  O   UNL     1     -10.959  12.741  66.505  1.00  0.00    -0.254 OA 
HETATM    7  C   UNL     1      -8.770  14.735  68.730  1.00  0.00    -0.178 C  
HETATM    8  C   UNL     1     -10.453  13.601  67.231  1.00  0.00    -0.260 C  
HETATM    9  H   UNL     1     -12.168  14.722  67.341  1.00  0.00     0.000 HD 
HETATM   10  N   UNL     1      -9.305  15.890  68.232  1.00  0.00    -0.192 N  
HETATM   11  O   UNL     1      -8.028  14.782  69.705  1.00  0.00    -0.030 OA 
HETATM   12  O   UNL     1     -11.296  16.928  68.088  1.00  0.00    -0.217 OA 
HETATM   13  N   UNL     1     -11.160  14.748  67.491  1.00  0.00    -0.308 N  
HETATM   14  C   UNL     1     -10.623  15.912  67.932  1.00  0.00    -0.300 C  
HETATM   15  H   UNL     1      -8.723  16.716  68.089  1.00  0.00     0.000 HD 
BRANCH   5  16
HETATM   16  C   UNL     1      -9.029  12.193  68.809  1.00  0.00     0.110 A  
HETATM   17  C   UNL     1     -10.048  10.113  69.573  1.00  0.00    -0.258 A  
HETATM   18  C   UNL     1     -10.165  11.389  69.015  1.00  0.00    -0.137 A  
HETATM   19  C   UNL     1      -7.810  11.741  69.343  1.00  0.00     0.416 A  
HETATM   20  C   UNL     1      -8.803   9.633  69.965  1.00  0.00    -0.259 A  
HETATM   21  C   UNL     1      -7.689  10.460  69.881  1.00  0.00    -0.083 A  
ENDBRANCH   5  16
ENDBRANCH   2   5
BRANCH   4  22
HETATM   22  C   UNL     2      -7.962   9.731  66.465  1.00  0.00    -0.112 A  
HETATM   23  C   UNL     2      -9.210  10.002  65.942  1.00  0.00    -0.211 A  
HETATM   24  C   UNL     2      -8.764   7.566  67.332  1.00  0.00    -0.124 A  
HETATM   25  C   UNL     2      -9.725   5.499  68.142  1.00  0.00    -0.164 A  
HETATM   26  C   UNL     2     -10.232   9.066  66.113  1.00  0.00    -0.141 A  
HETATM   27  C   UNL     2     -10.930   5.910  67.598  1.00  0.00    -0.145 A  
HETATM   28  C   UNL     2      -7.737   8.504  67.080  1.00  0.00    -0.092 A  
HETATM   29  C   UNL     2      -8.598   6.330  68.040  1.00  0.00    -0.116 A  
HETATM   30  C   UNL     2     -10.048   7.883  66.823  1.00  0.00    -0.281 A  
HETATM   31  N   UNL     2     -11.107   7.079  66.959  1.00  0.00    -0.317 NA 
BRANCH  29  32
HETATM   32  C   UNL     2      -7.241   5.841  68.585  1.00  0.00    -0.082 C  
HETATM   33  H   UNL     2      -5.339   5.861  68.026  1.00  0.00     0.000 HD 
HETATM   34  O   UNL     2      -6.174   6.162  67.690  1.00  0.00    -0.026 OA 
BRANCH  32  35
HETATM   35  C   UNL     2      -6.813   6.362  70.006  1.00  0.00    -0.054 C  
HETATM   36  C   UNL     2      -5.844   5.210  72.036  1.00  0.00    -0.020 C  
HETATM   37  C   UNL     2      -6.176   6.510  72.790  1.00  0.00    -0.054 C  
HETATM   38  C   UNL     2      -7.455   7.133  72.207  1.00  0.00    -0.084 C  
HETATM   39  C   UNL     2      -5.586   5.598  70.569  1.00  0.00    -0.009 C  
HETATM   40  N   UNL     2      -7.927   6.387  71.017  1.00  0.00    -0.114 NA 
HETATM   41  C   UNL     2      -8.288   5.022  71.484  1.00  0.00    -0.119 C  
HETATM   42  C   UNL     2      -7.064   4.254  72.047  1.00  0.00    -0.055 C  
BRANCH  42  43
HETATM   43  C   UNL     2      -7.344   3.697  73.424  1.00  0.00    -0.060 C  
HETATM   44  C   UNL     2      -6.725   2.633  73.953  1.00  0.00    -0.027 C  
ENDBRANCH  42  43
ENDBRANCH  32  35
ENDBRANCH  29  32
ENDBRANCH   4  22
TORSDOF 6
ENDMDL
MODEL      223
REMARK 921   NORMALIZED FREE ENERGY PREDICTED BY IDOCK:   -2.05 KCAL/MOL
REMARK 922        TOTAL FREE ENERGY PREDICTED BY IDOCK:   -5.85 KCAL/MOL
REMARK 923 INTER-LIGAND FREE ENERGY PREDICTED BY IDOCK:   -4.17 KCAL/MOL
REMARK 924 INTRA-LIGAND FREE ENERGY PREDICTED BY IDOCK:   -1.68 KCAL/MOL
REMARK 927      BINDING AFFINITY PREDICTED BY RF-SCORE:    0.00 PKD
ROOT
HETATM    1  C   UNL     1      -8.841  15.094  66.034  1.00  0.00     0.043 C  
HETATM    2  C   UNL     1      -9.255  13.641  66.257  1.00  0.00    -0.080 C  
HETATM    3  C   UNL     2      -5.780  15.262  67.657  1.00  0.00    -0.055 C  
HETATM    4  O   UNL     2      -6.334  13.985  67.387  1.00  0.00    -0.323 OA 
ENDROOT
BRANCH   2   5
HETATM    5  C   UNL     1     -10.281  13.362  67.407  1.00  0.00    -0.237 C  
HETATM    6  O   UNL     1     -12.331  13.288  66.038  1.00  0.00    -0.420 OA 
HETATM    7  C   UNL     1      -9.791  14.268  68.549  1.00  0.00    -0.231 C  
HETATM    8  C   UNL     1     -11.690  13.817  66.950  1.00  0.00    -0.395 C  
HETATM    9  H   UNL     1     -13.275  14.939  67.608  1.00  0.00     0.000 HD 
HETATM   10  N   UNL     1     -10.252  15.555  68.522  1.00  0.00    -0.212 N  
HETATM   11  O   UNL     1      -8.972  13.935  69.398  1.00  0.00     0.422 OA 
HETATM   12  O   UNL     1     -12.141  16.702  68.947  1.00  0.00     0.262 OA 
HETATM   13  N   UNL     1     -12.260  14.849  67.649  1.00  0.00    -0.028 N  
HETATM   14  C   UNL     1     -11.582  15.760  68.391  1.00  0.00    -0.338 C  
HETATM   15  H   UNL     1      -9.608  16.342  68.600  1.00  0.00     0.000 HD 
BRANCH   5  16
HETATM   16  C   UNL     1     -10.283  11.872  67.808  1.00  0.00    -0.211 A  
HETATM   17  C   UNL     1     -10.132   9.518  67.186  1.00  0.00    -0.290 A  
HETATM   18  C   UNL     1     -10.411  10.846  66.853  1.00  0.00    -0.285 A  
HETATM   19  C   UNL     1     -10.040  11.490  69.139  1.00  0.00     0.006 A  
HETATM   20  C   UNL     1      -9.756   9.187  68.483  1.00  0.00    -0.166 A  
HETATM   21  C   UNL     1      -9.743  10.168  69.467  1.00  0.00    -0.251 A  
ENDBRANCH   5  16
ENDBRANCH   2   5
BRANCH   4  22
HETATM   22  C   UNL     2      -6.251  13.061  68.382  1.00  0.00    -0.081 A  
HETATM   23  C   UNL     2      -6.161  13.312  69.736  1.00  0.00    -0.128 A  
HETATM   24  C   UNL     2      -6.221  10.631  68.801  1.00  0.00    -0.043 A  
HETATM   25  C   UNL     2      -6.144   8.285  69.390  1.00  0.00    -0.037 A  
HETATM   26  C   UNL     2      -6.097  12.232  70.620  1.00  0.00     0.193 A  
HETATM   27  C   UNL     2      -6.023   8.677  70.712  1.00  0.00    -0.034 A  
HETATM   28  C   UNL     2      -6.353  11.745  67.942  1.00  0.00    -0.057 A  
HETATM   29  C   UNL     2      -6.230   9.259  68.382  1.00  0.00    -0.053 A  
HETATM   30  C   UNL     2      -6.087  10.911  70.184  1.00  0.00    -0.132 A  
HETATM   31  N   UNL     2      -5.982   9.959  71.116  1.00  0.00    -0.188 NA 
BRANCH  29  32
HETATM   32  C   UNL     2      -6.435   8.822  66.918  1.00  0.00    -0.061 C  
HETATM   33  H   UNL     2      -5.363   8.713  65.253  1.00  0.00     0.000 HD 
HETATM   34  O   UNL     2      -5.237   8.982  66.155  1.00  0.00    -0.032 OA 
BRANCH  32  35
HETATM   35  C   UNL     2      -6.934   7.350  66.675  1.00  0.00    -0.070 C  
HETATM   36  C   UNL     2      -6.314   5.587  64.973  1.00  0.00    -0.038 C  
HETATM   37  C   UNL     2      -7.569   4.841  65.460  1.00  0.00    -0.085 C  
HETATM   38  C   UNL     2      -8.652   5.856  65.858  1.00  0.00    -0.145 C  
HETATM   39  C   UNL     2      -5.802   6.422  66.161  1.00  0.00    -0.024 C  
HETATM   40  N   UNL     2      -8.143   7.247  65.787  1.00  0.00    -0.122 NA 
HETATM   41  C   UNL     2      -7.814   7.507  64.360  1.00  0.00    -0.128 C  
HETATM   42  C   UNL     2      -6.682   6.582  63.843  1.00  0.00    -0.044 C  
BRANCH  42  43
HETATM   43  C   UNL     2      -7.081   5.877  62.567  1.00  0.00    -0.045 C  
HETATM   44  C   UNL     2      -6.955   4.560  62.355  1.00  0.00    -0.031 C  
ENDBRANCH  42  43
ENDBRANCH  32  35
ENDBRANCH  29  32
ENDBRANCH   4  22
TORSDOF 6
ENDMDL
MODEL      224
REMARK 921   NORMALIZED FREE ENERGY PREDICTED BY IDOCK:   -2.05 KCAL/MOL
REMARK 922        TOTAL FREE ENERGY PREDICTED BY IDOCK:   -5.84 KCAL/MOL
REMARK 923 INTER-LIGAND FREE ENERGY PREDICTED BY IDOCK:   -6.05 KCAL/MOL
REMARK 924 INTRA-LIGAND FREE ENERGY PREDICTED BY IDOCK:    0.20 KCAL/MOL
REMARK 927      BINDING AFFINITY PREDICTED BY RF-SCORE:    0.00 PKD
ROOT
HETATM    1  C   UNL     1      -6.016   6.467  66.540  1.00  0.00    -0.028 C  
HETATM    2  C   UNL     1      -7.262   6.864  67.327  1.00  0.00    -0.089 C  
HETATM    3  C   UNL     2      -5.646   9.113  64.327  1.00  0.00    -0.068 C  
HETATM    4  O   UNL     2      -6.525   9.269  65.429  1.00  0.00    -0.067 OA 
ENDROOT
BRANCH   2   5
HETATM    5  C   UNL     1      -8.615   6.198  66.902  1.00  0.00    -0.109 C  
HETATM    6  O   UNL     1      -9.887   8.258  66.433  1.00  0.00    -0.243 OA 
HETATM    7  C   UNL     1      -8.777   5.047  67.910  1.00  0.00    -0.103 C  
HETATM    8  C   UNL     1      -9.763   7.221  67.091  1.00  0.00    -0.168 C  
HETATM    9  H   UNL     1     -11.627   7.361  67.933  1.00  0.00     0.000 HD 
HETATM   10  N   UNL     1      -9.374   5.379  69.094  1.00  0.00    -0.116 N  
HETATM   11  O   UNL     1      -8.339   3.914  67.747  1.00  0.00    -0.092 OA 
HETATM   12  O   UNL     1     -11.419   5.856  69.902  1.00  0.00    -0.309 OA 
HETATM   13  N   UNL     1     -10.718   6.910  68.024  1.00  0.00    -0.220 N  
HETATM   14  C   UNL     1     -10.548   6.050  69.058  1.00  0.00    -0.291 C  
HETATM   15  H   UNL     1      -8.944   5.126  69.984  1.00  0.00     0.000 HD 
BRANCH   5  16
HETATM   16  C   UNL     1      -8.558   5.691  65.445  1.00  0.00    -0.150 A  
HETATM   17  C   UNL     1      -7.837   5.986  63.134  1.00  0.00    -0.100 A  
HETATM   18  C   UNL     1      -8.152   6.522  64.385  1.00  0.00    -0.065 A  
HETATM   19  C   UNL     1      -8.802   4.338  65.150  1.00  0.00    -0.134 A  
HETATM   20  C   UNL     1      -7.954   4.619  62.910  1.00  0.00    -0.073 A  
HETATM   21  C   UNL     1      -8.469   3.800  63.908  1.00  0.00    -0.092 A  
ENDBRANCH   5  16
ENDBRANCH   2   5
BRANCH   4  22
HETATM   22  C   UNL     2      -7.717   9.874  65.179  1.00  0.00    -0.131 A  
HETATM   23  C   UNL     2      -8.518   9.689  64.070  1.00  0.00    -0.190 A  
HETATM   24  C   UNL     2      -9.346  11.462  66.129  1.00  0.00    -0.232 A  
HETATM   25  C   UNL     2     -11.031  13.021  66.895  1.00  0.00    -0.289 A  
HETATM   26  C   UNL     2      -9.725  10.389  63.986  1.00  0.00    -0.373 A  
HETATM   27  C   UNL     2     -11.719  12.769  65.720  1.00  0.00    -0.402 A  
HETATM   28  C   UNL     2      -8.168  10.688  66.213  1.00  0.00    -0.153 A  
HETATM   29  C   UNL     2      -9.803  12.382  67.130  1.00  0.00    -0.206 A  
HETATM   30  C   UNL     2     -10.134  11.290  64.964  1.00  0.00    -0.279 A  
HETATM   31  N   UNL     2     -11.288  11.934  64.759  1.00  0.00    -0.307 NA 
BRANCH  29  32
HETATM   32  C   UNL     2      -9.072  12.609  68.468  1.00  0.00    -0.052 C  
HETATM   33  H   UNL     2      -8.323  11.511  69.940  1.00  0.00     0.000 HD 
HETATM   34  O   UNL     2      -8.773  11.370  69.115  1.00  0.00     0.017 OA 
BRANCH  32  35
HETATM   35  C   UNL     2      -7.732  13.431  68.419  1.00  0.00    -0.138 C  
HETATM   36  C   UNL     2      -6.978  15.556  69.562  1.00  0.00    -0.190 C  
HETATM   37  C   UNL     2      -5.809  15.542  68.563  1.00  0.00    -0.099 C  
HETATM   38  C   UNL     2      -6.279  14.952  67.224  1.00  0.00     0.333 C  
HETATM   39  C   UNL     2      -7.394  14.090  69.783  1.00  0.00     0.330 C  
HETATM   40  N   UNL     2      -7.670  14.448  67.314  1.00  0.00    -0.182 NA 
HETATM   41  C   UNL     2      -8.534  15.628  67.590  1.00  0.00    -0.157 C  
HETATM   42  C   UNL     2      -8.200  16.289  68.953  1.00  0.00    -0.231 C  
BRANCH  42  43
HETATM   43  C   UNL     2      -7.962  17.774  68.805  1.00  0.00    -0.240 C  
HETATM   44  C   UNL     2      -8.911  18.668  68.495  1.00  0.00    -0.361 C  
ENDBRANCH  42  43
ENDBRANCH  32  35
ENDBRANCH  29  32
ENDBRANCH   4  22
TORSDOF 6
ENDMDL
MODEL      225
REMARK 921   NORMALIZED FREE ENERGY PREDICTED BY IDOCK:   -1.98 KCAL/MOL
REMARK 922        TOTAL FREE ENERGY PREDICTED BY IDOCK:   -5.75 KCAL/MOL
REMARK 923 INTER-LIGAND FREE ENERGY PREDICTED BY IDOCK:   -4.60 KCAL/MOL
REMARK 924 INTRA-LIGAND FREE ENERGY PREDICTED BY IDOCK:   -1.15 KCAL/MOL
REMARK 927      BINDING AFFINITY PREDICTED BY RF-SCORE:    0.00 PKD
ROOT
HETATM    1  C   UNL     1      -5.223  13.081  67.447  1.00  0.00     0.064 C  
HETATM    2  C   UNL     1      -6.702  13.421  67.281  1.00  0.00     0.099 C  
HETATM    3  C   UNL     2      -5.129   9.706  66.653  1.00  0.00    -0.040 C  
HETATM    4  O   UNL     2      -6.290  10.448  66.318  1.00  0.00    -0.081 OA 
ENDROOT
BRANCH   2   5
HETATM    5  C   UNL     1      -7.569  13.481  68.585  1.00  0.00    -0.108 C  
HETATM    6  O   UNL     1      -8.009  15.907  68.601  1.00  0.00    -0.138 OA 
HETATM    7  C   UNL     1      -6.841  12.520  69.541  1.00  0.00     0.089 C  
HETATM    8  C   UNL     1      -7.521  14.920  69.157  1.00  0.00    -0.158 C  
HETATM    9  H   UNL     1      -7.183  15.903  70.925  1.00  0.00     0.000 HD 
HETATM   10  N   UNL     1      -5.816  13.067  70.261  1.00  0.00    -0.177 N  
HETATM   11  O   UNL     1      -7.067  11.319  69.623  1.00  0.00    -0.103 OA 
HETATM   12  O   UNL     1      -5.502  14.434  72.021  1.00  0.00    -0.168 OA 
HETATM   13  N   UNL     1      -6.933  15.075  70.386  1.00  0.00     0.068 N  
HETATM   14  C   UNL     1      -6.046  14.213  70.941  1.00  0.00    -0.149 C  
HETATM   15  H   UNL     1      -4.898  12.621  70.284  1.00  0.00     0.000 HD 
BRANCH   5  16
HETATM   16  C   UNL     1      -9.023  13.040  68.313  1.00  0.00    -0.177 A  
HETATM   17  C   UNL     1     -10.936  11.627  68.855  1.00  0.00    -0.282 A  
HETATM   18  C   UNL     1      -9.559  11.867  68.875  1.00  0.00     0.068 A  
HETATM   19  C   UNL     1      -9.895  13.866  67.583  1.00  0.00    -0.236 A  
HETATM   20  C   UNL     1     -11.794  12.535  68.244  1.00  0.00    -0.361 A  
HETATM   21  C   UNL     1     -11.270  13.637  67.579  1.00  0.00    -0.316 A  
ENDBRANCH   5  16
ENDBRANCH   2   5
BRANCH   4  22
HETATM   22  C   UNL     2      -7.488   9.851  66.560  1.00  0.00    -0.100 A  
HETATM   23  C   UNL     2      -8.575   9.809  65.711  1.00  0.00    -0.147 A  
HETATM   24  C   UNL     2      -8.712   8.527  68.242  1.00  0.00    -0.143 A  
HETATM   25  C   UNL     2     -10.069   7.255  69.790  1.00  0.00    -0.196 A  
HETATM   26  C   UNL     2      -9.727   9.134  66.122  1.00  0.00    -0.357 A  
HETATM   27  C   UNL     2     -11.092   7.317  68.859  1.00  0.00     0.070 A  
HETATM   28  C   UNL     2      -7.542   9.158  67.765  1.00  0.00    -0.085 A  
HETATM   29  C   UNL     2      -8.842   7.878  69.514  1.00  0.00    -0.142 A  
HETATM   30  C   UNL     2      -9.831   8.530  67.372  1.00  0.00    -0.187 A  
HETATM   31  N   UNL     2     -10.995   7.948  67.675  1.00  0.00    -0.030 NA 
BRANCH  29  32
HETATM   32  C   UNL     2      -7.681   7.749  70.521  1.00  0.00    -0.088 C  
HETATM   33  H   UNL     2      -7.396   7.962  72.472  1.00  0.00     0.000 HD 
HETATM   34  O   UNL     2      -8.111   8.041  71.852  1.00  0.00    -0.102 OA 
BRANCH  32  35
HETATM   35  C   UNL     2      -6.937   6.364  70.579  1.00  0.00    -0.064 C  
HETATM   36  C   UNL     2      -7.421   4.111  69.542  1.00  0.00    -0.054 C  
HETATM   37  C   UNL     2      -6.351   3.567  70.505  1.00  0.00    -0.027 C  
HETATM   38  C   UNL     2      -6.385   4.362  71.819  1.00  0.00    -0.018 C  
HETATM   39  C   UNL     2      -7.053   5.576  69.248  1.00  0.00    -0.064 C  
HETATM   40  N   UNL     2      -7.336   5.496  71.741  1.00  0.00    -0.089 NA 
HETATM   41  C   UNL     2      -8.690   4.907  71.559  1.00  0.00    -0.130 C  
HETATM   42  C   UNL     2      -8.810   4.119  70.229  1.00  0.00    -0.137 C  
BRANCH  42  43
HETATM   43  C   UNL     2      -9.345   2.724  70.457  1.00  0.00    -0.216 C  
HETATM   44  C   UNL     2      -9.428   2.129  71.655  1.00  0.00    -0.194 C  
ENDBRANCH  42  43
ENDBRANCH  32  35
ENDBRANCH  29  32
ENDBRANCH   4  22
TORSDOF 6
ENDMDL
MODEL      226
REMARK 921   NORMALIZED FREE ENERGY PREDICTED BY IDOCK:   -1.93 KCAL/MOL
REMARK 922        TOTAL FREE ENERGY PREDICTED BY IDOCK:   -5.68 KCAL/MOL
REMARK 923 INTER-LIGAND FREE ENERGY PREDICTED BY IDOCK:   -6.64 KCAL/MOL
REMARK 924 INTRA-LIGAND FREE ENERGY PREDICTED BY IDOCK:    0.95 KCAL/MOL
REMARK 927      BINDING AFFINITY PREDICTED BY RF-SCORE:    0.00 PKD
ROOT
HETATM    1  C   UNL     1      -8.639  18.000  65.876  1.00  0.00     0.136 C  
HETATM    2  C   UNL     1      -9.274  16.896  66.718  1.00  0.00    -0.266 C  
HETATM    3  C   UNL     2      -5.254  17.287  66.127  1.00  0.00    -0.054 C  
HETATM    4  O   UNL     2      -6.186  16.298  66.532  1.00  0.00    -0.220 OA 
ENDROOT
BRANCH   2   5
HETATM    5  C   UNL     1      -9.694  17.268  68.181  1.00  0.00    -0.284 C  
HETATM    6  O   UNL     1     -11.148  19.188  67.650  1.00  0.00    -0.362 OA 
HETATM    7  C   UNL     1      -8.389  17.104  68.978  1.00  0.00    -0.108 C  
HETATM    8  C   UNL     1     -10.143  18.751  68.216  1.00  0.00    -0.383 C  
HETATM    9  H   UNL     1      -9.821  20.471  69.286  1.00  0.00     0.000 HD 
HETATM   10  N   UNL     1      -7.565  18.195  68.994  1.00  0.00    -0.202 N  
HETATM   11  O   UNL     1      -8.024  16.061  69.506  1.00  0.00    -0.207 OA 
HETATM   12  O   UNL     1      -7.437  20.227  69.953  1.00  0.00     0.163 OA 
HETATM   13  N   UNL     1      -9.381  19.607  68.970  1.00  0.00    -0.309 N  
HETATM   14  C   UNL     1      -8.091  19.395  69.328  1.00  0.00    -0.059 C  
HETATM   15  H   UNL     1      -6.576  18.106  68.759  1.00  0.00     0.000 HD 
BRANCH   5  16
HETATM   16  C   UNL     1     -10.812  16.338  68.698  1.00  0.00    -0.322 A  
HETATM   17  C   UNL     1     -12.128  14.297  68.480  1.00  0.00    -0.295 A  
HETATM   18  C   UNL     1     -11.331  15.294  67.911  1.00  0.00    -0.339 A  
HETATM   19  C   UNL     1     -11.266  16.437  70.025  1.00  0.00    -0.266 A  
HETATM   20  C   UNL     1     -12.449  14.344  69.832  1.00  0.00    -0.311 A  
HETATM   21  C   UNL     1     -12.046  15.433  70.597  1.00  0.00    -0.412 A  
ENDBRANCH   5  16
ENDBRANCH   2   5
BRANCH   4  22
HETATM   22  C   UNL     2      -5.906  15.630  67.683  1.00  0.00    -0.122 A  
HETATM   23  C   UNL     2      -5.365  16.163  68.836  1.00  0.00    -0.111 A  
HETATM   24  C   UNL     2      -6.037  13.405  68.738  1.00  0.00    -0.086 A  
HETATM   25  C   UNL     2      -6.060  11.290  69.913  1.00  0.00    -0.130 A  
HETATM   26  C   UNL     2      -5.156  15.325  69.934  1.00  0.00    -0.097 A  
HETATM   27  C   UNL     2      -5.484  11.944  70.989  1.00  0.00    -0.071 A  
HETATM   28  C   UNL     2      -6.298  14.296  67.673  1.00  0.00    -0.126 A  
HETATM   29  C   UNL     2      -6.341  12.004  68.737  1.00  0.00    -0.071 A  
HETATM   30  C   UNL     2      -5.443  13.963  69.897  1.00  0.00    -0.102 A  
HETATM   31  N   UNL     2      -5.165  13.250  70.993  1.00  0.00    -0.149 NA 
BRANCH  29  32
HETATM   32  C   UNL     2      -7.046  11.291  67.566  1.00  0.00    -0.099 C  
HETATM   33  H   UNL     2      -6.537  10.219  65.976  1.00  0.00     0.000 HD 
HETATM   34  O   UNL     2      -6.103  10.658  66.698  1.00  0.00    -0.065 OA 
BRANCH  32  35
HETATM   35  C   UNL     2      -8.123  10.205  67.934  1.00  0.00    -0.109 C  
HETATM   36  C   UNL     2      -8.196   7.694  67.649  1.00  0.00    -0.121 C  
HETATM   37  C   UNL     2      -9.691   7.815  67.991  1.00  0.00    -0.176 C  
HETATM   38  C   UNL     2     -10.241   9.143  67.448  1.00  0.00    -0.247 C  
HETATM   39  C   UNL     2      -7.480   8.858  68.359  1.00  0.00    -0.086 C  
HETATM   40  N   UNL     2      -9.163   9.980  66.871  1.00  0.00    -0.145 NA 
HETATM   41  C   UNL     2      -8.619   9.231  65.706  1.00  0.00    -0.152 C  
HETATM   42  C   UNL     2      -7.975   7.885  66.126  1.00  0.00    -0.104 C  
BRANCH  42  43
HETATM   43  C   UNL     2      -8.524   6.731  65.319  1.00  0.00    -0.067 C  
HETATM   44  C   UNL     2      -7.775   5.875  64.611  1.00  0.00    -0.100 C  
ENDBRANCH  42  43
ENDBRANCH  32  35
ENDBRANCH  29  32
ENDBRANCH   4  22
TORSDOF 6
ENDMDL
MODEL      227
REMARK 921   NORMALIZED FREE ENERGY PREDICTED BY IDOCK:   -1.92 KCAL/MOL
REMARK 922        TOTAL FREE ENERGY PREDICTED BY IDOCK:   -5.67 KCAL/MOL
REMARK 923 INTER-LIGAND FREE ENERGY PREDICTED BY IDOCK:   -4.34 KCAL/MOL
REMARK 924 INTRA-LIGAND FREE ENERGY PREDICTED BY IDOCK:   -1.33 KCAL/MOL
REMARK 927      BINDING AFFINITY PREDICTED BY RF-SCORE:    0.00 PKD
ROOT
HETATM    1  C   UNL     1      -5.529  12.003  67.501  1.00  0.00    -0.102 C  
HETATM    2  C   UNL     1      -6.960  12.291  67.054  1.00  0.00    -0.036 C  
HETATM    3  C   UNL     2      -5.663   8.641  68.345  1.00  0.00    -0.038 C  
HETATM    4  O   UNL     2      -6.732   9.195  67.596  1.00  0.00    -0.067 OA 
ENDROOT
BRANCH   2   5
HETATM    5  C   UNL     1      -7.906  12.982  68.094  1.00  0.00    -0.145 C  
HETATM    6  O   UNL     1      -7.556  15.318  67.386  1.00  0.00    -0.167 OA 
HETATM    7  C   UNL     1      -7.633  12.206  69.394  1.00  0.00     0.428 C  
HETATM    8  C   UNL     1      -7.472  14.459  68.268  1.00  0.00    -0.123 C  
HETATM    9  H   UNL     1      -7.044  15.813  69.748  1.00  0.00     0.000 HD 
HETATM   10  N   UNL     1      -6.576  12.653  70.137  1.00  0.00    -0.339 N  
HETATM   11  O   UNL     1      -8.235  11.196  69.740  1.00  0.00     0.353 OA 
HETATM   12  O   UNL     1      -6.050  14.360  71.505  1.00  0.00    -0.111 OA 
HETATM   13  N   UNL     1      -7.009  14.823  69.506  1.00  0.00    -0.167 N  
HETATM   14  C   UNL     1      -6.509  13.970  70.434  1.00  0.00     0.001 C  
HETATM   15  H   UNL     1      -5.855  12.007  70.461  1.00  0.00     0.000 HD 
BRANCH   5  16
HETATM   16  C   UNL     1      -9.384  12.886  67.659  1.00  0.00    -0.195 A  
HETATM   17  C   UNL     1     -11.752  12.796  68.237  1.00  0.00    -0.388 A  
HETATM   18  C   UNL     1     -10.411  12.605  68.580  1.00  0.00    -0.232 A  
HETATM   19  C   UNL     1      -9.762  13.193  66.341  1.00  0.00    -0.269 A  
HETATM   20  C   UNL     1     -12.092  13.236  66.963  1.00  0.00    -0.375 A  
HETATM   21  C   UNL     1     -11.099  13.402  66.004  1.00  0.00    -0.294 A  
ENDBRANCH   5  16
ENDBRANCH   2   5
BRANCH   4  22
HETATM   22  C   UNL     2      -7.990   8.827  67.964  1.00  0.00    -0.106 A  
HETATM   23  C   UNL     2      -9.149   9.018  67.241  1.00  0.00    -0.151 A  
HETATM   24  C   UNL     2      -9.257   7.707  69.758  1.00  0.00    -0.147 A  
HETATM   25  C   UNL     2     -10.658   6.668  71.435  1.00  0.00    -0.255 A  
HETATM   26  C   UNL     2     -10.358   8.561  67.771  1.00  0.00    -0.298 A  
HETATM   27  C   UNL     2     -11.745   6.952  70.624  1.00  0.00    -0.367 A  
HETATM   28  C   UNL     2      -8.045   8.120  69.160  1.00  0.00    -0.121 A  
HETATM   29  C   UNL     2      -9.371   7.056  71.030  1.00  0.00    -0.159 A  
HETATM   30  C   UNL     2     -10.441   7.950  69.018  1.00  0.00    -0.198 A  
HETATM   31  N   UNL     2     -11.656   7.589  69.444  1.00  0.00     0.356 NA 
BRANCH  29  32
HETATM   32  C   UNL     2      -8.155   6.678  71.900  1.00  0.00    -0.103 C  
HETATM   33  H   UNL     2      -7.397   7.177  73.664  1.00  0.00     0.000 HD 
HETATM   34  O   UNL     2      -8.147   7.410  73.128  1.00  0.00    -0.101 OA 
BRANCH  32  35
HETATM   35  C   UNL     2      -7.990   5.160  72.276  1.00  0.00    -0.109 C  
HETATM   36  C   UNL     2      -6.012   3.586  72.232  1.00  0.00    -0.009 C  
HETATM   37  C   UNL     2      -7.047   2.464  72.426  1.00  0.00    -0.027 C  
HETATM   38  C   UNL     2      -8.354   2.836  71.709  1.00  0.00    -0.057 C  
HETATM   39  C   UNL     2      -6.597   4.852  72.885  1.00  0.00    -0.060 C  
HETATM   40  N   UNL     2      -8.294   4.208  71.151  1.00  0.00    -0.082 NA 
HETATM   41  C   UNL     2      -7.224   4.202  70.118  1.00  0.00    -0.042 C  
HETATM   42  C   UNL     2      -5.830   3.896  70.724  1.00  0.00    -0.014 C  
BRANCH  42  43
HETATM   43  C   UNL     2      -5.141   2.770  69.987  1.00  0.00    -0.004 C  
HETATM   44  C   UNL     2      -5.707   2.037  69.019  1.00  0.00    -0.022 C  
ENDBRANCH  42  43
ENDBRANCH  32  35
ENDBRANCH  29  32
ENDBRANCH   4  22
TORSDOF 6
ENDMDL
MODEL      228
REMARK 921   NORMALIZED FREE ENERGY PREDICTED BY IDOCK:   -1.90 KCAL/MOL
REMARK 922        TOTAL FREE ENERGY PREDICTED BY IDOCK:   -5.64 KCAL/MOL
REMARK 923 INTER-LIGAND FREE ENERGY PREDICTED BY IDOCK:   -5.95 KCAL/MOL
REMARK 924 INTRA-LIGAND FREE ENERGY PREDICTED BY IDOCK:    0.31 KCAL/MOL
REMARK 927      BINDING AFFINITY PREDICTED BY RF-SCORE:    0.00 PKD
ROOT
HETATM    1  C   UNL     1     -11.352   7.416  67.263  1.00  0.00     0.447 C  
HETATM    2  C   UNL     1      -9.902   7.003  67.507  1.00  0.00    -0.186 C  
HETATM    3  C   UNL     2     -11.006  10.414  65.553  1.00  0.00     0.431 C  
HETATM    4  O   UNL     2      -9.870   9.575  65.686  1.00  0.00    -0.297 OA 
ENDROOT
BRANCH   2   5
HETATM    5  C   UNL     1      -9.305   7.303  68.924  1.00  0.00    -0.144 C  
HETATM    6  O   UNL     1      -9.985   9.667  69.099  1.00  0.00    -0.170 OA 
HETATM    7  C   UNL     1      -7.948   6.580  68.899  1.00  0.00    -0.111 C  
HETATM    8  C   UNL     1      -9.080   8.829  69.065  1.00  0.00    -0.141 C  
HETATM    9  H   UNL     1      -7.629  10.162  69.634  1.00  0.00     0.000 HD 
HETATM   10  N   UNL     1      -6.909   7.292  68.369  1.00  0.00    -0.070 N  
HETATM   11  O   UNL     1      -7.775   5.414  69.235  1.00  0.00    -0.082 OA 
HETATM   12  O   UNL     1      -5.549   8.998  68.922  1.00  0.00    -0.039 OA 
HETATM   13  N   UNL     1      -7.782   9.249  69.208  1.00  0.00    -0.079 N  
HETATM   14  C   UNL     1      -6.688   8.546  68.827  1.00  0.00    -0.058 C  
HETATM   15  H   UNL     1      -6.314   6.889  67.645  1.00  0.00     0.000 HD 
BRANCH   5  16
HETATM   16  C   UNL     1     -10.225   6.772  70.045  1.00  0.00    -0.211 A  
HETATM   17  C   UNL     1     -10.563   5.366  72.009  1.00  0.00    -0.284 A  
HETATM   18  C   UNL     1      -9.870   5.662  70.832  1.00  0.00    -0.237 A  
HETATM   19  C   UNL     1     -11.402   7.459  70.388  1.00  0.00    -0.273 A  
HETATM   20  C   UNL     1     -11.643   6.151  72.399  1.00  0.00    -0.338 A  
HETATM   21  C   UNL     1     -12.083   7.177  71.572  1.00  0.00    -0.377 A  
ENDBRANCH   5  16
ENDBRANCH   2   5
BRANCH   4  22
HETATM   22  C   UNL     2      -8.693  10.185  65.991  1.00  0.00    -0.140 A  
HETATM   23  C   UNL     2      -7.427   9.744  65.663  1.00  0.00    -0.110 A  
HETATM   24  C   UNL     2      -7.747  12.177  67.095  1.00  0.00    -0.151 A  
HETATM   25  C   UNL     2      -6.649  14.050  68.163  1.00  0.00    -0.124 A  
HETATM   26  C   UNL     2      -6.324  10.511  66.050  1.00  0.00    -0.124 A  
HETATM   27  C   UNL     2      -5.441  13.479  67.799  1.00  0.00    -0.070 A  
HETATM   28  C   UNL     2      -8.840  11.412  66.628  1.00  0.00    -0.183 A  
HETATM   29  C   UNL     2      -7.850  13.401  67.833  1.00  0.00    -0.152 A  
HETATM   30  C   UNL     2      -6.454  11.686  66.784  1.00  0.00    -0.106 A  
HETATM   31  N   UNL     2      -5.329  12.316  67.134  1.00  0.00    -0.265 NA 
BRANCH  29  32
HETATM   32  C   UNL     2      -9.195  14.072  68.177  1.00  0.00    -0.196 C  
HETATM   33  H   UNL     2     -10.806  13.667  69.262  1.00  0.00     0.000 HD 
HETATM   34  O   UNL     2      -9.977  13.253  69.050  1.00  0.00    -0.001 OA 
BRANCH  32  35
HETATM   35  C   UNL     2      -9.134  15.502  68.830  1.00  0.00    -0.219 C  
HETATM   36  C   UNL     2     -10.331  17.671  68.327  1.00  0.00    -0.384 C  
HETATM   37  C   UNL     2      -9.294  18.324  69.258  1.00  0.00     0.139 C  
HETATM   38  C   UNL     2      -7.951  17.589  69.133  1.00  0.00     0.014 C  
HETATM   39  C   UNL     2     -10.510  16.219  68.808  1.00  0.00    -0.282 C  
HETATM   40  N   UNL     2      -8.066  16.395  68.263  1.00  0.00    -0.166 NA 
HETATM   41  C   UNL     2      -8.413  16.890  66.903  1.00  0.00    -0.214 C  
HETATM   42  C   UNL     2      -9.788  17.606  66.877  1.00  0.00    -0.306 C  
BRANCH  42  43
HETATM   43  C   UNL     2      -9.688  18.974  66.241  1.00  0.00    -0.392 C  
HETATM   44  C   UNL     2     -10.630  19.518  65.458  1.00  0.00    -0.298 C  
ENDBRANCH  42  43
ENDBRANCH  32  35
ENDBRANCH  29  32
ENDBRANCH   4  22
TORSDOF 6
ENDMDL
MODEL      229
REMARK 921   NORMALIZED FREE ENERGY PREDICTED BY IDOCK:   -1.83 KCAL/MOL
REMARK 922        TOTAL FREE ENERGY PREDICTED BY IDOCK:   -5.55 KCAL/MOL
REMARK 923 INTER-LIGAND FREE ENERGY PREDICTED BY IDOCK:   -5.63 KCAL/MOL
REMARK 924 INTRA-LIGAND FREE ENERGY PREDICTED BY IDOCK:    0.08 KCAL/MOL
REMARK 927      BINDING AFFINITY PREDICTED BY RF-SCORE:    0.00 PKD
ROOT
HETATM    1  C   UNL     1      -6.133   9.109  67.617  1.00  0.00    -0.054 C  
HETATM    2  C   UNL     1      -6.163   7.837  66.774  1.00  0.00    -0.049 C  
HETATM    3  C   UNL     2      -5.812   7.871  70.841  1.00  0.00    -0.034 C  
HETATM    4  O   UNL     2      -5.569   6.996  69.752  1.00  0.00    -0.021 OA 
ENDROOT
BRANCH   2   5
HETATM    5  C   UNL     1      -7.568   7.324  66.307  1.00  0.00    -0.092 C  
HETATM    6  O   UNL     1      -7.654   8.474  64.128  1.00  0.00    -0.109 OA 
HETATM    7  C   UNL     1      -8.417   7.397  67.589  1.00  0.00    -0.120 C  
HETATM    8  C   UNL     1      -8.137   8.303  65.250  1.00  0.00    -0.142 C  
HETATM    9  H   UNL     1      -9.852   9.347  64.829  1.00  0.00     0.000 HD 
HETATM   10  N   UNL     1      -9.000   8.607  67.843  1.00  0.00    -0.140 N  
HETATM   11  O   UNL     1      -8.521   6.490  68.406  1.00  0.00    -0.120 OA 
HETATM   12  O   UNL     1     -10.713   9.866  67.104  1.00  0.00    -0.253 OA 
HETATM   13  N   UNL     1      -9.281   8.980  65.590  1.00  0.00    -0.229 N  
HETATM   14  C   UNL     1      -9.712   9.198  66.856  1.00  0.00    -0.194 C  
HETATM   15  H   UNL     1      -8.903   9.053  68.755  1.00  0.00     0.000 HD 
BRANCH   5  16
HETATM   16  C   UNL     1      -7.485   5.889  65.747  1.00  0.00    -0.081 A  
HETATM   17  C   UNL     1      -7.117   3.504  66.099  1.00  0.00    -0.063 A  
HETATM   18  C   UNL     1      -6.935   4.831  66.494  1.00  0.00    -0.067 A  
HETATM   19  C   UNL     1      -8.066   5.572  64.507  1.00  0.00    -0.127 A  
HETATM   20  C   UNL     1      -7.821   3.211  64.935  1.00  0.00    -0.082 A  
HETATM   21  C   UNL     1      -8.266   4.246  64.122  1.00  0.00    -0.099 A  
ENDBRANCH   5  16
ENDBRANCH   2   5
BRANCH   4  22
HETATM   22  C   UNL     2      -6.082   5.740  69.852  1.00  0.00    -0.026 A  
HETATM   23  C   UNL     2      -5.545   4.585  69.321  1.00  0.00    -0.016 A  
HETATM   24  C   UNL     2      -7.950   4.459  70.828  1.00  0.00    -0.064 A  
HETATM   25  C   UNL     2      -9.726   3.055  71.682  1.00  0.00    -0.228 A  
HETATM   26  C   UNL     2      -6.206   3.372  69.536  1.00  0.00    -0.028 A  
HETATM   27  C   UNL     2      -9.099   1.983  71.069  1.00  0.00    -0.085 A  
HETATM   28  C   UNL     2      -7.219   5.655  70.649  1.00  0.00    -0.078 A  
HETATM   29  C   UNL     2      -9.174   4.340  71.565  1.00  0.00    -0.190 A  
HETATM   30  C   UNL     2      -7.404   3.291  70.239  1.00  0.00    -0.041 A  
HETATM   31  N   UNL     2      -7.968   2.084  70.349  1.00  0.00    -0.042 NA 
BRANCH  29  32
HETATM   32  C   UNL     2      -9.834   5.521  72.305  1.00  0.00    -0.161 C  
HETATM   33  H   UNL     2      -9.471   6.645  73.898  1.00  0.00     0.000 HD 
HETATM   34  O   UNL     2      -9.064   5.918  73.442  1.00  0.00    -0.133 OA 
BRANCH  32  35
HETATM   35  C   UNL     2     -10.113   6.823  71.468  1.00  0.00    -0.181 C  
HETATM   36  C   UNL     2     -11.235   9.017  72.030  1.00  0.00    -0.379 C  
HETATM   37  C   UNL     2     -11.228   9.277  70.514  1.00  0.00    -0.315 C  
HETATM   38  C   UNL     2     -11.404   7.949  69.761  1.00  0.00     0.112 C  
HETATM   39  C   UNL     2     -10.029   8.108  72.333  1.00  0.00    -0.345 C  
HETATM   40  N   UNL     2     -11.400   6.795  70.691  1.00  0.00    -0.311 NA 
HETATM   41  C   UNL     2     -12.589   6.951  71.570  1.00  0.00    -0.367 C  
HETATM   42  C   UNL     2     -12.509   8.235  72.438  1.00  0.00    -0.355 C  
BRANCH  42  43
HETATM   43  C   UNL     2     -13.762   9.070  72.307  1.00  0.00    -0.550 C  
HETATM   44  C   UNL     2     -14.358   9.369  71.145  1.00  0.00     0.230 C  
ENDBRANCH  42  43
ENDBRANCH  32  35
ENDBRANCH  29  32
ENDBRANCH   4  22
TORSDOF 6
ENDMDL
MODEL      230
REMARK 921   NORMALIZED FREE ENERGY PREDICTED BY IDOCK:   -1.75 KCAL/MOL
REMARK 922        TOTAL FREE ENERGY PREDICTED BY IDOCK:   -5.44 KCAL/MOL
REMARK 923 INTER-LIGAND FREE ENERGY PREDICTED BY IDOCK:   -6.78 KCAL/MOL
REMARK 924 INTRA-LIGAND FREE ENERGY PREDICTED BY IDOCK:    1.34 KCAL/MOL
REMARK 927      BINDING AFFINITY PREDICTED BY RF-SCORE:    0.00 PKD
ROOT
HETATM    1  C   UNL     1      -6.971  15.916  69.470  1.00  0.00    -0.189 C  
HETATM    2  C   UNL     1      -7.442  15.878  68.018  1.00  0.00    -0.135 C  
HETATM    3  C   UNL     2      -6.420  12.564  70.173  1.00  0.00     0.184 C  
HETATM    4  O   UNL     2      -6.578  12.955  68.819  1.00  0.00    -0.078 OA 
ENDROOT
BRANCH   2   5
HETATM    5  C   UNL     1      -8.987  15.966  67.769  1.00  0.00    -0.176 C  
HETATM    6  O   UNL     1      -9.666  16.686  70.027  1.00  0.00     0.323 OA 
HETATM    7  C   UNL     1      -9.279  14.724  66.909  1.00  0.00    -0.245 C  
HETATM    8  C   UNL     1      -9.725  15.846  69.125  1.00  0.00    -0.249 C  
HETATM    9  H   UNL     1     -11.266  14.809  69.995  1.00  0.00     0.000 HD 
HETATM   10  N   UNL     1      -9.510  13.568  67.601  1.00  0.00    -0.215 N  
HETATM   11  O   UNL     1      -9.232  14.700  65.685  1.00  0.00    -0.065 OA 
HETATM   12  O   UNL     1     -11.129  12.612  68.838  1.00  0.00    -0.247 OA 
HETATM   13  N   UNL     1     -10.529  14.748  69.294  1.00  0.00    -0.237 N  
HETATM   14  C   UNL     1     -10.420  13.587  68.602  1.00  0.00    -0.232 C  
HETATM   15  H   UNL     1      -9.009  12.711  67.368  1.00  0.00     0.000 HD 
BRANCH   5  16
HETATM   16  C   UNL     1      -9.365  17.276  67.045  1.00  0.00    -0.257 A  
HETATM   17  C   UNL     1     -10.887  19.156  66.743  1.00  0.00    -0.404 A  
HETATM   18  C   UNL     1     -10.645  17.847  67.165  1.00  0.00    -0.315 A  
HETATM   19  C   UNL     1      -8.396  18.002  66.330  1.00  0.00    -0.275 A  
HETATM   20  C   UNL     1      -9.868  19.905  66.164  1.00  0.00    -0.562 A  
HETATM   21  C   UNL     1      -8.632  19.316  65.927  1.00  0.00     0.002 A  
ENDBRANCH   5  16
ENDBRANCH   2   5
BRANCH   4  22
HETATM   22  C   UNL     2      -7.350  12.154  68.037  1.00  0.00    -0.105 A  
HETATM   23  C   UNL     2      -7.393  12.140  66.658  1.00  0.00     0.193 A  
HETATM   24  C   UNL     2      -9.013  10.335  68.137  1.00  0.00    -0.130 A  
HETATM   25  C   UNL     2     -10.673   8.577  68.050  1.00  0.00    -0.122 A  
HETATM   26  C   UNL     2      -8.242  11.233  66.018  1.00  0.00    -0.045 A  
HETATM   27  C   UNL     2     -10.643   8.691  66.671  1.00  0.00    -0.060 A  
HETATM   28  C   UNL     2      -8.093  11.216  68.748  1.00  0.00    -0.140 A  
HETATM   29  C   UNL     2      -9.864   9.415  68.834  1.00  0.00    -0.176 A  
HETATM   30  C   UNL     2      -9.072  10.366  66.721  1.00  0.00    -0.143 A  
HETATM   31  N   UNL     2      -9.873   9.570  66.005  1.00  0.00    -0.272 NA 
BRANCH  29  32
HETATM   32  C   UNL     2      -9.847   9.240  70.365  1.00  0.00    -0.241 C  
HETATM   33  H   UNL     2     -10.657  10.108  71.954  1.00  0.00     0.000 HD 
HETATM   34  O   UNL     2     -10.668  10.216  71.010  1.00  0.00    -0.180 OA 
BRANCH  32  35
HETATM   35  C   UNL     2     -10.282   7.837  70.929  1.00  0.00    -0.199 C  
HETATM   36  C   UNL     2     -10.337   6.867  73.262  1.00  0.00    -0.315 C  
HETATM   37  C   UNL     2     -10.553   5.510  72.568  1.00  0.00    -0.272 C  
HETATM   38  C   UNL     2      -9.796   5.487  71.231  1.00  0.00    -0.175 C  
HETATM   39  C   UNL     2     -10.931   7.942  72.334  1.00  0.00    -0.386 C  
HETATM   40  N   UNL     2      -9.188   6.805  70.930  1.00  0.00    -0.157 NA 
HETATM   41  C   UNL     2      -8.178   7.062  71.992  1.00  0.00    -0.101 C  
HETATM   42  C   UNL     2      -8.823   7.168  73.398  1.00  0.00    -0.175 C  
BRANCH  42  43
HETATM   43  C   UNL     2      -8.143   6.253  74.390  1.00  0.00    -0.123 C  
HETATM   44  C   UNL     2      -7.105   5.457  74.101  1.00  0.00    -0.079 C  
ENDBRANCH  42  43
ENDBRANCH  32  35
ENDBRANCH  29  32
ENDBRANCH   4  22
TORSDOF 6
ENDMDL
MODEL      231
REMARK 921   NORMALIZED FREE ENERGY PREDICTED BY IDOCK:   -1.73 KCAL/MOL
REMARK 922        TOTAL FREE ENERGY PREDICTED BY IDOCK:   -5.42 KCAL/MOL
REMARK 923 INTER-LIGAND FREE ENERGY PREDICTED BY IDOCK:   -5.71 KCAL/MOL
REMARK 924 INTRA-LIGAND FREE ENERGY PREDICTED BY IDOCK:    0.29 KCAL/MOL
REMARK 927      BINDING AFFINITY PREDICTED BY RF-SCORE:    0.00 PKD
ROOT
HETATM    1  C   UNL     1      -9.506  13.493  67.556  1.00  0.00    -0.222 C  
HETATM    2  C   UNL     1      -9.194  12.000  67.616  1.00  0.00    -0.182 C  
HETATM    3  C   UNL     2     -11.790  13.892  70.136  1.00  0.00    -0.298 C  
HETATM    4  O   UNL     2     -11.039  12.690  70.075  1.00  0.00     0.154 OA 
ENDROOT
BRANCH   2   5
HETATM    5  C   UNL     1      -9.935  11.076  66.590  1.00  0.00    -0.249 C  
HETATM    6  O   UNL     1      -8.775  11.820  64.546  1.00  0.00     0.491 OA 
HETATM    7  C   UNL     1     -11.398  11.119  67.066  1.00  0.00    -0.139 C  
HETATM    8  C   UNL     1      -9.828  11.702  65.177  1.00  0.00    -0.249 C  
HETATM    9  H   UNL     1     -11.013  12.188  63.575  1.00  0.00     0.000 HD 
HETATM   10  N   UNL     1     -12.144  12.159  66.587  1.00  0.00    -0.097 N  
HETATM   11  O   UNL     1     -11.885  10.349  67.886  1.00  0.00    -0.293 OA 
HETATM   12  O   UNL     1     -13.153  12.803  64.681  1.00  0.00    -0.760 OA 
HETATM   13  N   UNL     1     -11.002  12.101  64.591  1.00  0.00    -0.300 N  
HETATM   14  C   UNL     1     -12.148  12.389  65.254  1.00  0.00    -0.391 C  
HETATM   15  H   UNL     1     -12.686  12.748  67.220  1.00  0.00     0.000 HD 
BRANCH   5  16
HETATM   16  C   UNL     1      -9.360   9.643  66.608  1.00  0.00    -0.200 A  
HETATM   17  C   UNL     1      -9.707   7.230  66.575  1.00  0.00    -0.207 A  
HETATM   18  C   UNL     1     -10.176   8.520  66.837  1.00  0.00    -0.375 A  
HETATM   19  C   UNL     1      -8.014   9.411  66.279  1.00  0.00    -0.111 A  
HETATM   20  C   UNL     1      -8.409   7.037  66.114  1.00  0.00    -0.130 A  
HETATM   21  C   UNL     1      -7.552   8.125  65.999  1.00  0.00    -0.082 A  
ENDBRANCH   5  16
ENDBRANCH   2   5
BRANCH   4  22
HETATM   22  C   UNL     2     -11.714  11.535  70.320  1.00  0.00    -0.289 A  
HETATM   23  C   UNL     2     -12.999  11.229  69.917  1.00  0.00     0.290 A  
HETATM   24  C   UNL     2     -11.490   9.323  71.387  1.00  0.00    -0.439 A  
HETATM   25  C   UNL     2     -11.456   7.130  72.409  1.00  0.00    -0.303 A  
HETATM   26  C   UNL     2     -13.531   9.981  70.249  1.00  0.00     0.429 A  
HETATM   27  C   UNL     2     -12.760   6.967  71.973  1.00  0.00    -0.193 A  
HETATM   28  C   UNL     2     -10.961  10.566  70.975  1.00  0.00     0.410 A  
HETATM   29  C   UNL     2     -10.780   8.332  72.141  1.00  0.00    -0.389 A  
HETATM   30  C   UNL     2     -12.825   9.045  71.000  1.00  0.00    -0.065 A  
HETATM   31  N   UNL     2     -13.448   7.899  71.292  1.00  0.00    -0.215 NA 
BRANCH  29  32
HETATM   32  C   UNL     2      -9.306   8.485  72.565  1.00  0.00    -0.246 C  
HETATM   33  H   UNL     2      -8.179   8.068  74.143  1.00  0.00     0.000 HD 
HETATM   34  O   UNL     2      -9.087   7.973  73.881  1.00  0.00    -0.257 OA 
BRANCH  32  35
HETATM   35  C   UNL     2      -8.222   7.825  71.635  1.00  0.00    -0.110 C  
HETATM   36  C   UNL     2      -6.030   8.660  70.694  1.00  0.00    -0.032 C  
HETATM   37  C   UNL     2      -6.088   7.428  69.775  1.00  0.00    -0.027 C  
HETATM   38  C   UNL     2      -7.550   7.113  69.424  1.00  0.00    -0.098 C  
HETATM   39  C   UNL     2      -6.784   8.290  71.985  1.00  0.00    -0.080 C  
HETATM   40  N   UNL     2      -8.486   7.992  70.164  1.00  0.00    -0.126 NA 
HETATM   41  C   UNL     2      -8.223   9.381  69.702  1.00  0.00    -0.136 C  
HETATM   42  C   UNL     2      -6.786   9.850  70.050  1.00  0.00    -0.110 C  
BRANCH  42  43
HETATM   43  C   UNL     2      -6.071  10.394  68.835  1.00  0.00    -0.040 C  
HETATM   44  C   UNL     2      -5.706  11.673  68.678  1.00  0.00    -0.045 C  
ENDBRANCH  42  43
ENDBRANCH  32  35
ENDBRANCH  29  32
ENDBRANCH   4  22
TORSDOF 6
ENDMDL
MODEL      232
REMARK 921   NORMALIZED FREE ENERGY PREDICTED BY IDOCK:   -1.72 KCAL/MOL
REMARK 922        TOTAL FREE ENERGY PREDICTED BY IDOCK:   -5.40 KCAL/MOL
REMARK 923 INTER-LIGAND FREE ENERGY PREDICTED BY IDOCK:   -4.91 KCAL/MOL
REMARK 924 INTRA-LIGAND FREE ENERGY PREDICTED BY IDOCK:   -0.49 KCAL/MOL
REMARK 927      BINDING AFFINITY PREDICTED BY RF-SCORE:    0.00 PKD
ROOT
HETATM    1  C   UNL     1      -7.200  10.657  66.071  1.00  0.00    -0.131 C  
HETATM    2  C   UNL     1      -8.553  11.215  66.508  1.00  0.00    -0.169 C  
HETATM    3  C   UNL     2      -7.253   7.443  67.373  1.00  0.00    -0.093 C  
HETATM    4  O   UNL     2      -8.469   8.170  67.315  1.00  0.00    -0.122 OA 
ENDROOT
BRANCH   2   5
HETATM    5  C   UNL     1      -8.567  12.139  67.774  1.00  0.00    -0.164 C  
HETATM    6  O   UNL     1     -10.161  10.840  69.136  1.00  0.00    -0.213 OA 
HETATM    7  C   UNL     1      -8.577  13.557  67.179  1.00  0.00    -0.195 C  
HETATM    8  C   UNL     1      -9.879  11.895  68.561  1.00  0.00    -0.183 C  
HETATM    9  H   UNL     1     -11.421  12.942  69.417  1.00  0.00     0.000 HD 
HETATM   10  N   UNL     1      -9.810  14.058  66.865  1.00  0.00    -0.259 N  
HETATM   11  O   UNL     1      -7.572  14.202  66.902  1.00  0.00     0.099 OA 
HETATM   12  O   UNL     1     -11.626  14.898  67.894  1.00  0.00    -0.329 OA 
HETATM   13  N   UNL     1     -10.748  12.952  68.651  1.00  0.00    -0.251 N  
HETATM   14  C   UNL     1     -10.783  14.009  67.803  1.00  0.00    -0.243 C  
HETATM   15  H   UNL     1      -9.992  14.459  65.944  1.00  0.00     0.000 HD 
BRANCH   5  16
HETATM   16  C   UNL     1      -7.331  11.891  68.664  1.00  0.00    -0.115 A  
HETATM   17  C   UNL     1      -5.821  12.628  70.431  1.00  0.00    -0.155 A  
HETATM   18  C   UNL     1      -6.749  12.919  69.428  1.00  0.00    -0.017 A  
HETATM   19  C   UNL     1      -6.817  10.592  68.826  1.00  0.00    -0.062 A  
HETATM   20  C   UNL     1      -5.433  11.313  70.665  1.00  0.00    -0.134 A  
HETATM   21  C   UNL     1      -5.906  10.299  69.840  1.00  0.00    -0.051 A  
ENDBRANCH   5  16
ENDBRANCH   2   5
BRANCH   4  22
HETATM   22  C   UNL     2      -9.281   8.092  68.404  1.00  0.00    -0.135 A  
HETATM   23  C   UNL     2     -10.657   8.198  68.417  1.00  0.00    -0.148 A  
HETATM   24  C   UNL     2      -9.256   7.734  70.843  1.00  0.00    -0.155 A  
HETATM   25  C   UNL     2      -9.412   7.434  73.239  1.00  0.00    -0.262 A  
HETATM   26  C   UNL     2     -11.332   8.078  69.634  1.00  0.00     0.191 A  
HETATM   27  C   UNL     2     -10.782   7.593  73.115  1.00  0.00    -0.387 A  
HETATM   28  C   UNL     2      -8.613   7.792  69.586  1.00  0.00    -0.135 A  
HETATM   29  C   UNL     2      -8.597   7.517  72.099  1.00  0.00    -0.137 A  
HETATM   30  C   UNL     2     -10.664   7.888  70.841  1.00  0.00    -0.221 A  
HETATM   31  N   UNL     2     -11.409   7.828  71.949  1.00  0.00    -0.259 NA 
BRANCH  29  32
HETATM   32  C   UNL     2      -7.081   7.271  72.228  1.00  0.00    -0.067 C  
HETATM   33  H   UNL     2      -5.549   8.028  73.235  1.00  0.00     0.000 HD 
HETATM   34  O   UNL     2      -6.483   8.180  73.155  1.00  0.00    -0.081 OA 
BRANCH  32  35
HETATM   35  C   UNL     2      -6.626   5.826  72.653  1.00  0.00    -0.067 C  
HETATM   36  C   UNL     2      -5.142   4.101  71.551  1.00  0.00     0.000 C  
HETATM   37  C   UNL     2      -5.702   3.121  72.597  1.00  0.00    -0.008 C  
HETATM   38  C   UNL     2      -7.161   3.482  72.916  1.00  0.00    -0.045 C  
HETATM   39  C   UNL     2      -5.182   5.503  72.187  1.00  0.00    -0.016 C  
HETATM   40  N   UNL     2      -7.570   4.733  72.235  1.00  0.00    -0.083 NA 
HETATM   41  C   UNL     2      -7.504   4.464  70.773  1.00  0.00    -0.052 C  
HETATM   42  C   UNL     2      -6.061   4.141  70.304  1.00  0.00    -0.018 C  
BRANCH  42  43
HETATM   43  C   UNL     2      -6.011   2.854  69.512  1.00  0.00    -0.024 C  
HETATM   44  C   UNL     2      -5.634   2.766  68.230  1.00  0.00    -0.018 C  
ENDBRANCH  42  43
ENDBRANCH  32  35
ENDBRANCH  29  32
ENDBRANCH   4  22
TORSDOF 6
ENDMDL
MODEL      233
REMARK 921   NORMALIZED FREE ENERGY PREDICTED BY IDOCK:   -1.71 KCAL/MOL
REMARK 922        TOTAL FREE ENERGY PREDICTED BY IDOCK:   -5.38 KCAL/MOL
REMARK 923 INTER-LIGAND FREE ENERGY PREDICTED BY IDOCK:   -6.82 KCAL/MOL
REMARK 924 INTRA-LIGAND FREE ENERGY PREDICTED BY IDOCK:    1.44 KCAL/MOL
REMARK 927      BINDING AFFINITY PREDICTED BY RF-SCORE:    0.00 PKD
ROOT
HETATM    1  C   UNL     1      -9.598   6.312  66.883  1.00  0.00    -0.173 C  
HETATM    2  C   UNL     1      -8.785   6.010  68.140  1.00  0.00    -0.113 C  
HETATM    3  C   UNL     2      -8.088   9.195  65.684  1.00  0.00    -0.113 C  
HETATM    4  O   UNL     2      -7.413   8.441  66.678  1.00  0.00    -0.081 OA 
ENDROOT
BRANCH   2   5
HETATM    5  C   UNL     1      -9.404   6.446  69.511  1.00  0.00    -0.146 C  
HETATM    6  O   UNL     1     -11.782   6.351  68.868  1.00  0.00    -0.096 OA 
HETATM    7  C   UNL     1      -8.468   7.573  69.981  1.00  0.00    -0.137 C  
HETATM    8  C   UNL     1     -10.823   7.017  69.265  1.00  0.00    -0.214 C  
HETATM    9  H   UNL     1     -11.969   8.652  69.738  1.00  0.00     0.000 HD 
HETATM   10  N   UNL     1      -8.763   8.822  69.510  1.00  0.00    -0.136 N  
HETATM   11  O   UNL     1      -7.461   7.403  70.658  1.00  0.00    -0.076 OA 
HETATM   12  O   UNL     1     -10.267  10.462  69.844  1.00  0.00    -0.230 OA 
HETATM   13  N   UNL     1     -11.013   8.343  69.561  1.00  0.00    -0.113 N  
HETATM   14  C   UNL     1     -10.032   9.275  69.636  1.00  0.00    -0.191 C  
HETATM   15  H   UNL     1      -8.044   9.399  69.074  1.00  0.00     0.000 HD 
BRANCH   5  16
HETATM   16  C   UNL     1      -9.444   5.270  70.509  1.00  0.00    -0.222 A  
HETATM   17  C   UNL     1      -8.394   3.302  71.495  1.00  0.00    -0.080 A  
HETATM   18  C   UNL     1      -8.529   4.203  70.436  1.00  0.00    -0.098 A  
HETATM   19  C   UNL     1     -10.331   5.289  71.600  1.00  0.00    -0.281 A  
HETATM   20  C   UNL     1      -9.192   3.428  72.627  1.00  0.00    -0.130 A  
HETATM   21  C   UNL     1     -10.183   4.401  72.665  1.00  0.00    -0.239 A  
ENDBRANCH   5  16
ENDBRANCH   2   5
BRANCH   4  22
HETATM   22  C   UNL     2      -6.823   9.143  67.681  1.00  0.00    -0.077 A  
HETATM   23  C   UNL     2      -5.844   8.688  68.542  1.00  0.00    -0.045 A  
HETATM   24  C   UNL     2      -6.785  11.359  68.763  1.00  0.00    -0.073 A  
HETATM   25  C   UNL     2      -6.643  13.456  69.961  1.00  0.00     0.138 A  
HETATM   26  C   UNL     2      -5.340   9.558  69.512  1.00  0.00    -0.035 A  
HETATM   27  C   UNL     2      -5.693  12.864  70.776  1.00  0.00    -0.146 A  
HETATM   28  C   UNL     2      -7.222  10.474  67.753  1.00  0.00    -0.085 A  
HETATM   29  C   UNL     2      -7.236  12.710  68.931  1.00  0.00    -0.045 A  
HETATM   30  C   UNL     2      -5.811  10.859  69.663  1.00  0.00    -0.055 A  
HETATM   31  N   UNL     2      -5.284  11.589  70.651  1.00  0.00    -0.109 NA 
BRANCH  29  32
HETATM   32  C   UNL     2      -8.241  13.391  67.980  1.00  0.00    -0.161 C  
HETATM   33  H   UNL     2      -9.342  12.898  66.406  1.00  0.00     0.000 HD 
HETATM   34  O   UNL     2      -8.723  12.478  66.991  1.00  0.00    -0.199 OA 
BRANCH  32  35
HETATM   35  C   UNL     2      -9.505  14.058  68.637  1.00  0.00    -0.142 C  
HETATM   36  C   UNL     2     -11.246  15.668  67.762  1.00  0.00    -0.297 C  
HETATM   37  C   UNL     2     -11.662  15.837  69.233  1.00  0.00    -0.384 C  
HETATM   38  C   UNL     2     -10.426  15.716  70.138  1.00  0.00    -0.303 C  
HETATM   39  C   UNL     2     -10.664  14.249  67.623  1.00  0.00    -0.259 C  
HETATM   40  N   UNL     2      -9.220  15.345  69.360  1.00  0.00    -0.270 NA 
HETATM   41  C   UNL     2      -8.957  16.468  68.420  1.00  0.00    -0.219 C  
HETATM   42  C   UNL     2     -10.112  16.662  67.404  1.00  0.00    -0.274 C  
BRANCH  42  43
HETATM   43  C   UNL     2     -10.593  18.095  67.378  1.00  0.00    -0.406 C  
HETATM   44  C   UNL     2     -10.498  18.909  66.319  1.00  0.00    -0.510 C  
ENDBRANCH  42  43
ENDBRANCH  32  35
ENDBRANCH  29  32
ENDBRANCH   4  22
TORSDOF 6
ENDMDL
MODEL      234
REMARK 921   NORMALIZED FREE ENERGY PREDICTED BY IDOCK:   -1.68 KCAL/MOL
REMARK 922        TOTAL FREE ENERGY PREDICTED BY IDOCK:   -5.35 KCAL/MOL
REMARK 923 INTER-LIGAND FREE ENERGY PREDICTED BY IDOCK:   -7.08 KCAL/MOL
REMARK 924 INTRA-LIGAND FREE ENERGY PREDICTED BY IDOCK:    1.74 KCAL/MOL
REMARK 927      BINDING AFFINITY PREDICTED BY RF-SCORE:    0.00 PKD
ROOT
HETATM    1  C   UNL     1     -11.477  14.231  69.682  1.00  0.00    -0.334 C  
HETATM    2  C   UNL     1     -10.067  14.090  69.114  1.00  0.00     0.021 C  
HETATM    3  C   UNL     2     -12.632  10.961  69.657  1.00  0.00    -0.007 C  
HETATM    4  O   UNL     2     -11.244  11.190  69.482  1.00  0.00    -0.244 OA 
ENDROOT
BRANCH   2   5
HETATM    5  C   UNL     1      -9.873  14.437  67.598  1.00  0.00    -0.224 C  
HETATM    6  O   UNL     1     -11.180  16.526  67.546  1.00  0.00    -0.152 OA 
HETATM    7  C   UNL     1     -10.009  13.072  66.901  1.00  0.00    -0.243 C  
HETATM    8  C   UNL     1     -11.021  15.371  67.142  1.00  0.00    -0.317 C  
HETATM    9  H   UNL     1     -12.405  15.552  65.639  1.00  0.00     0.000 HD 
HETATM   10  N   UNL     1     -11.285  12.690  66.595  1.00  0.00    -0.285 N  
HETATM   11  O   UNL     1      -9.079  12.302  66.692  1.00  0.00    -0.204 OA 
HETATM   12  O   UNL     1     -12.904  13.174  65.108  1.00  0.00    -0.669 OA 
HETATM   13  N   UNL     1     -11.877  14.877  66.192  1.00  0.00    -0.191 N  
HETATM   14  C   UNL     1     -12.077  13.562  65.930  1.00  0.00    -0.435 C  
HETATM   15  H   UNL     1     -11.633  11.769  66.862  1.00  0.00     0.000 HD 
BRANCH   5  16
HETATM   16  C   UNL     1      -8.495  15.084  67.343  1.00  0.00    -0.202 A  
HETATM   17  C   UNL     1      -7.159  16.921  66.455  1.00  0.00    -0.241 A  
HETATM   18  C   UNL     1      -8.338  16.172  66.465  1.00  0.00    -0.352 A  
HETATM   19  C   UNL     1      -7.367  14.674  68.074  1.00  0.00    -0.142 A  
HETATM   20  C   UNL     1      -6.105  16.576  67.294  1.00  0.00    -0.204 A  
HETATM   21  C   UNL     1      -6.196  15.432  68.079  1.00  0.00    -0.153 A  
ENDBRANCH   5  16
ENDBRANCH   2   5
BRANCH   4  22
HETATM   22  C   UNL     2     -10.619  10.453  68.524  1.00  0.00    -0.209 A  
HETATM   23  C   UNL     2     -11.128  10.103  67.290  1.00  0.00    -0.166 A  
HETATM   24  C   UNL     2      -8.506   9.290  68.016  1.00  0.00    -0.120 A  
HETATM   25  C   UNL     2      -6.517   8.073  67.367  1.00  0.00    -0.057 A  
HETATM   26  C   UNL     2     -10.335   9.348  66.422  1.00  0.00    -0.237 A  
HETATM   27  C   UNL     2      -7.159   7.765  66.179  1.00  0.00    -0.069 A  
HETATM   28  C   UNL     2      -9.308  10.111  68.838  1.00  0.00    -0.179 A  
HETATM   29  C   UNL     2      -7.184   8.838  68.338  1.00  0.00    -0.081 A  
HETATM   30  C   UNL     2      -9.062   8.906  66.770  1.00  0.00    -0.143 A  
HETATM   31  N   UNL     2      -8.410   8.156  65.877  1.00  0.00    -0.124 NA 
BRANCH  29  32
HETATM   32  C   UNL     2      -6.443   9.238  69.629  1.00  0.00    -0.040 C  
HETATM   33  H   UNL     2      -6.623  10.591  71.069  1.00  0.00     0.000 HD 
HETATM   34  O   UNL     2      -7.080  10.344  70.273  1.00  0.00    -0.201 OA 
BRANCH  32  35
HETATM   35  C   UNL     2      -6.259   8.122  70.722  1.00  0.00    -0.033 C  
HETATM   36  C   UNL     2      -7.867   6.506  71.813  1.00  0.00    -0.103 C  
HETATM   37  C   UNL     2      -6.738   6.245  72.825  1.00  0.00    -0.066 C  
HETATM   38  C   UNL     2      -5.933   7.535  73.046  1.00  0.00    -0.048 C  
HETATM   39  C   UNL     2      -7.194   6.907  70.488  1.00  0.00    -0.072 C  
HETATM   40  N   UNL     2      -6.382   8.616  72.137  1.00  0.00    -0.072 NA 
HETATM   41  C   UNL     2      -7.792   8.921  72.502  1.00  0.00     0.332 C  
HETATM   42  C   UNL     2      -8.731   7.710  72.268  1.00  0.00    -0.160 C  
BRANCH  42  43
HETATM   43  C   UNL     2      -9.549   7.396  73.500  1.00  0.00    -0.317 C  
HETATM   44  C   UNL     2     -10.784   6.878  73.480  1.00  0.00    -0.342 C  
ENDBRANCH  42  43
ENDBRANCH  32  35
ENDBRANCH  29  32
ENDBRANCH   4  22
TORSDOF 6
ENDMDL
MODEL      235
REMARK 921   NORMALIZED FREE ENERGY PREDICTED BY IDOCK:   -1.66 KCAL/MOL
REMARK 922        TOTAL FREE ENERGY PREDICTED BY IDOCK:   -5.32 KCAL/MOL
REMARK 923 INTER-LIGAND FREE ENERGY PREDICTED BY IDOCK:   -3.79 KCAL/MOL
REMARK 924 INTRA-LIGAND FREE ENERGY PREDICTED BY IDOCK:   -1.52 KCAL/MOL
REMARK 927      BINDING AFFINITY PREDICTED BY RF-SCORE:    0.00 PKD
ROOT
HETATM    1  C   UNL     1      -9.641   8.765  72.315  1.00  0.00    -0.270 C  
HETATM    2  C   UNL     1      -8.759   7.831  73.140  1.00  0.00    -0.250 C  
HETATM    3  C   UNL     2     -11.524   6.551  70.422  1.00  0.00    -0.404 C  
HETATM    4  O   UNL     2     -10.801   6.047  71.534  1.00  0.00    -0.248 OA 
ENDROOT
BRANCH   2   5
HETATM    5  C   UNL     1      -7.292   7.609  72.639  1.00  0.00    -0.091 C  
HETATM    6  O   UNL     1      -6.112   8.667  74.527  1.00  0.00    -0.120 OA 
HETATM    7  C   UNL     1      -7.382   7.906  71.132  1.00  0.00    -0.063 C  
HETATM    8  C   UNL     1      -6.363   8.645  73.319  1.00  0.00    -0.055 C  
HETATM    9  H   UNL     1      -4.907  10.009  72.844  1.00  0.00     0.000 HD 
HETATM   10  N   UNL     1      -7.247   9.220  70.780  1.00  0.00    -0.114 N  
HETATM   11  O   UNL     1      -7.645   7.073  70.273  1.00  0.00    -0.084 OA 
HETATM   12  O   UNL     1      -5.638  10.783  70.596  1.00  0.00    -0.092 OA 
HETATM   13  N   UNL     1      -5.754   9.559  72.498  1.00  0.00     0.047 N  
HETATM   14  C   UNL     1      -6.189   9.911  71.264  1.00  0.00     0.079 C  
HETATM   15  H   UNL     1      -7.927   9.670  70.168  1.00  0.00     0.000 HD 
BRANCH   5  16
HETATM   16  C   UNL     1      -6.815   6.167  72.918  1.00  0.00    -0.075 A  
HETATM   17  C   UNL     1      -7.226   3.953  73.854  1.00  0.00    -0.061 A  
HETATM   18  C   UNL     1      -7.491   5.324  73.820  1.00  0.00    -0.091 A  
HETATM   19  C   UNL     1      -5.750   5.613  72.188  1.00  0.00    -0.022 A  
HETATM   20  C   UNL     1      -6.260   3.407  73.017  1.00  0.00    -0.009 A  
HETATM   21  C   UNL     1      -5.499   4.242  72.208  1.00  0.00    -0.004 A  
ENDBRANCH   5  16
ENDBRANCH   2   5
BRANCH   4  22
HETATM   22  C   UNL     2     -10.143   4.870  71.352  1.00  0.00    -0.198 A  
HETATM   23  C   UNL     2     -10.332   3.702  72.063  1.00  0.00    -0.067 A  
HETATM   24  C   UNL     2      -8.428   3.779  69.957  1.00  0.00    -0.093 A  
HETATM   25  C   UNL     2      -6.748   2.565  68.709  1.00  0.00    -0.033 A  
HETATM   26  C   UNL     2      -9.572   2.578  71.729  1.00  0.00    -0.213 A  
HETATM   27  C   UNL     2      -7.012   1.474  69.519  1.00  0.00    -0.033 A  
HETATM   28  C   UNL     2      -9.262   4.874  70.277  1.00  0.00    -0.192 A  
HETATM   29  C   UNL     2      -7.442   3.768  68.916  1.00  0.00    -0.054 A  
HETATM   30  C   UNL     2      -8.607   2.602  70.726  1.00  0.00    -0.060 A  
HETATM   31  N   UNL     2      -7.912   1.480  70.519  1.00  0.00    -0.038 NA 
BRANCH  29  32
HETATM   32  C   UNL     2      -7.197   4.960  67.969  1.00  0.00    -0.066 C  
HETATM   33  H   UNL     2      -6.482   5.265  66.144  1.00  0.00     0.000 HD 
HETATM   34  O   UNL     2      -6.633   4.530  66.727  1.00  0.00    -0.047 OA 
BRANCH  32  35
HETATM   35  C   UNL     2      -8.438   5.860  67.616  1.00  0.00    -0.103 C  
HETATM   36  C   UNL     2      -9.242   6.907  65.461  1.00  0.00     0.279 C  
HETATM   37  C   UNL     2     -10.191   7.730  66.350  1.00  0.00    -0.053 C  
HETATM   38  C   UNL     2      -9.512   8.025  67.697  1.00  0.00    -0.145 C  
HETATM   39  C   UNL     2      -8.986   5.577  66.193  1.00  0.00    -0.146 C  
HETATM   40  N   UNL     2      -8.206   7.334  67.808  1.00  0.00    -0.118 NA 
HETATM   41  C   UNL     2      -7.330   7.904  66.750  1.00  0.00    -0.089 C  
HETATM   42  C   UNL     2      -7.874   7.623  65.325  1.00  0.00    -0.122 C  
BRANCH  42  43
HETATM   43  C   UNL     2      -7.969   8.890  64.508  1.00  0.00    -0.135 C  
HETATM   44  C   UNL     2      -7.647  10.110  64.958  1.00  0.00    -0.141 C  
ENDBRANCH  42  43
ENDBRANCH  32  35
ENDBRANCH  29  32
ENDBRANCH   4  22
TORSDOF 6
ENDMDL
MODEL      236
REMARK 921   NORMALIZED FREE ENERGY PREDICTED BY IDOCK:   -1.59 KCAL/MOL
REMARK 922        TOTAL FREE ENERGY PREDICTED BY IDOCK:   -5.22 KCAL/MOL
REMARK 923 INTER-LIGAND FREE ENERGY PREDICTED BY IDOCK:   -5.26 KCAL/MOL
REMARK 924 INTRA-LIGAND FREE ENERGY PREDICTED BY IDOCK:    0.04 KCAL/MOL
REMARK 927      BINDING AFFINITY PREDICTED BY RF-SCORE:    0.00 PKD
ROOT
HETATM    1  C   UNL     1     -10.463   8.334  67.016  1.00  0.00    -0.384 C  
HETATM    2  C   UNL     1      -9.674   9.400  67.773  1.00  0.00    -0.182 C  
HETATM    3  C   UNL     2     -11.352   6.123  69.537  1.00  0.00    -0.356 C  
HETATM    4  O   UNL     2     -10.866   7.405  69.901  1.00  0.00    -0.246 OA 
ENDROOT
BRANCH   2   5
HETATM    5  C   UNL     1      -8.112   9.305  67.717  1.00  0.00    -0.104 C  
HETATM    6  O   UNL     1      -7.753  10.640  65.675  1.00  0.00    -0.153 OA 
HETATM    7  C   UNL     1      -7.830   7.842  68.101  1.00  0.00    -0.127 C  
HETATM    8  C   UNL     1      -7.642   9.561  66.263  1.00  0.00    -0.097 C  
HETATM    9  H   UNL     1      -6.418   8.744  64.834  1.00  0.00     0.000 HD 
HETATM   10  N   UNL     1      -7.870   6.943  67.072  1.00  0.00    -0.110 N  
HETATM   11  O   UNL     1      -7.666   7.444  69.248  1.00  0.00    -0.102 OA 
HETATM   12  O   UNL     1      -6.624   6.311  65.307  1.00  0.00    -0.041 OA 
HETATM   13  N   UNL     1      -7.024   8.518  65.623  1.00  0.00    -0.070 N  
HETATM   14  C   UNL     1      -7.154   7.210  65.956  1.00  0.00    -0.073 C  
HETATM   15  H   UNL     1      -8.426   6.091  67.144  1.00  0.00     0.000 HD 
BRANCH   5  16
HETATM   16  C   UNL     1      -7.453  10.300  68.696  1.00  0.00    -0.086 A  
HETATM   17  C   UNL     1      -5.819  10.772  70.443  1.00  0.00    -0.118 A  
HETATM   18  C   UNL     1      -6.624   9.867  69.747  1.00  0.00    -0.066 A  
HETATM   19  C   UNL     1      -7.571  11.686  68.493  1.00  0.00    -0.127 A  
HETATM   20  C   UNL     1      -5.852  12.125  70.126  1.00  0.00    -0.162 A  
HETATM   21  C   UNL     1      -6.753  12.587  69.174  1.00  0.00    -0.089 A  
ENDBRANCH   5  16
ENDBRANCH   2   5
BRANCH   4  22
HETATM   22  C   UNL     2      -9.983   7.453  70.934  1.00  0.00    -0.184 A  
HETATM   23  C   UNL     2      -9.639   8.566  71.674  1.00  0.00    -0.319 A  
HETATM   24  C   UNL     2      -8.479   6.048  72.292  1.00  0.00    -0.117 A  
HETATM   25  C   UNL     2      -6.933   4.829  73.698  1.00  0.00    -0.072 A  
HETATM   26  C   UNL     2      -8.718   8.426  72.715  1.00  0.00    -0.256 A  
HETATM   27  C   UNL     2      -6.653   6.026  74.335  1.00  0.00    -0.075 A  
HETATM   28  C   UNL     2      -9.464   6.214  71.293  1.00  0.00    -0.177 A  
HETATM   29  C   UNL     2      -7.850   4.806  72.636  1.00  0.00    -0.093 A  
HETATM   30  C   UNL     2      -8.108   7.211  73.013  1.00  0.00    -0.105 A  
HETATM   31  N   UNL     2      -7.212   7.203  74.004  1.00  0.00    -0.090 NA 
BRANCH  29  32
HETATM   32  C   UNL     2      -8.212   3.462  71.973  1.00  0.00    -0.067 C  
HETATM   33  H   UNL     2      -9.822   2.578  71.224  1.00  0.00     0.000 HD 
HETATM   34  O   UNL     2      -9.599   3.407  71.632  1.00  0.00    -0.138 OA 
BRANCH  32  35
HETATM   35  C   UNL     2      -7.411   3.065  70.678  1.00  0.00    -0.040 C  
HETATM   36  C   UNL     2      -7.253   4.093  68.375  1.00  0.00    -0.056 C  
HETATM   37  C   UNL     2      -6.569   2.779  67.961  1.00  0.00    -0.036 C  
HETATM   38  C   UNL     2      -7.167   1.611  68.761  1.00  0.00    -0.039 C  
HETATM   39  C   UNL     2      -6.948   4.304  69.869  1.00  0.00    -0.042 C  
HETATM   40  N   UNL     2      -8.126   2.090  69.784  1.00  0.00    -0.041 NA 
HETATM   41  C   UNL     2      -9.251   2.727  69.048  1.00  0.00    -0.156 C  
HETATM   42  C   UNL     2      -8.792   3.967  68.238  1.00  0.00    -0.143 C  
BRANCH  42  43
HETATM   43  C   UNL     2      -9.235   3.882  66.796  1.00  0.00    -0.186 C  
HETATM   44  C   UNL     2     -10.375   4.400  66.319  1.00  0.00    -0.136 C  
ENDBRANCH  42  43
ENDBRANCH  32  35
ENDBRANCH  29  32
ENDBRANCH   4  22
TORSDOF 6
ENDMDL
MODEL      237
REMARK 921   NORMALIZED FREE ENERGY PREDICTED BY IDOCK:   -1.55 KCAL/MOL
REMARK 922        TOTAL FREE ENERGY PREDICTED BY IDOCK:   -5.17 KCAL/MOL
REMARK 923 INTER-LIGAND FREE ENERGY PREDICTED BY IDOCK:   -6.87 KCAL/MOL
REMARK 924 INTRA-LIGAND FREE ENERGY PREDICTED BY IDOCK:    1.69 KCAL/MOL
REMARK 927      BINDING AFFINITY PREDICTED BY RF-SCORE:    0.00 PKD
ROOT
HETATM    1  C   UNL     1     -12.255  12.431  66.514  1.00  0.00     0.035 C  
HETATM    2  C   UNL     1     -11.156  11.570  67.131  1.00  0.00    -0.355 C  
HETATM    3  C   UNL     2     -11.749  11.980  63.113  1.00  0.00    -0.183 C  
HETATM    4  O   UNL     2     -11.107  11.095  64.016  1.00  0.00    -0.331 OA 
ENDROOT
BRANCH   2   5
HETATM    5  C   UNL     1      -9.861  12.306  67.615  1.00  0.00    -0.196 C  
HETATM    6  O   UNL     1     -10.920  13.882  69.187  1.00  0.00    -0.245 OA 
HETATM    7  C   UNL     1      -9.043  12.473  66.322  1.00  0.00    -0.069 C  
HETATM    8  C   UNL     1     -10.249  13.700  68.168  1.00  0.00    -0.247 C  
HETATM    9  H   UNL     1      -9.708  15.671  67.998  1.00  0.00     0.000 HD 
HETATM   10  N   UNL     1      -9.333  13.582  65.578  1.00  0.00    -0.373 N  
HETATM   11  O   UNL     1      -8.239  11.651  65.897  1.00  0.00     0.061 OA 
HETATM   12  O   UNL     1      -8.988  15.806  65.621  1.00  0.00    -0.210 OA 
HETATM   13  N   UNL     1      -9.764  14.789  67.490  1.00  0.00    -0.212 N  
HETATM   14  C   UNL     1      -9.355  14.785  66.197  1.00  0.00    -0.257 C  
HETATM   15  H   UNL     1      -9.528  13.506  64.580  1.00  0.00     0.000 HD 
BRANCH   5  16
HETATM   16  C   UNL     1      -9.106  11.478  68.676  1.00  0.00    -0.124 A  
HETATM   17  C   UNL     1      -9.056   9.630  70.266  1.00  0.00    -0.272 A  
HETATM   18  C   UNL     1      -9.772  10.565  69.515  1.00  0.00    -0.147 A  
HETATM   19  C   UNL     1      -7.704  11.528  68.757  1.00  0.00    -0.124 A  
HETATM   20  C   UNL     1      -7.667   9.611  70.220  1.00  0.00    -0.184 A  
HETATM   21  C   UNL     1      -6.990  10.582  69.491  1.00  0.00    -0.114 A  
ENDBRANCH   5  16
ENDBRANCH   2   5
BRANCH   4  22
HETATM   22  C   UNL     2      -9.812  10.781  63.747  1.00  0.00    -0.339 A  
HETATM   23  C   UNL     2      -9.034  11.292  62.728  1.00  0.00    -0.288 A  
HETATM   24  C   UNL     2      -7.924   9.407  64.540  1.00  0.00    -0.126 A  
HETATM   25  C   UNL     2      -5.982   8.102  65.157  1.00  0.00    -0.045 A  
HETATM   26  C   UNL     2      -7.710  10.862  62.609  1.00  0.00    -0.022 A  
HETATM   27  C   UNL     2      -5.327   8.667  64.077  1.00  0.00    -0.056 A  
HETATM   28  C   UNL     2      -9.236   9.915  64.671  1.00  0.00    -0.313 A  
HETATM   29  C   UNL     2      -7.319   8.445  65.415  1.00  0.00    -0.084 A  
HETATM   30  C   UNL     2      -7.155   9.912  63.462  1.00  0.00    -0.120 A  
HETATM   31  N   UNL     2      -5.891   9.546  63.230  1.00  0.00    -0.089 NA 
BRANCH  29  32
HETATM   32  C   UNL     2      -8.026   7.869  66.658  1.00  0.00    -0.103 C  
HETATM   33  H   UNL     2      -9.536   8.355  67.848  1.00  0.00     0.000 HD 
HETATM   34  O   UNL     2      -9.101   8.710  67.082  1.00  0.00    -0.129 OA 
BRANCH  32  35
HETATM   35  C   UNL     2      -8.609   6.413  66.538  1.00  0.00    -0.125 C  
HETATM   36  C   UNL     2     -10.207   5.081  67.973  1.00  0.00    -0.144 C  
HETATM   37  C   UNL     2      -9.755   3.865  67.145  1.00  0.00    -0.182 C  
HETATM   38  C   UNL     2      -8.278   4.027  66.754  1.00  0.00    -0.100 C  
HETATM   39  C   UNL     2     -10.065   6.316  67.065  1.00  0.00    -0.225 C  
HETATM   40  N   UNL     2      -7.750   5.350  67.165  1.00  0.00    -0.096 NA 
HETATM   41  C   UNL     2      -7.808   5.388  68.651  1.00  0.00    -0.087 C  
HETATM   42  C   UNL     2      -9.261   5.293  69.182  1.00  0.00    -0.153 C  
BRANCH  42  43
HETATM   43  C   UNL     2      -9.402   4.201  70.218  1.00  0.00    -0.232 C  
HETATM   44  C   UNL     2      -9.821   4.398  71.476  1.00  0.00    -0.259 C  
ENDBRANCH  42  43
ENDBRANCH  32  35
ENDBRANCH  29  32
ENDBRANCH   4  22
TORSDOF 6
ENDMDL
MODEL      238
REMARK 921   NORMALIZED FREE ENERGY PREDICTED BY IDOCK:   -1.54 KCAL/MOL
REMARK 922        TOTAL FREE ENERGY PREDICTED BY IDOCK:   -5.16 KCAL/MOL
REMARK 923 INTER-LIGAND FREE ENERGY PREDICTED BY IDOCK:   -5.42 KCAL/MOL
REMARK 924 INTRA-LIGAND FREE ENERGY PREDICTED BY IDOCK:    0.26 KCAL/MOL
REMARK 927      BINDING AFFINITY PREDICTED BY RF-SCORE:    0.00 PKD
ROOT
HETATM    1  C   UNL     1      -9.218   9.918  68.815  1.00  0.00    -0.147 C  
HETATM    2  C   UNL     1     -10.439   9.020  68.992  1.00  0.00    -0.235 C  
HETATM    3  C   UNL     2      -7.148   7.994  66.805  1.00  0.00    -0.081 C  
HETATM    4  O   UNL     2      -8.509   7.615  66.935  1.00  0.00    -0.121 OA 
ENDROOT
BRANCH   2   5
HETATM    5  C   UNL     1     -10.538   8.206  70.327  1.00  0.00    -0.228 C  
HETATM    6  O   UNL     1     -10.556   5.940  69.355  1.00  0.00    -0.244 OA 
HETATM    7  C   UNL     1     -11.540   9.017  71.165  1.00  0.00    -0.306 C  
HETATM    8  C   UNL     1     -11.127   6.806  70.022  1.00  0.00    -0.315 C  
HETATM    9  H   UNL     1     -12.590   5.532  70.689  1.00  0.00     0.000 HD 
HETATM   10  N   UNL     1     -12.859   8.728  70.953  1.00  0.00    -0.492 N  
HETATM   11  O   UNL     1     -11.234   9.934  71.919  1.00  0.00     0.010 OA 
HETATM   12  O   UNL     1     -14.354   7.117  71.438  1.00  0.00    -0.388 OA 
HETATM   13  N   UNL     1     -12.345   6.516  70.581  1.00  0.00    -0.157 N  
HETATM   14  C   UNL     1     -13.250   7.434  71.002  1.00  0.00    -0.093 C  
HETATM   15  H   UNL     1     -13.533   9.469  70.763  1.00  0.00     0.000 HD 
BRANCH   5  16
HETATM   16  C   UNL     1      -9.162   8.091  71.017  1.00  0.00    -0.169 A  
HETATM   17  C   UNL     1      -6.738   8.345  70.946  1.00  0.00    -0.042 A  
HETATM   18  C   UNL     1      -7.959   8.169  70.291  1.00  0.00    -0.103 A  
HETATM   19  C   UNL     1      -9.070   8.018  72.417  1.00  0.00    -0.254 A  
HETATM   20  C   UNL     1      -6.692   8.410  72.334  1.00  0.00    -0.098 A  
HETATM   21  C   UNL     1      -7.853   8.213  73.071  1.00  0.00    -0.207 A  
ENDBRANCH   5  16
ENDBRANCH   2   5
BRANCH   4  22
HETATM   22  C   UNL     2      -8.761   6.288  67.094  1.00  0.00    -0.109 A  
HETATM   23  C   UNL     2      -9.793   5.570  66.524  1.00  0.00    -0.194 A  
HETATM   24  C   UNL     2      -7.914   4.251  68.196  1.00  0.00    -0.078 A  
HETATM   25  C   UNL     2      -7.243   2.168  69.228  1.00  0.00    -0.043 A  
HETATM   26  C   UNL     2      -9.891   4.202  66.789  1.00  0.00    -0.203 A  
HETATM   27  C   UNL     2      -8.339   1.578  68.622  1.00  0.00    -0.052 A  
HETATM   28  C   UNL     2      -7.806   5.617  67.851  1.00  0.00    -0.097 A  
HETATM   29  C   UNL     2      -7.004   3.540  69.046  1.00  0.00    -0.046 A  
HETATM   30  C   UNL     2      -9.004   3.541  67.635  1.00  0.00    -0.141 A  
HETATM   31  N   UNL     2      -9.217   2.239  67.849  1.00  0.00    -0.185 NA 
BRANCH  29  32
HETATM   32  C   UNL     2      -5.745   4.181  69.664  1.00  0.00    -0.017 C  
HETATM   33  H   UNL     2      -4.901   5.973  69.754  1.00  0.00     0.000 HD 
HETATM   34  O   UNL     2      -5.676   5.579  69.374  1.00  0.00    -0.011 OA 
BRANCH  32  35
HETATM   35  C   UNL     2      -5.557   4.031  71.219  1.00  0.00    -0.008 C  
HETATM   36  C   UNL     2      -6.788   2.693  72.975  1.00  0.00    -0.027 C  
HETATM   37  C   UNL     2      -6.025   3.552  73.998  1.00  0.00    -0.011 C  
HETATM   38  C   UNL     2      -5.817   4.966  73.434  1.00  0.00    -0.018 C  
HETATM   39  C   UNL     2      -5.902   2.603  71.719  1.00  0.00    -0.013 C  
HETATM   40  N   UNL     2      -6.287   5.064  72.032  1.00  0.00    -0.033 NA 
HETATM   41  C   UNL     2      -7.755   4.823  72.056  1.00  0.00    -0.095 C  
HETATM   42  C   UNL     2      -8.104   3.396  72.555  1.00  0.00    -0.072 C  
BRANCH  42  43
HETATM   43  C   UNL     2      -9.117   3.433  73.676  1.00  0.00    -0.096 C  
HETATM   44  C   UNL     2     -10.073   4.363  73.805  1.00  0.00    -0.199 C  
ENDBRANCH  42  43
ENDBRANCH  32  35
ENDBRANCH  29  32
ENDBRANCH   4  22
TORSDOF 6
ENDMDL
MODEL      239
REMARK 921   NORMALIZED FREE ENERGY PREDICTED BY IDOCK:   -1.54 KCAL/MOL
REMARK 922        TOTAL FREE ENERGY PREDICTED BY IDOCK:   -5.15 KCAL/MOL
REMARK 923 INTER-LIGAND FREE ENERGY PREDICTED BY IDOCK:   -7.45 KCAL/MOL
REMARK 924 INTRA-LIGAND FREE ENERGY PREDICTED BY IDOCK:    2.30 KCAL/MOL
REMARK 927      BINDING AFFINITY PREDICTED BY RF-SCORE:    0.00 PKD
ROOT
HETATM    1  C   UNL     1     -11.307  14.990  69.573  1.00  0.00    -0.308 C  
HETATM    2  C   UNL     1      -9.868  14.612  69.232  1.00  0.00    -0.076 C  
HETATM    3  C   UNL     2     -12.976  11.965  69.262  1.00  0.00     1.544 C  
HETATM    4  O   UNL     2     -11.559  11.954  69.317  1.00  0.00    -0.267 OA 
ENDROOT
BRANCH   2   5
HETATM    5  C   UNL     1      -9.374  14.926  67.779  1.00  0.00    -0.194 C  
HETATM    6  O   UNL     1     -10.448  17.129  67.513  1.00  0.00    -0.337 OA 
HETATM    7  C   UNL     1      -9.512  13.575  67.057  1.00  0.00    -0.251 C  
HETATM    8  C   UNL     1     -10.329  15.961  67.134  1.00  0.00    -0.300 C  
HETATM    9  H   UNL     1     -11.399  16.259  65.410  1.00  0.00     0.000 HD 
HETATM   10  N   UNL     1     -10.744  13.312  66.525  1.00  0.00    -0.283 N  
HETATM   11  O   UNL     1      -8.637  12.719  67.011  1.00  0.00    -0.199 OA 
HETATM   12  O   UNL     1     -12.018  13.934  64.778  1.00  0.00    -0.367 OA 
HETATM   13  N   UNL     1     -11.045  15.542  66.042  1.00  0.00    -0.245 N  
HETATM   14  C   UNL     1     -11.318  14.250  65.737  1.00  0.00    -0.326 C  
HETATM   15  H   UNL     1     -11.219  12.430  66.718  1.00  0.00     0.000 HD 
BRANCH   5  16
HETATM   16  C   UNL     1      -7.918  15.439  67.779  1.00  0.00    -0.159 A  
HETATM   17  C   UNL     1      -5.592  15.185  68.465  1.00  0.00    -0.098 A  
HETATM   18  C   UNL     1      -6.950  14.922  68.660  1.00  0.00    -0.108 A  
HETATM   19  C   UNL     1      -7.487  16.364  66.812  1.00  0.00    -0.278 A  
HETATM   20  C   UNL     1      -5.180  15.995  67.411  1.00  0.00    -0.062 A  
HETATM   21  C   UNL     1      -6.130  16.611  66.606  1.00  0.00    -0.007 A  
ENDBRANCH   5  16
ENDBRANCH   2   5
BRANCH   4  22
HETATM   22  C   UNL     2     -10.920  11.125  68.448  1.00  0.00    -0.227 A  
HETATM   23  C   UNL     2     -11.097  11.069  67.081  1.00  0.00    -0.333 A  
HETATM   24  C   UNL     2      -9.211   9.352  68.331  1.00  0.00    -0.127 A  
HETATM   25  C   UNL     2      -7.587   7.583  68.037  1.00  0.00    -0.110 A  
HETATM   26  C   UNL     2     -10.340  10.158  66.339  1.00  0.00    -0.258 A  
HETATM   27  C   UNL     2      -7.885   7.607  66.686  1.00  0.00    -0.106 A  
HETATM   28  C   UNL     2      -9.942  10.332  69.039  1.00  0.00    -0.223 A  
HETATM   29  C   UNL     2      -8.259   8.451  68.912  1.00  0.00    -0.115 A  
HETATM   30  C   UNL     2      -9.437   9.281  66.934  1.00  0.00    -0.161 A  
HETATM   31  N   UNL     2      -8.797   8.425  66.132  1.00  0.00    -0.156 NA 
BRANCH  29  32
HETATM   32  C   UNL     2      -7.876   8.471  70.406  1.00  0.00    -0.089 C  
HETATM   33  H   UNL     2      -7.658   9.813  71.850  1.00  0.00     0.000 HD 
HETATM   34  O   UNL     2      -7.894   9.801  70.930  1.00  0.00    -0.299 OA 
BRANCH  32  35
HETATM   35  C   UNL     2      -8.743   7.589  71.378  1.00  0.00    -0.124 C  
HETATM   36  C   UNL     2     -11.121   6.741  71.265  1.00  0.00    -0.303 C  
HETATM   37  C   UNL     2     -10.941   6.380  72.749  1.00  0.00    -0.289 C  
HETATM   38  C   UNL     2     -10.020   7.409  73.424  1.00  0.00    -0.314 C  
HETATM   39  C   UNL     2      -9.728   6.665  70.614  1.00  0.00    -0.183 C  
HETATM   40  N   UNL     2      -9.469   8.369  72.439  1.00  0.00    -0.280 NA 
HETATM   41  C   UNL     2     -10.625   9.124  71.886  1.00  0.00    -0.233 C  
HETATM   42  C   UNL     2     -11.611   8.205  71.121  1.00  0.00    -0.306 C  
BRANCH  42  43
HETATM   43  C   UNL     2     -13.030   8.385  71.611  1.00  0.00    -0.355 C  
HETATM   44  C   UNL     2     -13.460   9.434  72.324  1.00  0.00    -0.539 C  
ENDBRANCH  42  43
ENDBRANCH  32  35
ENDBRANCH  29  32
ENDBRANCH   4  22
TORSDOF 6
ENDMDL
MODEL      240
REMARK 921   NORMALIZED FREE ENERGY PREDICTED BY IDOCK:   -1.40 KCAL/MOL
REMARK 922        TOTAL FREE ENERGY PREDICTED BY IDOCK:   -4.97 KCAL/MOL
REMARK 923 INTER-LIGAND FREE ENERGY PREDICTED BY IDOCK:   -3.08 KCAL/MOL
REMARK 924 INTRA-LIGAND FREE ENERGY PREDICTED BY IDOCK:   -1.88 KCAL/MOL
REMARK 927      BINDING AFFINITY PREDICTED BY RF-SCORE:    0.00 PKD
ROOT
HETATM    1  C   UNL     1     -10.566   9.017  69.281  1.00  0.00    -0.226 C  
HETATM    2  C   UNL     1      -9.527   9.235  70.380  1.00  0.00    -0.292 C  
HETATM    3  C   UNL     2     -12.142   6.100  70.300  1.00  0.00     0.534 C  
HETATM    4  O   UNL     2     -11.318   6.785  71.230  1.00  0.00    -0.262 OA 
ENDROOT
BRANCH   2   5
HETATM    5  C   UNL     1      -8.059   8.786  70.070  1.00  0.00    -0.111 C  
HETATM    6  O   UNL     1      -7.017  11.020  69.998  1.00  0.00    -0.121 OA 
HETATM    7  C   UNL     1      -8.241   7.657  69.041  1.00  0.00    -0.127 C  
HETATM    8  C   UNL     1      -7.296   9.967  69.419  1.00  0.00    -0.091 C  
HETATM    9  H   UNL     1      -6.103  10.372  67.801  1.00  0.00     0.000 HD 
HETATM   10  N   UNL     1      -8.337   8.057  67.737  1.00  0.00    -0.128 N  
HETATM   11  O   UNL     1      -8.386   6.474  69.324  1.00  0.00    -0.121 OA 
HETATM   12  O   UNL     1      -7.018   8.824  66.083  1.00  0.00    -0.078 OA 
HETATM   13  N   UNL     1      -6.872   9.788  68.127  1.00  0.00    -0.068 N  
HETATM   14  C   UNL     1      -7.396   8.897  67.249  1.00  0.00    -0.080 C  
HETATM   15  H   UNL     1      -9.101   7.730  67.145  1.00  0.00     0.000 HD 
BRANCH   5  16
HETATM   16  C   UNL     1      -7.340   8.297  71.346  1.00  0.00    -0.085 A  
HETATM   17  C   UNL     1      -7.095   8.327  73.772  1.00  0.00    -0.170 A  
HETATM   18  C   UNL     1      -7.518   8.935  72.588  1.00  0.00     0.251 A  
HETATM   19  C   UNL     1      -6.570   7.121  71.326  1.00  0.00    -0.044 A  
HETATM   20  C   UNL     1      -6.457   7.091  73.735  1.00  0.00    -0.066 A  
HETATM   21  C   UNL     1      -6.165   6.505  72.509  1.00  0.00    -0.050 A  
ENDBRANCH   5  16
ENDBRANCH   2   5
BRANCH   4  22
HETATM   22  C   UNL     2     -10.494   6.019  71.995  1.00  0.00    -0.209 A  
HETATM   23  C   UNL     2     -10.217   6.192  73.336  1.00  0.00    -0.228 A  
HETATM   24  C   UNL     2      -9.033   4.034  71.918  1.00  0.00    -0.156 A  
HETATM   25  C   UNL     2      -7.537   2.135  72.013  1.00  0.00    -0.044 A  
HETATM   26  C   UNL     2      -9.351   5.296  73.967  1.00  0.00    -0.129 A  
HETATM   27  C   UNL     2      -7.321   2.441  73.346  1.00  0.00    -0.040 A  
HETATM   28  C   UNL     2      -9.966   4.918  71.330  1.00  0.00    -0.271 A  
HETATM   29  C   UNL     2      -8.394   2.940  71.247  1.00  0.00    -0.085 A  
HETATM   30  C   UNL     2      -8.730   4.254  73.285  1.00  0.00    -0.096 A  
HETATM   31  N   UNL     2      -7.889   3.482  73.980  1.00  0.00    -0.066 NA 
BRANCH  29  32
HETATM   32  C   UNL     2      -8.688   2.557  69.782  1.00  0.00    -0.071 C  
HETATM   33  H   UNL     2     -10.270   2.147  68.658  1.00  0.00     0.000 HD 
HETATM   34  O   UNL     2     -10.089   2.383  69.560  1.00  0.00     0.433 OA 
BRANCH  32  35
HETATM   35  C   UNL     2      -8.172   3.543  68.669  1.00  0.00    -0.068 C  
HETATM   36  C   UNL     2      -8.443   3.587  66.157  1.00  0.00    -0.112 C  
HETATM   37  C   UNL     2      -7.333   4.652  66.172  1.00  0.00    -0.077 C  
HETATM   38  C   UNL     2      -6.344   4.353  67.309  1.00  0.00    -0.041 C  
HETATM   39  C   UNL     2      -9.183   3.695  67.503  1.00  0.00    -0.224 C  
HETATM   40  N   UNL     2      -6.803   3.215  68.140  1.00  0.00    -0.048 NA 
HETATM   41  C   UNL     2      -6.817   2.019  67.256  1.00  0.00    -0.039 C  
HETATM   42  C   UNL     2      -7.827   2.166  66.088  1.00  0.00    -0.076 C  
BRANCH  42  43
HETATM   43  C   UNL     2      -7.176   1.888  64.753  1.00  0.00    -0.053 C  
HETATM   44  C   UNL     2      -7.173   2.737  63.717  1.00  0.00    -0.049 C  
ENDBRANCH  42  43
ENDBRANCH  32  35
ENDBRANCH  29  32
ENDBRANCH   4  22
TORSDOF 6
ENDMDL
MODEL      241
REMARK 921   NORMALIZED FREE ENERGY PREDICTED BY IDOCK:   -1.38 KCAL/MOL
REMARK 922        TOTAL FREE ENERGY PREDICTED BY IDOCK:   -4.94 KCAL/MOL
REMARK 923 INTER-LIGAND FREE ENERGY PREDICTED BY IDOCK:   -5.61 KCAL/MOL
REMARK 924 INTRA-LIGAND FREE ENERGY PREDICTED BY IDOCK:    0.67 KCAL/MOL
REMARK 927      BINDING AFFINITY PREDICTED BY RF-SCORE:    0.00 PKD
ROOT
HETATM    1  C   UNL     1     -10.972  14.851  65.042  1.00  0.00    -0.432 C  
HETATM    2  C   UNL     1     -11.707  14.870  66.380  1.00  0.00    -0.193 C  
HETATM    3  C   UNL     2     -10.443  11.463  64.518  1.00  0.00    -0.322 C  
HETATM    4  O   UNL     2     -11.369  11.858  65.517  1.00  0.00    -0.322 OA 
ENDROOT
BRANCH   2   5
HETATM    5  C   UNL     1     -10.858  15.195  67.655  1.00  0.00    -0.295 C  
HETATM    6  O   UNL     1      -9.211  13.371  67.453  1.00  0.00    -0.196 OA 
HETATM    7  C   UNL     1     -11.919  15.566  68.705  1.00  0.00    -0.210 C  
HETATM    8  C   UNL     1     -10.108  13.915  68.102  1.00  0.00    -0.250 C  
HETATM    9  H   UNL     1      -9.769  12.794  69.786  1.00  0.00     0.000 HD 
HETATM   10  N   UNL     1     -12.458  14.517  69.396  1.00  0.00    -0.566 N  
HETATM   11  O   UNL     1     -12.352  16.698  68.886  1.00  0.00     0.491 OA 
HETATM   12  O   UNL     1     -11.898  13.084  71.039  1.00  0.00     0.023 OA 
HETATM   13  N   UNL     1     -10.449  13.397  69.326  1.00  0.00     0.060 N  
HETATM   14  C   UNL     1     -11.620  13.625  69.971  1.00  0.00    -0.180 C  
HETATM   15  H   UNL     1     -13.470  14.408  69.477  1.00  0.00     0.000 HD 
BRANCH   5  16
HETATM   16  C   UNL     1      -9.871  16.353  67.393  1.00  0.00    -0.244 A  
HETATM   17  C   UNL     1      -8.208  17.935  68.215  1.00  0.00    -0.292 A  
HETATM   18  C   UNL     1      -9.297  17.091  68.444  1.00  0.00    -0.266 A  
HETATM   19  C   UNL     1      -9.426  16.630  66.089  1.00  0.00    -0.319 A  
HETATM   20  C   UNL     1      -7.697  18.084  66.931  1.00  0.00    -0.245 A  
HETATM   21  C   UNL     1      -8.327  17.458  65.862  1.00  0.00    -0.006 A  
ENDBRANCH   5  16
ENDBRANCH   2   5
BRANCH   4  22
HETATM   22  C   UNL     2     -11.325  11.177  66.694  1.00  0.00    -0.001 A  
HETATM   23  C   UNL     2     -12.213  11.288  67.745  1.00  0.00     0.588 A  
HETATM   24  C   UNL     2     -10.044   9.462  67.918  1.00  0.00    -0.239 A  
HETATM   25  C   UNL     2      -8.888   7.824  69.272  1.00  0.00    -0.139 A  
HETATM   26  C   UNL     2     -12.019  10.496  68.880  1.00  0.00    -0.030 A  
HETATM   27  C   UNL     2      -9.829   8.057  70.261  1.00  0.00    -0.184 A  
HETATM   28  C   UNL     2     -10.311  10.228  66.761  1.00  0.00    -0.288 A  
HETATM   29  C   UNL     2      -8.958   8.538  68.066  1.00  0.00    -0.141 A  
HETATM   30  C   UNL     2     -10.943   9.621  69.003  1.00  0.00    -0.132 A  
HETATM   31  N   UNL     2     -10.834   8.943  70.149  1.00  0.00    -0.230 NA 
BRANCH  29  32
HETATM   32  C   UNL     2      -7.952   8.227  66.939  1.00  0.00    -0.099 C  
HETATM   33  H   UNL     2      -6.112   7.507  66.768  1.00  0.00     0.000 HD 
HETATM   34  O   UNL     2      -6.732   7.698  67.462  1.00  0.00    -0.063 OA 
BRANCH  32  35
HETATM   35  C   UNL     2      -8.427   7.239  65.810  1.00  0.00    -0.143 C  
HETATM   36  C   UNL     2      -9.253   4.851  65.855  1.00  0.00    -0.155 C  
HETATM   37  C   UNL     2      -9.060   4.877  64.328  1.00  0.00    -0.021 C  
HETATM   38  C   UNL     2      -7.861   5.770  63.974  1.00  0.00    -0.118 C  
HETATM   39  C   UNL     2      -9.560   6.295  66.291  1.00  0.00    -0.117 C  
HETATM   40  N   UNL     2      -7.317   6.448  65.174  1.00  0.00    -0.074 NA 
HETATM   41  C   UNL     2      -6.806   5.379  66.073  1.00  0.00    -0.058 C  
HETATM   42  C   UNL     2      -7.936   4.433  66.557  1.00  0.00    -0.099 C  
BRANCH  42  43
HETATM   43  C   UNL     2      -7.589   2.983  66.310  1.00  0.00    -0.077 C  
HETATM   44  C   UNL     2      -6.384   2.546  65.921  1.00  0.00    -0.024 C  
ENDBRANCH  42  43
ENDBRANCH  32  35
ENDBRANCH  29  32
ENDBRANCH   4  22
TORSDOF 6
ENDMDL
MODEL      242
REMARK 921   NORMALIZED FREE ENERGY PREDICTED BY IDOCK:   -1.30 KCAL/MOL
REMARK 922        TOTAL FREE ENERGY PREDICTED BY IDOCK:   -4.83 KCAL/MOL
REMARK 923 INTER-LIGAND FREE ENERGY PREDICTED BY IDOCK:   -6.02 KCAL/MOL
REMARK 924 INTRA-LIGAND FREE ENERGY PREDICTED BY IDOCK:    1.19 KCAL/MOL
REMARK 927      BINDING AFFINITY PREDICTED BY RF-SCORE:    0.00 PKD
ROOT
HETATM    1  C   UNL     1     -11.051  11.832  66.414  1.00  0.00    -0.360 C  
HETATM    2  C   UNL     1     -11.863  11.373  67.623  1.00  0.00    -0.157 C  
HETATM    3  C   UNL     2      -9.534   8.894  65.366  1.00  0.00    -0.016 C  
HETATM    4  O   UNL     2     -10.609   8.810  66.287  1.00  0.00    -0.023 OA 
ENDROOT
BRANCH   2   5
HETATM    5  C   UNL     1     -11.245  11.637  69.038  1.00  0.00    -0.323 C  
HETATM    6  O   UNL     1     -12.741  13.468  69.738  1.00  0.00    -0.070 OA 
HETATM    7  C   UNL     1      -9.730  11.529  68.790  1.00  0.00    -0.126 C  
HETATM    8  C   UNL     1     -11.598  13.078  69.483  1.00  0.00    -0.276 C  
HETATM    9  H   UNL     1     -10.700  14.759  70.240  1.00  0.00     0.000 HD 
HETATM   10  N   UNL     1      -9.118  12.675  68.367  1.00  0.00    -0.321 N  
HETATM   11  O   UNL     1      -9.086  10.489  68.866  1.00  0.00    -0.161 OA 
HETATM   12  O   UNL     1      -8.447  14.659  69.192  1.00  0.00    -0.135 OA 
HETATM   13  N   UNL     1     -10.550  13.948  69.641  1.00  0.00     0.135 N  
HETATM   14  C   UNL     1      -9.330  13.815  69.065  1.00  0.00     0.239 C  
HETATM   15  H   UNL     1      -8.514  12.672  67.544  1.00  0.00     0.000 HD 
BRANCH   5  16
HETATM   16  C   UNL     1     -11.740  10.601  70.069  1.00  0.00    -0.405 A  
HETATM   17  C   UNL     1     -11.389   9.334  72.123  1.00  0.00    -0.080 A  
HETATM   18  C   UNL     1     -10.880  10.044  71.034  1.00  0.00    -0.186 A  
HETATM   19  C   UNL     1     -13.103  10.267  70.148  1.00  0.00     0.130 A  
HETATM   20  C   UNL     1     -12.760   9.137  72.251  1.00  0.00    -0.447 A  
HETATM   21  C   UNL     1     -13.614   9.575  71.245  1.00  0.00    -0.298 A  
ENDBRANCH   5  16
ENDBRANCH   2   5
BRANCH   4  22
HETATM   22  C   UNL     2     -10.464   7.934  67.317  1.00  0.00    -0.320 A  
HETATM   23  C   UNL     2     -10.605   8.212  68.662  1.00  0.00    -0.144 A  
HETATM   24  C   UNL     2      -9.978   5.570  67.826  1.00  0.00    -0.188 A  
HETATM   25  C   UNL     2      -9.486   3.301  68.506  1.00  0.00    -0.206 A  
HETATM   26  C   UNL     2     -10.431   7.179  69.586  1.00  0.00    -0.241 A  
HETATM   27  C   UNL     2      -9.624   3.722  69.818  1.00  0.00    -0.183 A  
HETATM   28  C   UNL     2     -10.229   6.623  66.917  1.00  0.00    -0.287 A  
HETATM   29  C   UNL     2      -9.644   4.225  67.461  1.00  0.00    -0.217 A  
HETATM   30  C   UNL     2     -10.087   5.886  69.203  1.00  0.00    -0.190 A  
HETATM   31  N   UNL     2      -9.906   4.987  70.176  1.00  0.00    -0.212 NA 
BRANCH  29  32
HETATM   32  C   UNL     2      -9.559   3.740  65.999  1.00  0.00    -0.159 C  
HETATM   33  H   UNL     2     -10.309   4.250  64.235  1.00  0.00     0.000 HD 
HETATM   34  O   UNL     2     -10.361   4.549  65.135  1.00  0.00    -0.188 OA 
BRANCH  32  35
HETATM   35  C   UNL     2      -8.127   3.669  65.352  1.00  0.00    -0.097 C  
HETATM   36  C   UNL     2      -6.061   5.106  65.592  1.00  0.00    -0.033 C  
HETATM   37  C   UNL     2      -5.536   4.355  64.356  1.00  0.00    -0.014 C  
HETATM   38  C   UNL     2      -6.708   4.011  63.423  1.00  0.00    -0.042 C  
HETATM   39  C   UNL     2      -7.016   4.146  66.325  1.00  0.00    -0.063 C  
HETATM   40  N   UNL     2      -8.009   4.378  64.031  1.00  0.00    -0.088 NA 
HETATM   41  C   UNL     2      -8.005   5.857  64.188  1.00  0.00    -0.122 C  
HETATM   42  C   UNL     2      -6.897   6.338  65.161  1.00  0.00    -0.047 C  
BRANCH  42  43
HETATM   43  C   UNL     2      -6.044   7.419  64.538  1.00  0.00    -0.038 C  
HETATM   44  C   UNL     2      -6.078   7.762  63.243  1.00  0.00    -0.063 C  
ENDBRANCH  42  43
ENDBRANCH  32  35
ENDBRANCH  29  32
ENDBRANCH   4  22
TORSDOF 6
ENDMDL
MODEL      243
REMARK 921   NORMALIZED FREE ENERGY PREDICTED BY IDOCK:   -1.23 KCAL/MOL
REMARK 922        TOTAL FREE ENERGY PREDICTED BY IDOCK:   -4.74 KCAL/MOL
REMARK 923 INTER-LIGAND FREE ENERGY PREDICTED BY IDOCK:   -6.25 KCAL/MOL
REMARK 924 INTRA-LIGAND FREE ENERGY PREDICTED BY IDOCK:    1.52 KCAL/MOL
REMARK 927      BINDING AFFINITY PREDICTED BY RF-SCORE:    0.00 PKD
ROOT
HETATM    1  C   UNL     1     -11.666  12.596  66.355  1.00  0.00    -0.466 C  
HETATM    2  C   UNL     1     -11.568  11.631  67.534  1.00  0.00    -0.345 C  
HETATM    3  C   UNL     2      -9.230  11.398  64.196  1.00  0.00     0.024 C  
HETATM    4  O   UNL     2      -9.645  10.574  65.273  1.00  0.00    -0.209 OA 
ENDROOT
BRANCH   2   5
HETATM    5  C   UNL     1     -10.761  12.116  68.787  1.00  0.00    -0.252 C  
HETATM    6  O   UNL     1      -8.863  13.150  67.601  1.00  0.00    -0.169 OA 
HETATM    7  C   UNL     1     -10.895  10.942  69.772  1.00  0.00    -0.187 C  
HETATM    8  C   UNL     1      -9.275  12.296  68.391  1.00  0.00    -0.145 C  
HETATM    9  H   UNL     1      -7.397  11.779  69.035  1.00  0.00     0.000 HD 
HETATM   10  N   UNL     1      -9.973   9.943  69.630  1.00  0.00    -0.218 N  
HETATM   11  O   UNL     1     -11.801  10.820  70.588  1.00  0.00    -0.318 OA 
HETATM   12  O   UNL     1      -7.800   9.551  70.064  1.00  0.00    -0.113 OA 
HETATM   13  N   UNL     1      -8.369  11.471  69.006  1.00  0.00     0.012 N  
HETATM   14  C   UNL     1      -8.663  10.278  69.580  1.00  0.00    -0.105 C  
HETATM   15  H   UNL     1     -10.265   8.968  69.564  1.00  0.00     0.000 HD 
BRANCH   5  16
HETATM   16  C   UNL     1     -11.346  13.425  69.359  1.00  0.00    -0.286 A  
HETATM   17  C   UNL     1     -11.950  15.770  69.071  1.00  0.00    -0.294 A  
HETATM   18  C   UNL     1     -11.191  14.658  68.699  1.00  0.00    -0.293 A  
HETATM   19  C   UNL     1     -12.155  13.402  70.508  1.00  0.00    -0.399 A  
HETATM   20  C   UNL     1     -12.850  15.680  70.127  1.00  0.00    -0.055 A  
HETATM   21  C   UNL     1     -12.928  14.506  70.867  1.00  0.00    -0.424 A  
ENDBRANCH   5  16
ENDBRANCH   2   5
BRANCH   4  22
HETATM   22  C   UNL     2      -8.666   9.915  65.950  1.00  0.00    -0.139 A  
HETATM   23  C   UNL     2      -7.342  10.289  66.057  1.00  0.00    -0.129 A  
HETATM   24  C   UNL     2      -8.252   7.937  67.363  1.00  0.00    -0.123 A  
HETATM   25  C   UNL     2      -7.663   6.031  68.732  1.00  0.00    -0.095 A  
HETATM   26  C   UNL     2      -6.474   9.493  66.808  1.00  0.00    -0.067 A  
HETATM   27  C   UNL     2      -6.360   6.502  68.730  1.00  0.00    -0.038 A  
HETATM   28  C   UNL     2      -9.115   8.802  66.653  1.00  0.00    -0.196 A  
HETATM   29  C   UNL     2      -8.655   6.732  68.028  1.00  0.00    -0.122 A  
HETATM   30  C   UNL     2      -6.888   8.317  67.427  1.00  0.00    -0.070 A  
HETATM   31  N   UNL     2      -5.963   7.613  68.086  1.00  0.00    -0.038 NA 
BRANCH  29  32
HETATM   32  C   UNL     2     -10.117   6.246  68.089  1.00  0.00    -0.152 C  
HETATM   33  H   UNL     2     -11.140   4.606  67.645  1.00  0.00     0.000 HD 
HETATM   34  O   UNL     2     -10.239   4.905  67.607  1.00  0.00    -0.146 OA 
BRANCH  32  35
HETATM   35  C   UNL     2     -10.827   6.291  69.491  1.00  0.00    -0.340 C  
HETATM   36  C   UNL     2     -10.061   7.041  71.780  1.00  0.00    -0.198 C  
HETATM   37  C   UNL     2     -11.326   6.342  72.306  1.00  0.00    -0.337 C  
HETATM   38  C   UNL     2     -11.633   5.109  71.442  1.00  0.00     0.954 C  
HETATM   39  C   UNL     2     -10.371   7.503  70.344  1.00  0.00    -0.216 C  
HETATM   40  N   UNL     2     -10.713   5.017  70.283  1.00  0.00    -0.075 NA 
HETATM   41  C   UNL     2      -9.346   4.824  70.838  1.00  0.00    -0.148 C  
HETATM   42  C   UNL     2      -8.885   6.035  71.691  1.00  0.00    -0.139 C  
BRANCH  42  43
HETATM   43  C   UNL     2      -8.399   5.599  73.054  1.00  0.00    -0.118 C  
HETATM   44  C   UNL     2      -7.143   5.221  73.327  1.00  0.00    -0.081 C  
ENDBRANCH  42  43
ENDBRANCH  32  35
ENDBRANCH  29  32
ENDBRANCH   4  22
TORSDOF 6
ENDMDL
MODEL      244
REMARK 921   NORMALIZED FREE ENERGY PREDICTED BY IDOCK:   -1.17 KCAL/MOL
REMARK 922        TOTAL FREE ENERGY PREDICTED BY IDOCK:   -4.65 KCAL/MOL
REMARK 923 INTER-LIGAND FREE ENERGY PREDICTED BY IDOCK:   -4.91 KCAL/MOL
REMARK 924 INTRA-LIGAND FREE ENERGY PREDICTED BY IDOCK:    0.26 KCAL/MOL
REMARK 927      BINDING AFFINITY PREDICTED BY RF-SCORE:    0.00 PKD
ROOT
HETATM    1  C   UNL     1      -7.668  10.747  64.964  1.00  0.00     0.139 C  
HETATM    2  C   UNL     1      -9.107  10.582  65.447  1.00  0.00    -0.215 C  
HETATM    3  C   UNL     2      -5.860   9.036  67.379  1.00  0.00    -0.046 C  
HETATM    4  O   UNL     2      -7.264   8.845  67.323  1.00  0.00    -0.082 OA 
ENDROOT
BRANCH   2   5
HETATM    5  C   UNL     1      -9.740  11.784  66.226  1.00  0.00    -0.242 C  
HETATM    6  O   UNL     1     -11.019  10.490  67.890  1.00  0.00    -0.253 OA 
HETATM    7  C   UNL     1     -10.128  12.768  65.108  1.00  0.00    -0.227 C  
HETATM    8  C   UNL     1     -11.016  11.297  66.957  1.00  0.00    -0.294 C  
HETATM    9  H   UNL     1     -12.983  11.819  67.212  1.00  0.00     0.000 HD 
HETATM   10  N   UNL     1     -11.353  12.561  64.539  1.00  0.00    -0.314 N  
HETATM   11  O   UNL     1      -9.390  13.638  64.661  1.00  0.00     0.593 OA 
HETATM   12  O   UNL     1     -13.532  12.854  65.019  1.00  0.00    -0.516 OA 
HETATM   13  N   UNL     1     -12.205  11.849  66.554  1.00  0.00     0.365 N  
HETATM   14  C   UNL     1     -12.427  12.431  65.350  1.00  0.00    -0.106 C  
HETATM   15  H   UNL     1     -11.455  12.506  63.525  1.00  0.00     0.000 HD 
BRANCH   5  16
HETATM   16  C   UNL     1      -8.733  12.402  67.219  1.00  0.00    -0.191 A  
HETATM   17  C   UNL     1      -6.448  13.041  67.785  1.00  0.00    -0.148 A  
HETATM   18  C   UNL     1      -7.343  12.255  67.054  1.00  0.00    -0.052 A  
HETATM   19  C   UNL     1      -9.177  13.233  68.262  1.00  0.00    -0.197 A  
HETATM   20  C   UNL     1      -6.922  13.959  68.716  1.00  0.00    -0.108 A  
HETATM   21  C   UNL     1      -8.285  14.031  68.978  1.00  0.00     0.116 A  
ENDBRANCH   5  16
ENDBRANCH   2   5
BRANCH   4  22
HETATM   22  C   UNL     2      -7.925   8.823  68.511  1.00  0.00    -0.112 A  
HETATM   23  C   UNL     2      -8.320   9.915  69.257  1.00  0.00    -0.151 A  
HETATM   24  C   UNL     2      -8.918   7.294  70.171  1.00  0.00    -0.148 A  
HETATM   25  C   UNL     2      -9.912   5.942  71.915  1.00  0.00    -0.203 A  
HETATM   26  C   UNL     2      -9.006   9.703  70.455  1.00  0.00    -0.239 A  
HETATM   27  C   UNL     2     -10.219   7.119  72.577  1.00  0.00    -0.194 A  
HETATM   28  C   UNL     2      -8.288   7.548  68.933  1.00  0.00    -0.129 A  
HETATM   29  C   UNL     2      -9.231   5.993  70.688  1.00  0.00    -0.161 A  
HETATM   30  C   UNL     2      -9.278   8.428  70.942  1.00  0.00    -0.160 A  
HETATM   31  N   UNL     2      -9.905   8.343  72.119  1.00  0.00    -0.272 NA 
BRANCH  29  32
HETATM   32  C   UNL     2      -8.952   4.687  69.919  1.00  0.00    -0.096 C  
HETATM   33  H   UNL     2      -9.264   2.743  70.159  1.00  0.00     0.000 HD 
HETATM   34  O   UNL     2      -9.436   3.548  70.634  1.00  0.00    -0.148 OA 
BRANCH  32  35
HETATM   35  C   UNL     2      -9.524   4.582  68.457  1.00  0.00    -0.152 C  
HETATM   36  C   UNL     2      -9.075   2.988  66.548  1.00  0.00    -0.163 C  
HETATM   37  C   UNL     2      -9.836   4.001  65.675  1.00  0.00    -0.181 C  
HETATM   38  C   UNL     2      -9.577   5.425  66.191  1.00  0.00    -0.153 C  
HETATM   39  C   UNL     2      -9.642   3.113  67.974  1.00  0.00    -0.137 C  
HETATM   40  N   UNL     2      -8.785   5.412  67.443  1.00  0.00    -0.108 NA 
HETATM   41  C   UNL     2      -7.459   4.830  67.103  1.00  0.00    -0.086 C  
HETATM   42  C   UNL     2      -7.572   3.361  66.621  1.00  0.00    -0.077 C  
BRANCH  42  43
HETATM   43  C   UNL     2      -6.866   3.155  65.301  1.00  0.00    -0.048 C  
HETATM   44  C   UNL     2      -5.541   3.008  65.163  1.00  0.00    -0.013 C  
ENDBRANCH  42  43
ENDBRANCH  32  35
ENDBRANCH  29  32
ENDBRANCH   4  22
TORSDOF 6
ENDMDL
MODEL      245
REMARK 921   NORMALIZED FREE ENERGY PREDICTED BY IDOCK:   -1.16 KCAL/MOL
REMARK 922        TOTAL FREE ENERGY PREDICTED BY IDOCK:   -4.65 KCAL/MOL
REMARK 923 INTER-LIGAND FREE ENERGY PREDICTED BY IDOCK:   -7.82 KCAL/MOL
REMARK 924 INTRA-LIGAND FREE ENERGY PREDICTED BY IDOCK:    3.17 KCAL/MOL
REMARK 927      BINDING AFFINITY PREDICTED BY RF-SCORE:    0.00 PKD
ROOT
HETATM    1  C   UNL     1     -12.124  14.811  67.501  1.00  0.00    -0.128 C  
HETATM    2  C   UNL     1     -10.712  15.388  67.589  1.00  0.00    -0.292 C  
HETATM    3  C   UNL     2     -11.677  11.551  68.599  1.00  0.00    -0.326 C  
HETATM    4  O   UNL     2     -10.641  12.491  68.829  1.00  0.00    -0.224 OA 
ENDROOT
BRANCH   2   5
HETATM    5  C   UNL     1      -9.887  15.458  66.259  1.00  0.00    -0.320 C  
HETATM    6  O   UNL     1      -7.759  14.558  67.120  1.00  0.00    -0.184 OA 
HETATM    7  C   UNL     1     -10.310  16.805  65.649  1.00  0.00    -0.265 C  
HETATM    8  C   UNL     1      -8.377  15.493  66.603  1.00  0.00    -0.251 C  
HETATM    9  H   UNL     1      -6.682  16.556  66.154  1.00  0.00     0.000 HD 
HETATM   10  N   UNL     1      -9.607  17.895  66.081  1.00  0.00    -0.231 N  
HETATM   11  O   UNL     1     -11.262  16.957  64.893  1.00  0.00    -0.524 OA 
HETATM   12  O   UNL     1      -7.587  18.846  65.801  1.00  0.00    -0.456 OA 
HETATM   13  N   UNL     1      -7.693  16.630  66.259  1.00  0.00    -0.293 N  
HETATM   14  C   UNL     1      -8.256  17.845  66.047  1.00  0.00    -0.068 C  
HETATM   15  H   UNL     1     -10.090  18.727  66.420  1.00  0.00     0.000 HD 
BRANCH   5  16
HETATM   16  C   UNL     1     -10.218  14.270  65.331  1.00  0.00    -0.395 A  
HETATM   17  C   UNL     1     -10.134  11.881  64.848  1.00  0.00    -0.296 A  
HETATM   18  C   UNL     1      -9.626  13.005  65.505  1.00  0.00     0.028 A  
HETATM   19  C   UNL     1     -11.214  14.389  64.346  1.00  0.00    -0.235 A  
HETATM   20  C   UNL     1     -11.215  12.005  63.982  1.00  0.00    -0.468 A  
HETATM   21  C   UNL     1     -11.733  13.265  63.706  1.00  0.00    -0.475 A  
ENDBRANCH   5  16
ENDBRANCH   2   5
BRANCH   4  22
HETATM   22  C   UNL     2      -9.369  12.064  68.605  1.00  0.00    -0.050 A  
HETATM   23  C   UNL     2      -8.266  12.855  68.349  1.00  0.00    -0.121 A  
HETATM   24  C   UNL     2      -7.978  10.032  68.481  1.00  0.00    -0.102 A  
HETATM   25  C   UNL     2      -6.475   8.146  68.290  1.00  0.00    -0.055 A  
HETATM   26  C   UNL     2      -7.026  12.241  68.155  1.00  0.00    -0.087 A  
HETATM   27  C   UNL     2      -5.464   9.049  68.010  1.00  0.00    -0.035 A  
HETATM   28  C   UNL     2      -9.201  10.690  68.740  1.00  0.00    -0.182 A  
HETATM   29  C   UNL     2      -7.779   8.613  68.519  1.00  0.00    -0.100 A  
HETATM   30  C   UNL     2      -6.867  10.859  68.178  1.00  0.00    -0.067 A  
HETATM   31  N   UNL     2      -5.642  10.380  67.940  1.00  0.00    -0.041 NA 
BRANCH  29  32
HETATM   32  C   UNL     2      -8.889   7.612  68.899  1.00  0.00    -0.135 C  
HETATM   33  H   UNL     2     -10.726   7.667  69.644  1.00  0.00     0.000 HD 
HETATM   34  O   UNL     2     -10.043   8.284  69.410  1.00  0.00    -0.188 OA 
BRANCH  32  35
HETATM   35  C   UNL     2      -9.393   6.641  67.769  1.00  0.00    -0.119 C  
HETATM   36  C   UNL     2      -9.855   4.156  67.721  1.00  0.00    -0.108 C  
HETATM   37  C   UNL     2      -9.913   4.314  66.191  1.00  0.00    -0.231 C  
HETATM   38  C   UNL     2      -8.924   5.402  65.745  1.00  0.00    -0.158 C  
HETATM   39  C   UNL     2     -10.290   5.504  68.325  1.00  0.00    -0.237 C  
HETATM   40  N   UNL     2      -8.297   6.074  66.908  1.00  0.00    -0.105 NA 
HETATM   41  C   UNL     2      -7.504   5.038  67.623  1.00  0.00    -0.079 C  
HETATM   42  C   UNL     2      -8.397   3.900  68.181  1.00  0.00    -0.101 C  
BRANCH  42  43
HETATM   43  C   UNL     2      -7.893   2.540  67.757  1.00  0.00    -0.060 C  
HETATM   44  C   UNL     2      -7.041   2.328  66.745  1.00  0.00    -0.052 C  
ENDBRANCH  42  43
ENDBRANCH  32  35
ENDBRANCH  29  32
ENDBRANCH   4  22
TORSDOF 6
ENDMDL
MODEL      246
REMARK 921   NORMALIZED FREE ENERGY PREDICTED BY IDOCK:   -0.80 KCAL/MOL
REMARK 922        TOTAL FREE ENERGY PREDICTED BY IDOCK:   -4.16 KCAL/MOL
REMARK 923 INTER-LIGAND FREE ENERGY PREDICTED BY IDOCK:   -4.95 KCAL/MOL
REMARK 924 INTRA-LIGAND FREE ENERGY PREDICTED BY IDOCK:    0.79 KCAL/MOL
REMARK 927      BINDING AFFINITY PREDICTED BY RF-SCORE:    0.00 PKD
ROOT
HETATM    1  C   UNL     1      -9.738  11.776  65.642  1.00  0.00    -0.256 C  
HETATM    2  C   UNL     1      -8.565  11.239  66.458  1.00  0.00    -0.170 C  
HETATM    3  C   UNL     2      -9.208  15.203  65.722  1.00  0.00    -0.047 C  
HETATM    4  O   UNL     2      -8.151  14.345  66.119  1.00  0.00     0.898 OA 
ENDROOT
BRANCH   2   5
HETATM    5  C   UNL     1      -8.850  10.863  67.952  1.00  0.00    -0.134 C  
HETATM    6  O   UNL     1      -9.215   8.444  67.641  1.00  0.00    -0.133 OA 
HETATM    7  C   UNL     1      -9.731  12.022  68.449  1.00  0.00    -0.199 C  
HETATM    8  C   UNL     1      -9.656   9.541  67.995  1.00  0.00    -0.137 C  
HETATM    9  H   UNL     1     -11.338   8.747  68.860  1.00  0.00     0.000 HD 
HETATM   10  N   UNL     1     -11.071  11.888  68.214  1.00  0.00    -0.221 N  
HETATM   11  O   UNL     1      -9.303  13.057  68.946  1.00  0.00     0.075 OA 
HETATM   12  O   UNL     1     -12.835  10.729  68.995  1.00  0.00    -0.044 OA 
HETATM   13  N   UNL     1     -10.926   9.611  68.508  1.00  0.00    -0.158 N  
HETATM   14  C   UNL     1     -11.678  10.737  68.583  1.00  0.00    -0.219 C  
HETATM   15  H   UNL     1     -11.602  12.639  67.772  1.00  0.00     0.000 HD 
BRANCH   5  16
HETATM   16  C   UNL     1      -7.541  10.741  68.760  1.00  0.00    -0.113 A  
HETATM   17  C   UNL     1      -6.397  10.346  70.877  1.00  0.00     0.078 A  
HETATM   18  C   UNL     1      -7.535  10.735  70.167  1.00  0.00     0.384 A  
HETATM   19  C   UNL     1      -6.317  10.516  68.107  1.00  0.00    -0.058 A  
HETATM   20  C   UNL     1      -5.236   9.992  70.198  1.00  0.00    -0.038 A  
HETATM   21  C   UNL     1      -5.186  10.109  68.814  1.00  0.00    -0.035 A  
ENDBRANCH   5  16
ENDBRANCH   2   5
BRANCH   4  22
HETATM   22  C   UNL     2      -7.451  14.710  67.227  1.00  0.00    -0.117 A  
HETATM   23  C   UNL     2      -6.961  13.871  68.207  1.00  0.00    -0.108 A  
HETATM   24  C   UNL     2      -6.501  16.668  68.386  1.00  0.00    -0.135 A  
HETATM   25  C   UNL     2      -5.535  18.478  69.670  1.00  0.00    -0.214 A  
HETATM   26  C   UNL     2      -6.248  14.424  69.274  1.00  0.00    -0.110 A  
HETATM   27  C   UNL     2      -5.130  17.531  70.596  1.00  0.00    -0.267 A  
HETATM   28  C   UNL     2      -7.156  16.068  67.288  1.00  0.00    -0.238 A  
HETATM   29  C   UNL     2      -6.254  18.073  68.534  1.00  0.00    -0.197 A  
HETATM   30  C   UNL     2      -6.042  15.794  69.403  1.00  0.00    -0.138 A  
HETATM   31  N   UNL     2      -5.381  16.215  70.485  1.00  0.00    -0.175 NA 
BRANCH  29  32
HETATM   32  C   UNL     2      -6.644  19.118  67.469  1.00  0.00    -0.198 C  
HETATM   33  H   UNL     2      -6.761  19.231  65.493  1.00  0.00     0.000 HD 
HETATM   34  O   UNL     2      -6.521  18.587  66.148  1.00  0.00    -0.189 OA 
BRANCH  32  35
HETATM   35  C   UNL     2      -8.084  19.743  67.575  1.00  0.00    -0.302 C  
HETATM   36  C   UNL     2     -10.149  19.086  68.877  1.00  0.00    -0.396 C  
HETATM   37  C   UNL     2     -10.893  20.092  67.982  1.00  0.00     0.026 C  
HETATM   38  C   UNL     2     -10.260  20.106  66.582  1.00  0.00    -0.427 C  
HETATM   39  C   UNL     2      -8.695  19.580  68.991  1.00  0.00    -0.217 C  
HETATM   40  N   UNL     2      -9.047  19.255  66.527  1.00  0.00    -0.337 NA 
HETATM   41  C   UNL     2      -9.493  17.860  66.784  1.00  0.00    -0.287 C  
HETATM   42  C   UNL     2     -10.104  17.692  68.199  1.00  0.00    -0.347 C  
BRANCH  42  43
HETATM   43  C   UNL     2     -11.465  17.038  68.142  1.00  0.00     0.303 C  
HETATM   44  C   UNL     2     -11.783  15.891  68.757  1.00  0.00    -0.355 C  
ENDBRANCH  42  43
ENDBRANCH  32  35
ENDBRANCH  29  32
ENDBRANCH   4  22
TORSDOF 6
ENDMDL
MODEL      247
REMARK 921   NORMALIZED FREE ENERGY PREDICTED BY IDOCK:   -0.70 KCAL/MOL
REMARK 922        TOTAL FREE ENERGY PREDICTED BY IDOCK:   -4.02 KCAL/MOL
REMARK 923 INTER-LIGAND FREE ENERGY PREDICTED BY IDOCK:   -5.84 KCAL/MOL
REMARK 924 INTRA-LIGAND FREE ENERGY PREDICTED BY IDOCK:    1.82 KCAL/MOL
REMARK 927      BINDING AFFINITY PREDICTED BY RF-SCORE:    0.00 PKD
ROOT
HETATM    1  C   UNL     1      -6.688   8.671  70.878  1.00  0.00    -0.052 C  
HETATM    2  C   UNL     1      -8.080   9.297  70.869  1.00  0.00    -0.168 C  
HETATM    3  C   UNL     2      -5.263   9.960  67.990  1.00  0.00    -0.039 C  
HETATM    4  O   UNL     2      -6.453  10.555  68.481  1.00  0.00    -0.054 OA 
ENDROOT
BRANCH   2   5
HETATM    5  C   UNL     1      -9.259   8.406  70.348  1.00  0.00    -0.161 C  
HETATM    6  O   UNL     1     -10.413   8.057  72.498  1.00  0.00    -0.265 OA 
HETATM    7  C   UNL     1      -8.576   7.469  69.336  1.00  0.00    -0.133 C  
HETATM    8  C   UNL     1      -9.824   7.576  71.527  1.00  0.00    -0.166 C  
HETATM    9  H   UNL     1     -10.329   5.644  71.996  1.00  0.00     0.000 HD 
HETATM   10  N   UNL     1      -8.021   6.336  69.862  1.00  0.00    -0.113 N  
HETATM   11  O   UNL     1      -8.432   7.719  68.145  1.00  0.00    -0.123 OA 
HETATM   12  O   UNL     1      -8.664   4.342  70.684  1.00  0.00    -0.086 OA 
HETATM   13  N   UNL     1      -9.691   6.214  71.440  1.00  0.00    -0.166 N  
HETATM   14  C   UNL     1      -8.779   5.565  70.675  1.00  0.00    -0.129 C  
HETATM   15  H   UNL     1      -7.058   6.077  69.647  1.00  0.00     0.000 HD 
BRANCH   5  16
HETATM   16  C   UNL     1     -10.363   9.263  69.692  1.00  0.00    -0.227 A  
HETATM   17  C   UNL     1     -11.823  11.215  69.734  1.00  0.00    -0.422 A  
HETATM   18  C   UNL     1     -11.039  10.272  70.402  1.00  0.00    -0.391 A  
HETATM   19  C   UNL     1     -10.647   9.134  68.321  1.00  0.00    -0.223 A  
HETATM   20  C   UNL     1     -11.975  11.147  68.353  1.00  0.00    -0.211 A  
HETATM   21  C   UNL     1     -11.414  10.086  67.652  1.00  0.00     0.357 A  
ENDBRANCH   5  16
ENDBRANCH   2   5
BRANCH   4  22
HETATM   22  C   UNL     2      -7.403  10.871  67.561  1.00  0.00    -0.096 A  
HETATM   23  C   UNL     2      -8.065   9.996  66.724  1.00  0.00    -0.118 A  
HETATM   24  C   UNL     2      -8.681  12.767  66.638  1.00  0.00    -0.065 A  
HETATM   25  C   UNL     2      -9.995  14.512  65.596  1.00  0.00    -0.376 A  
HETATM   26  C   UNL     2      -9.027  10.500  65.845  1.00  0.00    -0.185 A  
HETATM   27  C   UNL     2     -10.557  13.534  64.793  1.00  0.00    -0.417 A  
HETATM   28  C   UNL     2      -7.766  12.214  67.561  1.00  0.00    -0.159 A  
HETATM   29  C   UNL     2      -9.018  14.158  66.540  1.00  0.00    -0.140 A  
HETATM   30  C   UNL     2      -9.319  11.858  65.758  1.00  0.00    -0.155 A  
HETATM   31  N   UNL     2     -10.229  12.231  64.853  1.00  0.00    -0.281 NA 
BRANCH  29  32
HETATM   32  C   UNL     2      -8.444  15.236  67.481  1.00  0.00    -0.177 C  
HETATM   33  H   UNL     2      -7.238  16.806  67.355  1.00  0.00     0.000 HD 
HETATM   34  O   UNL     2      -7.592  16.141  66.776  1.00  0.00    -0.225 OA 
BRANCH  32  35
HETATM   35  C   UNL     2      -9.479  16.115  68.276  1.00  0.00    -0.208 C  
HETATM   36  C   UNL     2     -10.673  15.786  70.479  1.00  0.00    -0.253 C  
HETATM   37  C   UNL     2     -11.560  16.965  70.042  1.00  0.00     0.883 C  
HETATM   38  C   UNL     2     -11.740  16.940  68.517  1.00  0.00     0.562 C  
HETATM   39  C   UNL     2      -9.301  15.989  69.812  1.00  0.00     0.093 C  
HETATM   40  N   UNL     2     -10.914  15.880  67.892  1.00  0.00    -0.326 NA 
HETATM   41  C   UNL     2     -11.425  14.581  68.407  1.00  0.00    -0.302 C  
HETATM   42  C   UNL     2     -11.248  14.451  69.942  1.00  0.00    -0.226 C  
BRANCH  42  43
HETATM   43  C   UNL     2     -12.545  14.071  70.619  1.00  0.00    -0.414 C  
HETATM   44  C   UNL     2     -13.319  14.920  71.308  1.00  0.00    -0.490 C  
ENDBRANCH  42  43
ENDBRANCH  32  35
ENDBRANCH  29  32
ENDBRANCH   4  22
TORSDOF 6
ENDMDL
MODEL      248
REMARK 921   NORMALIZED FREE ENERGY PREDICTED BY IDOCK:   -0.49 KCAL/MOL
REMARK 922        TOTAL FREE ENERGY PREDICTED BY IDOCK:   -3.74 KCAL/MOL
REMARK 923 INTER-LIGAND FREE ENERGY PREDICTED BY IDOCK:   -5.00 KCAL/MOL
REMARK 924 INTRA-LIGAND FREE ENERGY PREDICTED BY IDOCK:    1.27 KCAL/MOL
REMARK 927      BINDING AFFINITY PREDICTED BY RF-SCORE:    0.00 PKD
ROOT
HETATM    1  C   UNL     1     -12.964  15.170  67.100  1.00  0.00     2.432 C  
HETATM    2  C   UNL     1     -11.776  14.497  67.783  1.00  0.00    -0.403 C  
HETATM    3  C   UNL     2     -13.385  13.244  64.246  1.00  0.00     1.204 C  
HETATM    4  O   UNL     2     -12.564  12.741  65.288  1.00  0.00    -0.575 OA 
ENDROOT
BRANCH   2   5
HETATM    5  C   UNL     1     -10.372  15.163  67.589  1.00  0.00    -0.248 C  
HETATM    6  O   UNL     1     -10.118  14.748  65.172  1.00  0.00    -0.372 OA 
HETATM    7  C   UNL     1      -9.591  14.718  68.838  1.00  0.00    -0.210 C  
HETATM    8  C   UNL     1      -9.704  14.574  66.321  1.00  0.00    -0.309 C  
HETATM    9  H   UNL     1      -7.926  13.755  65.711  1.00  0.00     0.000 HD 
HETATM   10  N   UNL     1      -8.970  13.504  68.744  1.00  0.00    -0.384 N  
HETATM   11  O   UNL     1      -9.570  15.330  69.899  1.00  0.00    -0.207 OA 
HETATM   12  O   UNL     1      -7.167  12.578  67.766  1.00  0.00    -0.099 OA 
HETATM   13  N   UNL     1      -8.552  13.855  66.509  1.00  0.00     0.075 N  
HETATM   14  C   UNL     1      -8.181  13.265  67.672  1.00  0.00    -0.179 C  
HETATM   15  H   UNL     1      -9.097  12.795  69.467  1.00  0.00     0.000 HD 
BRANCH   5  16
HETATM   16  C   UNL     1     -10.487  16.699  67.493  1.00  0.00    -0.317 A  
HETATM   17  C   UNL     1     -10.497  18.886  68.572  1.00  0.00    -0.197 A  
HETATM   18  C   UNL     1     -10.674  17.502  68.634  1.00  0.00    -0.201 A  
HETATM   19  C   UNL     1     -10.292  17.354  66.265  1.00  0.00    -0.330 A  
HETATM   20  C   UNL     1     -10.165  19.496  67.367  1.00  0.00    -0.550 A  
HETATM   21  C   UNL     1     -10.096  18.734  66.207  1.00  0.00    -0.447 A  
ENDBRANCH   5  16
ENDBRANCH   2   5
BRANCH   4  22
HETATM   22  C   UNL     2     -11.397  12.150  64.915  1.00  0.00    -0.326 A  
HETATM   23  C   UNL     2     -10.535  12.578  63.925  1.00  0.00    -0.464 A  
HETATM   24  C   UNL     2      -9.908  10.254  65.434  1.00  0.00    -0.362 A  
HETATM   25  C   UNL     2      -8.353   8.434  65.785  1.00  0.00    -0.150 A  
HETATM   26  C   UNL     2      -9.367  11.849  63.686  1.00  0.00     0.072 A  
HETATM   27  C   UNL     2      -7.596   8.953  64.748  1.00  0.00    -0.106 A  
HETATM   28  C   UNL     2     -11.043  11.054  65.694  1.00  0.00    -0.008 A  
HETATM   29  C   UNL     2      -9.552   9.065  66.152  1.00  0.00    -0.341 A  
HETATM   30  C   UNL     2      -9.057  10.687  64.386  1.00  0.00    -0.215 A  
HETATM   31  N   UNL     2      -7.934  10.048  64.045  1.00  0.00    -0.148 NA 
BRANCH  29  32
HETATM   32  C   UNL     2     -10.357   8.528  67.352  1.00  0.00    -0.286 C  
HETATM   33  H   UNL     2     -11.457   6.936  67.790  1.00  0.00     0.000 HD 
HETATM   34  O   UNL     2     -10.961   7.267  67.051  1.00  0.00    -0.358 OA 
BRANCH  32  35
HETATM   35  C   UNL     2      -9.582   8.347  68.709  1.00  0.00    -0.149 C  
HETATM   36  C   UNL     2      -7.201   7.698  69.252  1.00  0.00    -0.082 C  
HETATM   37  C   UNL     2      -7.700   7.522  70.697  1.00  0.00    -0.090 C  
HETATM   38  C   UNL     2      -9.152   7.019  70.685  1.00  0.00    -0.158 C  
HETATM   39  C   UNL     2      -8.094   8.768  68.598  1.00  0.00    -0.116 C  
HETATM   40  N   UNL     2      -9.697   6.971  69.307  1.00  0.00    -0.157 NA 
HETATM   41  C   UNL     2      -8.888   5.969  68.563  1.00  0.00    -0.112 C  
HETATM   42  C   UNL     2      -7.399   6.387  68.449  1.00  0.00    -0.087 C  
BRANCH  42  43
HETATM   43  C   UNL     2      -6.477   5.284  68.915  1.00  0.00    -0.042 C  
HETATM   44  C   UNL     2      -5.142   5.311  68.801  1.00  0.00     0.000 C  
ENDBRANCH  42  43
ENDBRANCH  32  35
ENDBRANCH  29  32
ENDBRANCH   4  22
TORSDOF 6
ENDMDL
MODEL      249
REMARK 921   NORMALIZED FREE ENERGY PREDICTED BY IDOCK:   -0.41 KCAL/MOL
REMARK 922        TOTAL FREE ENERGY PREDICTED BY IDOCK:   -3.63 KCAL/MOL
REMARK 923 INTER-LIGAND FREE ENERGY PREDICTED BY IDOCK:   -4.87 KCAL/MOL
REMARK 924 INTRA-LIGAND FREE ENERGY PREDICTED BY IDOCK:    1.24 KCAL/MOL
REMARK 927      BINDING AFFINITY PREDICTED BY RF-SCORE:    0.00 PKD
ROOT
HETATM    1  C   UNL     1      -6.866   6.793  71.560  1.00  0.00    -0.066 C  
HETATM    2  C   UNL     1      -8.277   7.163  72.010  1.00  0.00    -0.102 C  
HETATM    3  C   UNL     2      -6.026   9.428  69.466  1.00  0.00    -0.033 C  
HETATM    4  O   UNL     2      -7.153   9.570  70.315  1.00  0.00    -0.079 OA 
ENDROOT
BRANCH   2   5
HETATM    5  C   UNL     1      -9.467   6.457  71.275  1.00  0.00    -0.175 C  
HETATM    6  O   UNL     1      -9.740   4.545  72.809  1.00  0.00    -0.135 OA 
HETATM    7  C   UNL     1      -9.096   6.591  69.788  1.00  0.00    -0.142 C  
HETATM    8  C   UNL     1      -9.490   4.960  71.674  1.00  0.00    -0.153 C  
HETATM    9  H   UNL     1      -9.597   3.101  70.814  1.00  0.00     0.000 HD 
HETATM   10  N   UNL     1      -8.280   5.613  69.293  1.00  0.00    -0.096 N  
HETATM   11  O   UNL     1      -9.411   7.536  69.076  1.00  0.00    -0.146 OA 
HETATM   12  O   UNL     1      -8.384   3.452  68.671  1.00  0.00    -0.070 OA 
HETATM   13  N   UNL     1      -9.259   4.053  70.672  1.00  0.00    -0.112 N  
HETATM   14  C   UNL     1      -8.618   4.321  69.508  1.00  0.00    -0.076 C  
HETATM   15  H   UNL     1      -7.435   5.851  68.773  1.00  0.00     0.000 HD 
BRANCH   5  16
HETATM   16  C   UNL     1     -10.812   7.139  71.602  1.00  0.00    -0.250 A  
HETATM   17  C   UNL     1     -12.054   9.004  72.566  1.00  0.00    -0.183 A  
HETATM   18  C   UNL     1     -10.897   8.225  72.493  1.00  0.00    -0.421 A  
HETATM   19  C   UNL     1     -11.986   6.765  70.925  1.00  0.00    -0.437 A  
HETATM   20  C   UNL     1     -13.157   8.693  71.777  1.00  0.00    -0.396 A  
HETATM   21  C   UNL     1     -13.134   7.554  70.982  1.00  0.00    -0.145 A  
ENDBRANCH   5  16
ENDBRANCH   2   5
BRANCH   4  22
HETATM   22  C   UNL     2      -8.261  10.140  69.770  1.00  0.00    -0.145 A  
HETATM   23  C   UNL     2      -9.524   9.587  69.701  1.00  0.00    -0.213 A  
HETATM   24  C   UNL     2      -9.066  12.191  68.663  1.00  0.00    -0.007 A  
HETATM   25  C   UNL     2     -10.015  14.111  67.537  1.00  0.00    -0.236 A  
HETATM   26  C   UNL     2     -10.553  10.327  69.113  1.00  0.00    -0.254 A  
HETATM   27  C   UNL     2     -11.219  13.428  67.504  1.00  0.00    -0.284 A  
HETATM   28  C   UNL     2      -8.067  11.443  69.325  1.00  0.00     0.175 A  
HETATM   29  C   UNL     2      -8.887  13.501  68.108  1.00  0.00    -0.179 A  
HETATM   30  C   UNL     2     -10.345  11.589  68.565  1.00  0.00    -0.210 A  
HETATM   31  N   UNL     2     -11.394  12.188  67.992  1.00  0.00    -0.272 NA 
BRANCH  29  32
HETATM   32  C   UNL     2      -7.565  14.289  68.207  1.00  0.00    -0.130 C  
HETATM   33  H   UNL     2      -5.749  14.221  67.412  1.00  0.00     0.000 HD 
HETATM   34  O   UNL     2      -6.563  13.735  67.351  1.00  0.00    -0.257 OA 
BRANCH  32  35
HETATM   35  C   UNL     2      -7.627  15.830  67.895  1.00  0.00    -0.131 C  
HETATM   36  C   UNL     2      -6.099  17.760  68.467  1.00  0.00    -0.181 C  
HETATM   37  C   UNL     2      -7.258  18.663  68.010  1.00  0.00    -0.261 C  
HETATM   38  C   UNL     2      -8.599  17.997  68.354  1.00  0.00    -0.290 C  
HETATM   39  C   UNL     2      -6.220  16.444  67.677  1.00  0.00    -0.165 C  
HETATM   40  N   UNL     2      -8.402  16.634  68.902  1.00  0.00    -0.243 NA 
HETATM   41  C   UNL     2      -7.660  16.792  70.182  1.00  0.00     1.622 C  
HETATM   42  C   UNL     2      -6.252  17.405  69.969  1.00  0.00    -0.026 C  
BRANCH  42  43
HETATM   43  C   UNL     2      -6.025  18.600  70.866  1.00  0.00     0.259 C  
HETATM   44  C   UNL     2      -5.146  19.580  70.618  1.00  0.00    -0.224 C  
ENDBRANCH  42  43
ENDBRANCH  32  35
ENDBRANCH  29  32
ENDBRANCH   4  22
TORSDOF 6
ENDMDL
MODEL      250
REMARK 921   NORMALIZED FREE ENERGY PREDICTED BY IDOCK:   -0.36 KCAL/MOL
REMARK 922        TOTAL FREE ENERGY PREDICTED BY IDOCK:   -3.56 KCAL/MOL
REMARK 923 INTER-LIGAND FREE ENERGY PREDICTED BY IDOCK:   -6.21 KCAL/MOL
REMARK 924 INTRA-LIGAND FREE ENERGY PREDICTED BY IDOCK:    2.65 KCAL/MOL
REMARK 927      BINDING AFFINITY PREDICTED BY RF-SCORE:    0.00 PKD
ROOT
HETATM    1  C   UNL     1     -12.129  15.208  67.642  1.00  0.00     0.137 C  
HETATM    2  C   UNL     1     -10.649  15.560  67.771  1.00  0.00    -0.281 C  
HETATM    3  C   UNL     2     -12.198  11.876  68.604  1.00  0.00     0.104 C  
HETATM    4  O   UNL     2     -11.036  12.639  68.886  1.00  0.00    -0.241 OA 
ENDROOT
BRANCH   2   5
HETATM    5  C   UNL     1      -9.799  15.559  66.455  1.00  0.00    -0.298 C  
HETATM    6  O   UNL     1      -7.710  14.641  67.388  1.00  0.00    -0.182 OA 
HETATM    7  C   UNL     1     -10.176  16.892  65.786  1.00  0.00    -0.268 C  
HETATM    8  C   UNL     1      -8.295  15.569  66.825  1.00  0.00    -0.265 C  
HETATM    9  H   UNL     1      -6.565  16.573  66.367  1.00  0.00     0.000 HD 
HETATM   10  N   UNL     1      -9.454  17.980  66.189  1.00  0.00    -0.207 N  
HETATM   11  O   UNL     1     -11.111  17.039  65.007  1.00  0.00    -0.503 OA 
HETATM   12  O   UNL     1      -7.405  18.869  65.911  1.00  0.00    -0.318 OA 
HETATM   13  N   UNL     1      -7.576  16.676  66.450  1.00  0.00    -0.289 N  
HETATM   14  C   UNL     1      -8.104  17.895  66.182  1.00  0.00    -0.173 C  
HETATM   15  H   UNL     1      -9.921  18.836  66.487  1.00  0.00     0.000 HD 
BRANCH   5  16
HETATM   16  C   UNL     1     -10.143  14.345  65.565  1.00  0.00    -0.382 A  
HETATM   17  C   UNL     1      -9.612  12.110  64.748  1.00  0.00     0.026 A  
HETATM   18  C   UNL     1      -9.210  13.323  65.311  1.00  0.00     0.729 A  
HETATM   19  C   UNL     1     -11.448  14.168  65.073  1.00  0.00    -0.352 A  
HETATM   20  C   UNL     1     -10.942  11.908  64.398  1.00  0.00    -0.392 A  
HETATM   21  C   UNL     1     -11.853  12.949  64.529  1.00  0.00    -0.429 A  
ENDBRANCH   5  16
ENDBRANCH   2   5
BRANCH   4  22
HETATM   22  C   UNL     2      -9.839  12.034  68.659  1.00  0.00    -0.117 A  
HETATM   23  C   UNL     2      -8.613  12.655  68.528  1.00  0.00    -0.051 A  
HETATM   24  C   UNL     2      -8.786   9.825  68.358  1.00  0.00    -0.120 A  
HETATM   25  C   UNL     2      -7.596   7.747  68.010  1.00  0.00    -0.120 A  
HETATM   26  C   UNL     2      -7.478  11.869  68.309  1.00  0.00    -0.104 A  
HETATM   27  C   UNL     2      -6.441   8.496  67.865  1.00  0.00    -0.057 A  
HETATM   28  C   UNL     2      -9.899  10.645  68.647  1.00  0.00    -0.183 A  
HETATM   29  C   UNL     2      -8.819   8.396  68.247  1.00  0.00    -0.139 A  
HETATM   30  C   UNL     2      -7.543  10.484  68.185  1.00  0.00    -0.091 A  
HETATM   31  N   UNL     2      -6.400   9.838  67.937  1.00  0.00    -0.056 NA 
BRANCH  29  32
HETATM   32  C   UNL     2     -10.092   7.557  68.477  1.00  0.00    -0.184 C  
HETATM   33  H   UNL     2     -10.752   5.737  68.045  1.00  0.00     0.000 HD 
HETATM   34  O   UNL     2      -9.968   6.254  67.903  1.00  0.00    -0.123 OA 
BRANCH  32  35
HETATM   35  C   UNL     2     -10.554   7.354  69.967  1.00  0.00    -0.232 C  
HETATM   36  C   UNL     2     -12.764   7.703  71.142  1.00  0.00    -0.240 C  
HETATM   37  C   UNL     2     -11.963   7.553  72.447  1.00  0.00    -0.264 C  
HETATM   38  C   UNL     2     -10.553   8.132  72.258  1.00  0.00    -0.309 C  
HETATM   39  C   UNL     2     -12.027   6.881  70.068  1.00  0.00    -0.127 C  
HETATM   40  N   UNL     2     -10.322   8.547  70.854  1.00  0.00    -0.193 NA 
HETATM   41  C   UNL     2     -11.280   9.649  70.572  1.00  0.00    -0.297 C  
HETATM   42  C   UNL     2     -12.755   9.180  70.670  1.00  0.00     0.183 C  
BRANCH  42  43
HETATM   43  C   UNL     2     -13.562  10.077  71.580  1.00  0.00    -0.304 C  
HETATM   44  C   UNL     2     -13.044  10.826  72.563  1.00  0.00     0.504 C  
ENDBRANCH  42  43
ENDBRANCH  32  35
ENDBRANCH  29  32
ENDBRANCH   4  22
TORSDOF 6
ENDMDL
MODEL      251
REMARK 921   NORMALIZED FREE ENERGY PREDICTED BY IDOCK:   -0.10 KCAL/MOL
REMARK 922        TOTAL FREE ENERGY PREDICTED BY IDOCK:   -3.21 KCAL/MOL
REMARK 923 INTER-LIGAND FREE ENERGY PREDICTED BY IDOCK:   -3.32 KCAL/MOL
REMARK 924 INTRA-LIGAND FREE ENERGY PREDICTED BY IDOCK:    0.11 KCAL/MOL
REMARK 927      BINDING AFFINITY PREDICTED BY RF-SCORE:    0.00 PKD
ROOT
HETATM    1  C   UNL     1     -12.743   9.650  70.088  1.00  0.00     0.415 C  
HETATM    2  C   UNL     1     -11.519  10.553  70.220  1.00  0.00    -0.416 C  
HETATM    3  C   UNL     2     -11.888   6.927  72.059  1.00  0.00    -0.310 C  
HETATM    4  O   UNL     2     -11.123   8.115  72.177  1.00  0.00    -0.273 OA 
ENDROOT
BRANCH   2   5
HETATM    5  C   UNL     1     -10.478  10.517  69.050  1.00  0.00    -0.238 C  
HETATM    6  O   UNL     1      -8.455  10.086  70.393  1.00  0.00    -0.101 OA 
HETATM    7  C   UNL     1     -10.930  11.670  68.137  1.00  0.00    -0.226 C  
HETATM    8  C   UNL     1      -9.069  10.824  69.617  1.00  0.00     0.288 C  
HETATM    9  H   UNL     1      -7.450  12.028  69.251  1.00  0.00     0.000 HD 
HETATM   10  N   UNL     1     -10.444  12.906  68.461  1.00  0.00    -0.252 N  
HETATM   11  O   UNL     1     -11.739  11.557  67.224  1.00  0.00    -0.576 OA 
HETATM   12  O   UNL     1      -8.525  14.075  68.333  1.00  0.00    -0.160 OA 
HETATM   13  N   UNL     1      -8.466  11.974  69.177  1.00  0.00     0.340 N  
HETATM   14  C   UNL     1      -9.112  13.044  68.653  1.00  0.00     0.049 C  
HETATM   15  H   UNL     1     -11.070  13.706  68.556  1.00  0.00     0.000 HD 
BRANCH   5  16
HETATM   16  C   UNL     1     -10.499   9.157  68.321  1.00  0.00    -0.254 A  
HETATM   17  C   UNL     1     -11.195   6.821  68.231  1.00  0.00    -0.147 A  
HETATM   18  C   UNL     1     -10.914   7.977  68.965  1.00  0.00     0.086 A  
HETATM   19  C   UNL     1     -10.210   9.078  66.948  1.00  0.00    -0.339 A  
HETATM   20  C   UNL     1     -11.033   6.814  66.850  1.00  0.00    -0.370 A  
HETATM   21  C   UNL     1     -10.509   7.931  66.213  1.00  0.00     0.491 A  
ENDBRANCH   5  16
ENDBRANCH   2   5
BRANCH   4  22
HETATM   22  C   UNL     2      -9.773   7.967  72.257  1.00  0.00    -0.209 A  
HETATM   23  C   UNL     2      -8.897   8.759  72.970  1.00  0.00     0.273 A  
HETATM   24  C   UNL     2      -7.912   6.538  71.499  1.00  0.00    -0.104 A  
HETATM   25  C   UNL     2      -5.967   5.267  70.823  1.00  0.00    -0.021 A  
HETATM   26  C   UNL     2      -7.535   8.449  72.948  1.00  0.00    -0.117 A  
HETATM   27  C   UNL     2      -5.199   6.159  71.552  1.00  0.00    -0.021 A  
HETATM   28  C   UNL     2      -9.288   6.841  71.600  1.00  0.00    -0.151 A  
HETATM   29  C   UNL     2      -7.359   5.441  70.760  1.00  0.00    -0.078 A  
HETATM   30  C   UNL     2      -7.024   7.389  72.204  1.00  0.00    -0.063 A  
HETATM   31  N   UNL     2      -5.700   7.209  72.224  1.00  0.00    -0.037 NA 
BRANCH  29  32
HETATM   32  C   UNL     2      -8.220   4.408  70.005  1.00  0.00    -0.062 C  
HETATM   33  H   UNL     2     -10.006   4.331  69.145  1.00  0.00     0.000 HD 
HETATM   34  O   UNL     2      -9.475   4.967  69.610  1.00  0.00    -0.121 OA 
BRANCH  32  35
HETATM   35  C   UNL     2      -7.590   3.754  68.721  1.00  0.00    -0.053 C  
HETATM   36  C   UNL     2      -7.975   4.110  66.249  1.00  0.00    -0.098 C  
HETATM   37  C   UNL     2      -7.171   2.813  66.054  1.00  0.00    -0.066 C  
HETATM   38  C   UNL     2      -7.438   1.857  67.227  1.00  0.00    -0.059 C  
HETATM   39  C   UNL     2      -7.465   4.761  67.548  1.00  0.00    -0.079 C  
HETATM   40  N   UNL     2      -8.281   2.498  68.266  1.00  0.00    -0.057 NA 
HETATM   41  C   UNL     2      -9.597   2.781  67.632  1.00  0.00     0.017 C  
HETATM   42  C   UNL     2      -9.476   3.788  66.459  1.00  0.00    -0.204 C  
BRANCH  42  43
HETATM   43  C   UNL     2     -10.130   3.258  65.204  1.00  0.00     0.178 C  
HETATM   44  C   UNL     2     -10.574   4.023  64.198  1.00  0.00    -0.197 C  
ENDBRANCH  42  43
ENDBRANCH  32  35
ENDBRANCH  29  32
ENDBRANCH   4  22
TORSDOF 6
ENDMDL
MODEL      252
REMARK 921   NORMALIZED FREE ENERGY PREDICTED BY IDOCK:    0.25 KCAL/MOL
REMARK 922        TOTAL FREE ENERGY PREDICTED BY IDOCK:   -2.74 KCAL/MOL
REMARK 923 INTER-LIGAND FREE ENERGY PREDICTED BY IDOCK:   -4.86 KCAL/MOL
REMARK 924 INTRA-LIGAND FREE ENERGY PREDICTED BY IDOCK:    2.12 KCAL/MOL
REMARK 927      BINDING AFFINITY PREDICTED BY RF-SCORE:    0.00 PKD
ROOT
HETATM    1  C   UNL     1      -8.451  16.657  65.840  1.00  0.00    -0.024 C  
HETATM    2  C   UNL     1      -9.109  15.547  66.657  1.00  0.00    -0.310 C  
HETATM    3  C   UNL     2      -5.130  16.447  66.818  1.00  0.00     0.243 C  
HETATM    4  O   UNL     2      -5.999  15.374  67.139  1.00  0.00    -0.306 OA 
ENDROOT
BRANCH   2   5
HETATM    5  C   UNL     1      -9.863  15.974  67.962  1.00  0.00    -0.222 C  
HETATM    6  O   UNL     1      -8.000  15.695  69.552  1.00  0.00    -0.230 OA 
HETATM    7  C   UNL     1     -11.244  15.314  67.806  1.00  0.00    -0.326 C  
HETATM    8  C   UNL     1      -9.133  15.372  69.188  1.00  0.00    -0.243 C  
HETATM    9  H   UNL     1      -9.533  14.305  70.894  1.00  0.00     0.000 HD 
HETATM   10  N   UNL     1     -11.334  14.022  68.241  1.00  0.00    -0.271 N  
HETATM   11  O   UNL     1     -12.206  15.837  67.256  1.00  0.00     0.632 OA 
HETATM   12  O   UNL     1     -11.434  12.872  70.174  1.00  0.00    -0.116 OA 
HETATM   13  N   UNL     1      -9.831  14.453  69.930  1.00  0.00     0.500 N  
HETATM   14  C   UNL     1     -10.885  13.728  69.483  1.00  0.00     0.043 C  
HETATM   15  H   UNL     1     -11.729  13.295  67.644  1.00  0.00     0.000 HD 
BRANCH   5  16
HETATM   16  C   UNL     1      -9.963  17.510  68.075  1.00  0.00    -0.310 A  
HETATM   17  C   UNL     1     -10.980  19.616  67.382  1.00  0.00    -0.386 A  
HETATM   18  C   UNL     1     -10.659  18.281  67.125  1.00  0.00    -0.392 A  
HETATM   19  C   UNL     1      -9.454  18.178  69.202  1.00  0.00    -0.022 A  
HETATM   20  C   UNL     1     -10.582  20.214  68.573  1.00  0.00    -0.105 A  
HETATM   21  C   UNL     1      -9.790  19.505  69.468  1.00  0.00    -0.116 A  
ENDBRANCH   5  16
ENDBRANCH   2   5
BRANCH   4  22
HETATM   22  C   UNL     2      -5.884  14.847  68.388  1.00  0.00    -0.106 A  
HETATM   23  C   UNL     2      -5.783  15.548  69.572  1.00  0.00    -0.117 A  
HETATM   24  C   UNL     2      -5.797  12.708  69.611  1.00  0.00    -0.114 A  
HETATM   25  C   UNL     2      -5.661  10.707  70.965  1.00  0.00    -0.031 A  
HETATM   26  C   UNL     2      -5.686  14.837  70.771  1.00  0.00    -0.144 A  
HETATM   27  C   UNL     2      -5.534  11.530  72.071  1.00  0.00     0.574 A  
HETATM   28  C   UNL     2      -5.963  13.459  68.426  1.00  0.00    -0.092 A  
HETATM   29  C   UNL     2      -5.781  11.276  69.687  1.00  0.00    -0.068 A  
HETATM   30  C   UNL     2      -5.653  13.447  70.812  1.00  0.00    -0.185 A  
HETATM   31  N   UNL     2      -5.516  12.873  72.012  1.00  0.00    -0.382 NA 
BRANCH  29  32
HETATM   32  C   UNL     2      -5.993  10.361  68.464  1.00  0.00    -0.043 C  
HETATM   33  H   UNL     2      -5.522   8.516  67.909  1.00  0.00     0.000 HD 
HETATM   34  O   UNL     2      -5.392   9.080  68.663  1.00  0.00    -0.034 OA 
BRANCH  32  35
HETATM   35  C   UNL     2      -7.478  10.101  68.016  1.00  0.00    -0.087 C  
HETATM   36  C   UNL     2      -9.705  10.492  69.144  1.00  0.00    -0.226 C  
HETATM   37  C   UNL     2     -10.295   9.612  68.028  1.00  0.00    -0.262 C  
HETATM   38  C   UNL     2      -9.278   8.532  67.629  1.00  0.00    -0.134 C  
HETATM   39  C   UNL     2      -8.455  11.175  68.561  1.00  0.00    -0.156 C  
HETATM   40  N   UNL     2      -7.985   8.720  68.330  1.00  0.00    -0.105 NA 
HETATM   41  C   UNL     2      -8.256   8.540  69.781  1.00  0.00    -0.121 C  
HETATM   42  C   UNL     2      -9.232   9.613  70.330  1.00  0.00    -0.258 C  
BRANCH  42  43
HETATM   43  C   UNL     2     -10.388   8.983  71.074  1.00  0.00    -0.348 C  
HETATM   44  C   UNL     2     -11.501   9.633  71.438  1.00  0.00    -0.455 C  
ENDBRANCH  42  43
ENDBRANCH  32  35
ENDBRANCH  29  32
ENDBRANCH   4  22
TORSDOF 6
ENDMDL
MODEL      253
REMARK 921   NORMALIZED FREE ENERGY PREDICTED BY IDOCK:    0.72 KCAL/MOL
REMARK 922        TOTAL FREE ENERGY PREDICTED BY IDOCK:   -2.11 KCAL/MOL
REMARK 923 INTER-LIGAND FREE ENERGY PREDICTED BY IDOCK:   -4.59 KCAL/MOL
REMARK 924 INTRA-LIGAND FREE ENERGY PREDICTED BY IDOCK:    2.48 KCAL/MOL
REMARK 927      BINDING AFFINITY PREDICTED BY RF-SCORE:    0.00 PKD
ROOT
HETATM    1  C   UNL     1      -6.282   5.861  66.059  1.00  0.00    -0.037 C  
HETATM    2  C   UNL     1      -7.430   6.477  66.857  1.00  0.00    -0.084 C  
HETATM    3  C   UNL     2      -5.838   8.147  63.489  1.00  0.00    -0.067 C  
HETATM    4  O   UNL     2      -6.619   8.530  64.608  1.00  0.00    -0.065 OA 
ENDROOT
BRANCH   2   5
HETATM    5  C   UNL     1      -8.863   5.896  66.606  1.00  0.00    -0.123 C  
HETATM    6  O   UNL     1      -9.988   7.998  65.977  1.00  0.00    -0.022 OA 
HETATM    7  C   UNL     1      -9.044   4.888  67.755  1.00  0.00    -0.116 C  
HETATM    8  C   UNL     1      -9.902   7.036  66.746  1.00  0.00    -0.186 C  
HETATM    9  H   UNL     1     -11.678   7.446  67.687  1.00  0.00     0.000 HD 
HETATM   10  N   UNL     1      -9.517   5.408  68.927  1.00  0.00    -0.127 N  
HETATM   11  O   UNL     1      -8.718   3.708  67.702  1.00  0.00    -0.096 OA 
HETATM   12  O   UNL     1     -11.447   6.163  69.806  1.00  0.00    -0.433 OA 
HETATM   13  N   UNL     1     -10.805   6.925  67.772  1.00  0.00    -0.247 N  
HETATM   14  C   UNL     1     -10.629   6.177  68.889  1.00  0.00    -0.276 C  
HETATM   15  H   UNL     1      -9.044   5.220  69.811  1.00  0.00     0.000 HD 
BRANCH   5  16
HETATM   16  C   UNL     1      -8.962   5.222  65.221  1.00  0.00    -0.130 A  
HETATM   17  C   UNL     1      -8.755   5.345  62.794  1.00  0.00    -0.009 A  
HETATM   18  C   UNL     1      -8.947   5.969  64.029  1.00  0.00     0.644 A  
HETATM   19  C   UNL     1      -8.953   3.821  65.107  1.00  0.00    -0.132 A  
HETATM   20  C   UNL     1      -8.609   3.964  62.724  1.00  0.00    -0.089 A  
HETATM   21  C   UNL     1      -8.742   3.199  63.877  1.00  0.00    -0.089 A  
ENDBRANCH   5  16
ENDBRANCH   2   5
BRANCH   4  22
HETATM   22  C   UNL     2      -7.768   9.210  64.348  1.00  0.00    -0.119 A  
HETATM   23  C   UNL     2      -8.445   9.255  63.146  1.00  0.00    -0.212 A  
HETATM   24  C   UNL     2      -9.469  10.657  65.394  1.00  0.00    -0.263 A  
HETATM   25  C   UNL     2     -11.205  12.109  66.248  1.00  0.00    -0.382 A  
HETATM   26  C   UNL     2      -9.625   9.998  63.063  1.00  0.00    -0.104 A  
HETATM   27  C   UNL     2     -11.764  12.096  64.981  1.00  0.00    -0.314 A  
HETATM   28  C   UNL     2      -8.318   9.840  65.459  1.00  0.00    -0.141 A  
HETATM   29  C   UNL     2     -10.020  11.397  66.491  1.00  0.00    -0.243 A  
HETATM   30  C   UNL     2     -10.126  10.723  64.140  1.00  0.00    -0.353 A  
HETATM   31  N   UNL     2     -11.241  11.432  63.936  1.00  0.00    -0.354 NA 
BRANCH  29  32
HETATM   32  C   UNL     2      -9.437  11.357  67.918  1.00  0.00    -0.174 C  
HETATM   33  H   UNL     2      -9.431  10.120  69.469  1.00  0.00     0.000 HD 
HETATM   34  O   UNL     2      -9.790  10.145  68.590  1.00  0.00    -0.153 OA 
BRANCH  32  35
HETATM   35  C   UNL     2      -7.878  11.515  68.058  1.00  0.00    -0.126 C  
HETATM   36  C   UNL     2      -6.002   9.846  68.345  1.00  0.00    -0.042 C  
HETATM   37  C   UNL     2      -5.127  11.064  68.692  1.00  0.00    -0.040 C  
HETATM   38  C   UNL     2      -5.974  12.118  69.422  1.00  0.00    -0.095 C  
HETATM   39  C   UNL     2      -7.105  10.346  67.394  1.00  0.00    -0.087 C  
HETATM   40  N   UNL     2      -7.403  11.727  69.469  1.00  0.00     0.131 NA 
HETATM   41  C   UNL     2      -7.477  10.480  70.278  1.00  0.00     0.300 C  
HETATM   42  C   UNL     2      -6.706   9.308  69.617  1.00  0.00    -0.047 C  
BRANCH  42  43
HETATM   43  C   UNL     2      -5.736   8.669  70.583  1.00  0.00    -0.028 C  
HETATM   44  C   UNL     2      -5.678   8.941  71.894  1.00  0.00    -0.062 C  
ENDBRANCH  42  43
ENDBRANCH  32  35
ENDBRANCH  29  32
ENDBRANCH   4  22
TORSDOF 6
ENDMDL
MODEL      254
REMARK 921   NORMALIZED FREE ENERGY PREDICTED BY IDOCK:    0.79 KCAL/MOL
REMARK 922        TOTAL FREE ENERGY PREDICTED BY IDOCK:   -2.00 KCAL/MOL
REMARK 923 INTER-LIGAND FREE ENERGY PREDICTED BY IDOCK:   -4.16 KCAL/MOL
REMARK 924 INTRA-LIGAND FREE ENERGY PREDICTED BY IDOCK:    2.15 KCAL/MOL
REMARK 927      BINDING AFFINITY PREDICTED BY RF-SCORE:    0.00 PKD
ROOT
HETATM    1  C   UNL     1     -12.728   9.649  70.082  1.00  0.00     0.415 C  
HETATM    2  C   UNL     1     -11.511  10.554  70.259  1.00  0.00    -0.416 C  
HETATM    3  C   UNL     2     -11.866   6.850  71.939  1.00  0.00    -0.315 C  
HETATM    4  O   UNL     2     -11.109   8.037  72.112  1.00  0.00    -0.266 OA 
ENDROOT
BRANCH   2   5
HETATM    5  C   UNL     1     -10.464  10.574  69.093  1.00  0.00    -0.250 C  
HETATM    6  O   UNL     1     -12.035  10.341  67.207  1.00  0.00     0.636 OA 
HETATM    7  C   UNL     1      -9.310   9.714  69.636  1.00  0.00    -0.211 C  
HETATM    8  C   UNL     1     -11.081   9.891  67.847  1.00  0.00    -0.152 C  
HETATM    9  H   UNL     1     -10.632   8.460  66.449  1.00  0.00     0.000 HD 
HETATM   10  N   UNL     1      -9.430   8.368  69.433  1.00  0.00    -0.158 N  
HETATM   11  O   UNL     1      -8.369  10.147  70.291  1.00  0.00    -0.077 OA 
HETATM   12  O   UNL     1      -9.246   6.868  67.765  1.00  0.00    -0.122 OA 
HETATM   13  N   UNL     1     -10.482   8.734  67.419  1.00  0.00    -0.280 N  
HETATM   14  C   UNL     1      -9.707   7.927  68.184  1.00  0.00    -0.159 C  
HETATM   15  H   UNL     1      -9.315   7.710  70.204  1.00  0.00     0.000 HD 
BRANCH   5  16
HETATM   16  C   UNL     1     -10.012  12.014  68.769  1.00  0.00    -0.086 A  
HETATM   17  C   UNL     1     -10.314  14.423  69.002  1.00  0.00    -0.204 A  
HETATM   18  C   UNL     1     -10.833  13.126  69.035  1.00  0.00    -0.202 A  
HETATM   19  C   UNL     1      -8.711  12.266  68.301  1.00  0.00    -0.178 A  
HETATM   20  C   UNL     1      -8.980  14.635  68.671  1.00  0.00    -0.184 A  
HETATM   21  C   UNL     1      -8.188  13.559  68.287  1.00  0.00    -0.157 A  
ENDBRANCH   5  16
ENDBRANCH   2   5
BRANCH   4  22
HETATM   22  C   UNL     2      -9.758   7.894  72.192  1.00  0.00    -0.199 A  
HETATM   23  C   UNL     2      -8.888   8.678  72.921  1.00  0.00    -0.005 A  
HETATM   24  C   UNL     2      -7.888   6.488  71.414  1.00  0.00    -0.100 A  
HETATM   25  C   UNL     2      -5.935   5.239  70.720  1.00  0.00    -0.021 A  
HETATM   26  C   UNL     2      -7.524   8.375  72.897  1.00  0.00    -0.117 A  
HETATM   27  C   UNL     2      -5.173   6.121  71.467  1.00  0.00    -0.021 A  
HETATM   28  C   UNL     2      -9.266   6.782  71.517  1.00  0.00    -0.149 A  
HETATM   29  C   UNL     2      -7.328   5.407  70.657  1.00  0.00    -0.071 A  
HETATM   30  C   UNL     2      -7.006   7.331  72.136  1.00  0.00    -0.063 A  
HETATM   31  N   UNL     2      -5.681   7.157  72.156  1.00  0.00    -0.037 NA 
BRANCH  29  32
HETATM   32  C   UNL     2      -8.182   4.384  69.882  1.00  0.00    -0.062 C  
HETATM   33  H   UNL     2      -9.954   4.320  68.994  1.00  0.00     0.000 HD 
HETATM   34  O   UNL     2      -9.428   4.951  69.470  1.00  0.00    -0.121 OA 
BRANCH  32  35
HETATM   35  C   UNL     2      -7.535   3.735  68.604  1.00  0.00    -0.054 C  
HETATM   36  C   UNL     2      -7.875   4.113  66.128  1.00  0.00    -0.094 C  
HETATM   37  C   UNL     2      -7.077   2.811  65.937  1.00  0.00    -0.065 C  
HETATM   38  C   UNL     2      -7.372   1.849  67.098  1.00  0.00    -0.059 C  
HETATM   39  C   UNL     2      -7.382   4.749  67.441  1.00  0.00    -0.074 C  
HETATM   40  N   UNL     2      -8.227   2.487  68.126  1.00  0.00    -0.058 NA 
HETATM   41  C   UNL     2      -9.530   2.785  67.473  1.00  0.00    -0.090 C  
HETATM   42  C   UNL     2      -9.382   3.801  66.310  1.00  0.00    -0.190 C  
BRANCH  42  43
HETATM   43  C   UNL     2     -10.018   3.285  65.040  1.00  0.00     0.041 C  
HETATM   44  C   UNL     2     -10.439   4.061  64.032  1.00  0.00    -0.180 C  
ENDBRANCH  42  43
ENDBRANCH  32  35
ENDBRANCH  29  32
ENDBRANCH   4  22
TORSDOF 6
ENDMDL
MODEL      255
REMARK 921   NORMALIZED FREE ENERGY PREDICTED BY IDOCK:    0.80 KCAL/MOL
REMARK 922        TOTAL FREE ENERGY PREDICTED BY IDOCK:   -2.00 KCAL/MOL
REMARK 923 INTER-LIGAND FREE ENERGY PREDICTED BY IDOCK:   -4.04 KCAL/MOL
REMARK 924 INTRA-LIGAND FREE ENERGY PREDICTED BY IDOCK:    2.04 KCAL/MOL
REMARK 927      BINDING AFFINITY PREDICTED BY RF-SCORE:    0.00 PKD
ROOT
HETATM    1  C   UNL     1      -8.429  16.665  65.774  1.00  0.00     0.227 C  
HETATM    2  C   UNL     1      -9.074  15.481  66.489  1.00  0.00    -0.336 C  
HETATM    3  C   UNL     2      -5.141  16.507  66.868  1.00  0.00     0.044 C  
HETATM    4  O   UNL     2      -5.981  15.385  67.083  1.00  0.00    -0.306 OA 
ENDROOT
BRANCH   2   5
HETATM    5  C   UNL     1      -9.893  15.794  67.788  1.00  0.00    -0.224 C  
HETATM    6  O   UNL     1      -8.117  15.343  69.438  1.00  0.00    -0.232 OA 
HETATM    7  C   UNL     1     -11.269  15.169  67.500  1.00  0.00    -0.330 C  
HETATM    8  C   UNL     1      -9.233  15.070  68.988  1.00  0.00    -0.205 C  
HETATM    9  H   UNL     1      -9.730  13.853  70.562  1.00  0.00     0.000 HD 
HETATM   10  N   UNL     1     -11.391  13.842  67.806  1.00  0.00    -0.293 N  
HETATM   11  O   UNL     1     -12.196  15.753  66.952  1.00  0.00     0.778 OA 
HETATM   12  O   UNL     1     -11.602  12.518  69.614  1.00  0.00    -0.283 OA 
HETATM   13  N   UNL     1      -9.976  14.095  69.603  1.00  0.00     0.384 N  
HETATM   14  C   UNL     1     -11.011  13.427  69.036  1.00  0.00    -0.224 C  
HETATM   15  H   UNL     1     -11.760  13.180  67.123  1.00  0.00     0.000 HD 
BRANCH   5  16
HETATM   16  C   UNL     1      -9.987  17.314  68.040  1.00  0.00    -0.304 A  
HETATM   17  C   UNL     1     -10.938  19.490  67.487  1.00  0.00    -0.392 A  
HETATM   18  C   UNL     1     -10.613  18.180  67.126  1.00  0.00    -0.362 A  
HETATM   19  C   UNL     1      -9.546  17.864  69.257  1.00  0.00     0.065 A  
HETATM   20  C   UNL     1     -10.613  19.967  68.753  1.00  0.00    -0.005 A  
HETATM   21  C   UNL     1      -9.888  19.165  69.625  1.00  0.00     0.159 A  
ENDBRANCH   5  16
ENDBRANCH   2   5
BRANCH   4  22
HETATM   22  C   UNL     2      -5.893  14.780  68.298  1.00  0.00    -0.115 A  
HETATM   23  C   UNL     2      -5.826  15.405  69.527  1.00  0.00    -0.118 A  
HETATM   24  C   UNL     2      -5.821  12.568  69.385  1.00  0.00    -0.093 A  
HETATM   25  C   UNL     2      -5.706  10.486  70.611  1.00  0.00    -0.101 A  
HETATM   26  C   UNL     2      -5.753  14.620  70.680  1.00  0.00    -0.163 A  
HETATM   27  C   UNL     2      -5.611  11.237  71.771  1.00  0.00     0.495 A  
HETATM   28  C   UNL     2      -5.964  13.392  68.246  1.00  0.00    -0.093 A  
HETATM   29  C   UNL     2      -5.798  11.135  69.370  1.00  0.00    -0.048 A  
HETATM   30  C   UNL     2      -5.712  13.229  70.634  1.00  0.00    -0.176 A  
HETATM   31  N   UNL     2      -5.601  12.581  71.797  1.00  0.00    -0.336 NA 
BRANCH  29  32
HETATM   32  C   UNL     2      -5.973  10.298  68.086  1.00  0.00    -0.041 C  
HETATM   33  H   UNL     2      -5.476   8.495  67.427  1.00  0.00     0.000 HD 
HETATM   34  O   UNL     2      -5.367   9.010  68.217  1.00  0.00    -0.037 OA 
BRANCH  32  35
HETATM   35  C   UNL     2      -7.445  10.058  67.585  1.00  0.00    -0.090 C  
HETATM   36  C   UNL     2      -8.816   7.966  67.226  1.00  0.00    -0.131 C  
HETATM   37  C   UNL     2      -9.799   8.878  66.471  1.00  0.00    -0.344 C  
HETATM   38  C   UNL     2      -9.022   9.992  65.753  1.00  0.00    -0.157 C  
HETATM   39  C   UNL     2      -8.112   8.842  68.279  1.00  0.00    -0.114 C  
HETATM   40  N   UNL     2      -7.580   9.952  66.091  1.00  0.00    -0.101 NA 
HETATM   41  C   UNL     2      -7.056   8.659  65.573  1.00  0.00    -0.083 C  
HETATM   42  C   UNL     2      -7.720   7.440  66.264  1.00  0.00    -0.093 C  
BRANCH  42  43
HETATM   43  C   UNL     2      -8.267   6.459  65.253  1.00  0.00    -0.137 C  
HETATM   44  C   UNL     2      -9.097   5.449  65.547  1.00  0.00    -0.126 C  
ENDBRANCH  42  43
ENDBRANCH  32  35
ENDBRANCH  29  32
ENDBRANCH   4  22
TORSDOF 6
ENDMDL
MODEL      256
REMARK 921   NORMALIZED FREE ENERGY PREDICTED BY IDOCK:    0.94 KCAL/MOL
REMARK 922        TOTAL FREE ENERGY PREDICTED BY IDOCK:   -1.81 KCAL/MOL
REMARK 923 INTER-LIGAND FREE ENERGY PREDICTED BY IDOCK:    0.76 KCAL/MOL
REMARK 924 INTRA-LIGAND FREE ENERGY PREDICTED BY IDOCK:   -2.57 KCAL/MOL
REMARK 927      BINDING AFFINITY PREDICTED BY RF-SCORE:    0.00 PKD
ROOT
HETATM    1  C   UNL     1      -6.746  11.408  70.515  1.00  0.00     0.750 C  
HETATM    2  C   UNL     1      -6.483  11.838  69.074  1.00  0.00    -0.084 C  
HETATM    3  C   UNL     2      -6.209   7.983  70.390  1.00  0.00    -0.036 C  
HETATM    4  O   UNL     2      -5.763   8.779  69.304  1.00  0.00    -0.035 OA 
ENDROOT
BRANCH   2   5
HETATM    5  C   UNL     1      -7.734  12.061  68.158  1.00  0.00    -0.135 C  
HETATM    6  O   UNL     1      -6.607  11.867  65.973  1.00  0.00     0.368 OA 
HETATM    7  C   UNL     1      -8.500  13.189  68.870  1.00  0.00     0.274 C  
HETATM    8  C   UNL     1      -7.260  12.550  66.767  1.00  0.00     0.316 C  
HETATM    9  H   UNL     1      -7.650  14.027  65.398  1.00  0.00     0.000 HD 
HETATM   10  N   UNL     1      -8.108  14.460  68.554  1.00  0.00    -0.142 N  
HETATM   11  O   UNL     1      -9.349  13.015  69.736  1.00  0.00     1.654 OA 
HETATM   12  O   UNL     1      -8.290  15.933  66.862  1.00  0.00    -0.198 OA 
HETATM   13  N   UNL     1      -7.644  13.813  66.395  1.00  0.00     1.487 N  
HETATM   14  C   UNL     1      -8.015  14.799  67.247  1.00  0.00    -0.205 C  
HETATM   15  H   UNL     1      -7.890  15.137  69.285  1.00  0.00     0.000 HD 
BRANCH   5  16
HETATM   16  C   UNL     1      -8.577  10.774  68.036  1.00  0.00    -0.128 A  
HETATM   17  C   UNL     1     -10.137   9.172  69.012  1.00  0.00    -0.199 A  
HETATM   18  C   UNL     1      -9.158  10.158  69.161  1.00  0.00    -0.189 A  
HETATM   19  C   UNL     1      -8.887  10.240  66.773  1.00  0.00    -0.143 A  
HETATM   20  C   UNL     1     -10.526   8.760  67.742  1.00  0.00    -0.292 A  
HETATM   21  C   UNL     1      -9.877   9.270  66.624  1.00  0.00    -0.311 A  
ENDBRANCH   5  16
ENDBRANCH   2   5
BRANCH   4  22
HETATM   22  C   UNL     2      -5.989   8.289  68.055  1.00  0.00    -0.043 A  
HETATM   23  C   UNL     2      -5.286   8.597  66.908  1.00  0.00    -0.036 A  
HETATM   24  C   UNL     2      -7.429   6.736  66.791  1.00  0.00    -0.082 A  
HETATM   25  C   UNL     2      -8.767   5.285  65.393  1.00  0.00    -0.150 A  
HETATM   26  C   UNL     2      -5.651   7.984  65.707  1.00  0.00    -0.036 A  
HETATM   27  C   UNL     2      -8.004   5.707  64.317  1.00  0.00    -0.125 A  
HETATM   28  C   UNL     2      -6.988   7.322  67.999  1.00  0.00    -0.079 A  
HETATM   29  C   UNL     2      -8.512   5.804  66.672  1.00  0.00    -0.113 A  
HETATM   30  C   UNL     2      -6.721   7.098  65.618  1.00  0.00    -0.052 A  
HETATM   31  N   UNL     2      -7.006   6.603  64.409  1.00  0.00    -0.052 NA 
BRANCH  29  32
HETATM   32  C   UNL     2      -9.316   5.282  67.879  1.00  0.00    -0.116 C  
HETATM   33  H   UNL     2     -11.124   4.547  68.234  1.00  0.00     0.000 HD 
HETATM   34  O   UNL     2     -10.628   4.868  67.490  1.00  0.00    -0.048 OA 
BRANCH  32  35
HETATM   35  C   UNL     2      -8.689   4.092  68.695  1.00  0.00    -0.097 C  
HETATM   36  C   UNL     2      -9.553   2.673  70.599  1.00  0.00    -0.167 C  
HETATM   37  C   UNL     2      -8.099   2.194  70.750  1.00  0.00    -0.060 C  
HETATM   38  C   UNL     2      -7.138   3.338  70.391  1.00  0.00    -0.034 C  
HETATM   39  C   UNL     2      -9.750   3.043  69.117  1.00  0.00     0.087 C  
HETATM   40  N   UNL     2      -7.871   4.521  69.882  1.00  0.00    -0.060 NA 
HETATM   41  C   UNL     2      -8.721   5.009  71.001  1.00  0.00    -0.127 C  
HETATM   42  C   UNL     2      -9.785   3.964  71.426  1.00  0.00    -0.246 C  
BRANCH  42  43
HETATM   43  C   UNL     2      -9.745   3.706  72.914  1.00  0.00    -0.186 C  
HETATM   44  C   UNL     2      -9.908   4.648  73.853  1.00  0.00    -0.171 C  
ENDBRANCH  42  43
ENDBRANCH  32  35
ENDBRANCH  29  32
ENDBRANCH   4  22
TORSDOF 6
ENDMDL
MODEL      257
REMARK 921   NORMALIZED FREE ENERGY PREDICTED BY IDOCK:    0.99 KCAL/MOL
REMARK 922        TOTAL FREE ENERGY PREDICTED BY IDOCK:   -1.74 KCAL/MOL
REMARK 923 INTER-LIGAND FREE ENERGY PREDICTED BY IDOCK:   -1.70 KCAL/MOL
REMARK 924 INTRA-LIGAND FREE ENERGY PREDICTED BY IDOCK:   -0.04 KCAL/MOL
REMARK 927      BINDING AFFINITY PREDICTED BY RF-SCORE:    0.00 PKD
ROOT
HETATM    1  C   UNL     1      -8.968  10.405  70.420  1.00  0.00     0.894 C  
HETATM    2  C   UNL     1      -9.996  11.523  70.576  1.00  0.00     3.357 C  
HETATM    3  C   UNL     2      -7.143  11.439  67.658  1.00  0.00    -0.092 C  
HETATM    4  O   UNL     2      -7.998  12.375  68.293  1.00  0.00    -0.147 OA 
ENDROOT
BRANCH   2   5
HETATM    5  C   UNL     1     -11.431  11.257  70.006  1.00  0.00    -0.359 C  
HETATM    6  O   UNL     1     -10.772  10.188  67.884  1.00  0.00    -0.230 OA 
HETATM    7  C   UNL     1     -12.200  12.541  70.363  1.00  0.00    -0.286 C  
HETATM    8  C   UNL     1     -11.344  11.114  68.466  1.00  0.00    -0.282 C  
HETATM    9  H   UNL     1     -12.242  11.821  66.764  1.00  0.00     0.000 HD 
HETATM   10  N   UNL     1     -12.090  13.565  69.464  1.00  0.00    -0.317 N  
HETATM   11  O   UNL     1     -12.809  12.717  71.412  1.00  0.00    -0.370 OA 
HETATM   12  O   UNL     1     -12.855  14.139  67.427  1.00  0.00     0.381 OA 
HETATM   13  N   UNL     1     -11.993  12.065  67.722  1.00  0.00    -0.219 N  
HETATM   14  C   UNL     1     -12.329  13.304  68.159  1.00  0.00     0.137 C  
HETATM   15  H   UNL     1     -11.834  14.504  69.770  1.00  0.00     0.000 HD 
BRANCH   5  16
HETATM   16  C   UNL     1     -12.065  10.004  70.645  1.00  0.00    -0.381 A  
HETATM   17  C   UNL     1     -11.819   7.852  71.767  1.00  0.00    -0.333 A  
HETATM   18  C   UNL     1     -11.305   8.858  70.944  1.00  0.00    -0.336 A  
HETATM   19  C   UNL     1     -13.410  10.014  71.056  1.00  0.00    -0.334 A  
HETATM   20  C   UNL     1     -13.109   7.956  72.276  1.00  0.00    -0.099 A  
HETATM   21  C   UNL     1     -13.916   9.020  71.893  1.00  0.00    -0.445 A  
ENDBRANCH   5  16
ENDBRANCH   2   5
BRANCH   4  22
HETATM   22  C   UNL     2      -8.742  13.173  67.480  1.00  0.00    -0.201 A  
HETATM   23  C   UNL     2      -8.980  14.523  67.644  1.00  0.00    -0.193 A  
HETATM   24  C   UNL     2     -10.070  13.159  65.403  1.00  0.00    -0.260 A  
HETATM   25  C   UNL     2     -11.432  13.317  63.409  1.00  0.00    -0.080 A  
HETATM   26  C   UNL     2      -9.762  15.189  66.696  1.00  0.00    -0.274 A  
HETATM   27  C   UNL     2     -11.619  14.656  63.710  1.00  0.00     0.511 A  
HETATM   28  C   UNL     2      -9.219  12.533  66.342  1.00  0.00    -0.177 A  
HETATM   29  C   UNL     2     -10.658  12.516  64.264  1.00  0.00    -0.395 A  
HETATM   30  C   UNL     2     -10.337  14.535  65.611  1.00  0.00    -0.349 A  
HETATM   31  N   UNL     2     -11.099  15.264  64.790  1.00  0.00    -0.409 NA 
BRANCH  29  32
HETATM   32  C   UNL     2     -10.393  11.044  63.892  1.00  0.00    -0.372 C  
HETATM   33  H   UNL     2     -11.053   9.719  62.571  1.00  0.00     0.000 HD 
HETATM   34  O   UNL     2     -11.216  10.626  62.800  1.00  0.00     1.044 OA 
BRANCH  32  35
HETATM   35  C   UNL     2      -8.915  10.656  63.518  1.00  0.00    -0.208 C  
HETATM   36  C   UNL     2      -7.858   8.513  62.693  1.00  0.00    -0.140 C  
HETATM   37  C   UNL     2      -6.513   9.187  63.018  1.00  0.00    -0.090 C  
HETATM   38  C   UNL     2      -6.675  10.100  64.243  1.00  0.00    -0.108 C  
HETATM   39  C   UNL     2      -8.850   9.639  62.348  1.00  0.00    -0.262 C  
HETATM   40  N   UNL     2      -8.089  10.175  64.680  1.00  0.00    -0.151 NA 
HETATM   41  C   UNL     2      -8.476   8.805  65.111  1.00  0.00    -0.174 C  
HETATM   42  C   UNL     2      -8.413   7.786  63.945  1.00  0.00     0.226 C  
BRANCH  42  43
HETATM   43  C   UNL     2      -7.592   6.571  64.313  1.00  0.00    -0.100 C  
HETATM   44  C   UNL     2      -7.303   6.202  65.568  1.00  0.00    -0.080 C  
ENDBRANCH  42  43
ENDBRANCH  32  35
ENDBRANCH  29  32
ENDBRANCH   4  22
TORSDOF 6
ENDMDL
MODEL      258
REMARK 921   NORMALIZED FREE ENERGY PREDICTED BY IDOCK:    1.01 KCAL/MOL
REMARK 922        TOTAL FREE ENERGY PREDICTED BY IDOCK:   -1.72 KCAL/MOL
REMARK 923 INTER-LIGAND FREE ENERGY PREDICTED BY IDOCK:   -5.72 KCAL/MOL
REMARK 924 INTRA-LIGAND FREE ENERGY PREDICTED BY IDOCK:    4.00 KCAL/MOL
REMARK 927      BINDING AFFINITY PREDICTED BY RF-SCORE:    0.00 PKD
ROOT
HETATM    1  C   UNL     1      -9.361  12.878  65.916  1.00  0.00     0.028 C  
HETATM    2  C   UNL     1     -10.521  13.548  66.648  1.00  0.00    -0.274 C  
HETATM    3  C   UNL     2      -9.699   9.554  66.848  1.00  0.00    -0.182 C  
HETATM    4  O   UNL     2     -10.781  10.439  67.091  1.00  0.00    -0.259 OA 
ENDROOT
BRANCH   2   5
HETATM    5  C   UNL     1     -10.186  14.287  67.988  1.00  0.00    -0.226 C  
HETATM    6  O   UNL     1      -9.513  12.320  69.314  1.00  0.00     0.428 OA 
HETATM    7  C   UNL     1     -11.314  15.326  68.113  1.00  0.00    -0.338 C  
HETATM    8  C   UNL     1     -10.277  13.277  69.159  1.00  0.00     0.212 C  
HETATM    9  H   UNL     1     -11.122  13.090  71.018  1.00  0.00     0.000 HD 
HETATM   10  N   UNL     1     -12.462  14.883  68.706  1.00  0.00    -0.529 N  
HETATM   11  O   UNL     1     -11.269  16.459  67.649  1.00  0.00    -0.218 OA 
HETATM   12  O   UNL     1     -13.239  14.369  70.755  1.00  0.00    -0.353 OA 
HETATM   13  N   UNL     1     -11.250  13.508  70.097  1.00  0.00     0.119 N  
HETATM   14  C   UNL     1     -12.369  14.247  69.897  1.00  0.00    -0.324 C  
HETATM   15  H   UNL     1     -13.369  15.028  68.263  1.00  0.00     0.000 HD 
BRANCH   5  16
HETATM   16  C   UNL     1      -8.792  14.947  67.932  1.00  0.00    -0.165 A  
HETATM   17  C   UNL     1      -7.046  16.087  66.667  1.00  0.00     0.053 A  
HETATM   18  C   UNL     1      -8.162  15.248  66.710  1.00  0.00    -0.215 A  
HETATM   19  C   UNL     1      -8.156  15.375  69.110  1.00  0.00    -0.233 A  
HETATM   20  C   UNL     1      -6.519  16.611  67.842  1.00  0.00    -0.150 A  
HETATM   21  C   UNL     1      -7.054  16.228  69.066  1.00  0.00    -0.196 A  
ENDBRANCH   5  16
ENDBRANCH   2   5
BRANCH   4  22
HETATM   22  C   UNL     2     -11.406  10.325  68.293  1.00  0.00    -0.177 A  
HETATM   23  C   UNL     2     -12.094  11.317  68.963  1.00  0.00    -0.325 A  
HETATM   24  C   UNL     2     -11.920   8.715  70.089  1.00  0.00     0.399 A  
HETATM   25  C   UNL     2     -12.484   7.280  71.954  1.00  0.00    -0.337 A  
HETATM   26  C   UNL     2     -12.689  11.014  70.190  1.00  0.00    -0.200 A  
HETATM   27  C   UNL     2     -13.112   8.371  72.532  1.00  0.00    -0.170 A  
HETATM   28  C   UNL     2     -11.390   9.037  68.819  1.00  0.00     0.447 A  
HETATM   29  C   UNL     2     -11.848   7.425  70.711  1.00  0.00    -0.288 A  
HETATM   30  C   UNL     2     -12.586   9.758  70.780  1.00  0.00    -0.196 A  
HETATM   31  N   UNL     2     -13.160   9.593  71.975  1.00  0.00    -0.427 NA 
BRANCH  29  32
HETATM   32  C   UNL     2     -11.209   6.194  70.036  1.00  0.00    -0.401 C  
HETATM   33  H   UNL     2     -10.750   5.595  68.202  1.00  0.00     0.000 HD 
HETATM   34  O   UNL     2     -11.144   6.353  68.617  1.00  0.00    -0.317 OA 
BRANCH  32  35
HETATM   35  C   UNL     2      -9.768   5.785  70.514  1.00  0.00    -0.177 C  
HETATM   36  C   UNL     2      -7.569   7.030  70.595  1.00  0.00    -0.093 C  
HETATM   37  C   UNL     2      -6.932   5.653  70.854  1.00  0.00    -0.061 C  
HETATM   38  C   UNL     2      -7.718   4.569  70.100  1.00  0.00    -0.053 C  
HETATM   39  C   UNL     2      -9.002   6.971  71.157  1.00  0.00    -0.146 C  
HETATM   40  N   UNL     2      -8.927   5.130  69.452  1.00  0.00    -0.098 NA 
HETATM   41  C   UNL     2      -8.453   6.104  68.433  1.00  0.00    -0.114 C  
HETATM   42  C   UNL     2      -7.688   7.292  69.072  1.00  0.00    -0.112 C  
BRANCH  42  43
HETATM   43  C   UNL     2      -6.340   7.498  68.420  1.00  0.00    -0.044 C  
HETATM   44  C   UNL     2      -5.610   6.524  67.860  1.00  0.00    -0.008 C  
ENDBRANCH  42  43
ENDBRANCH  32  35
ENDBRANCH  29  32
ENDBRANCH   4  22
TORSDOF 6
ENDMDL
MODEL      259
REMARK 921   NORMALIZED FREE ENERGY PREDICTED BY IDOCK:    1.24 KCAL/MOL
REMARK 922        TOTAL FREE ENERGY PREDICTED BY IDOCK:   -1.41 KCAL/MOL
REMARK 923 INTER-LIGAND FREE ENERGY PREDICTED BY IDOCK:   -7.98 KCAL/MOL
REMARK 924 INTRA-LIGAND FREE ENERGY PREDICTED BY IDOCK:    6.57 KCAL/MOL
REMARK 927      BINDING AFFINITY PREDICTED BY RF-SCORE:    0.00 PKD
ROOT
HETATM    1  C   UNL     1      -6.839   6.325  71.302  1.00  0.00    -0.067 C  
HETATM    2  C   UNL     1      -8.196   6.621  71.937  1.00  0.00    -0.103 C  
HETATM    3  C   UNL     2      -6.433   8.984  69.113  1.00  0.00    -0.043 C  
HETATM    4  O   UNL     2      -7.442   9.072  70.105  1.00  0.00    -0.057 OA 
ENDROOT
BRANCH   2   5
HETATM    5  C   UNL     1      -9.433   5.845  71.368  1.00  0.00    -0.168 C  
HETATM    6  O   UNL     1      -9.320   6.662  69.044  1.00  0.00    -0.135 OA 
HETATM    7  C   UNL     1     -10.475   5.963  72.493  1.00  0.00    -0.204 C  
HETATM    8  C   UNL     1      -9.948   6.575  70.102  1.00  0.00    -0.167 C  
HETATM    9  H   UNL     1     -11.694   7.283  69.291  1.00  0.00     0.000 HD 
HETATM   10  N   UNL     1     -11.242   7.095  72.472  1.00  0.00    -0.278 N  
HETATM   11  O   UNL     1     -10.590   5.170  73.419  1.00  0.00    -0.207 OA 
HETATM   12  O   UNL     1     -12.963   7.971  71.317  1.00  0.00    -0.277 OA 
HETATM   13  N   UNL     1     -11.208   7.112  70.171  1.00  0.00    -0.274 N  
HETATM   14  C   UNL     1     -11.858   7.434  71.317  1.00  0.00    -0.301 C  
HETATM   15  H   UNL     1     -11.347   7.670  73.308  1.00  0.00     0.000 HD 
BRANCH   5  16
HETATM   16  C   UNL     1      -9.079   4.376  71.055  1.00  0.00    -0.185 A  
HETATM   17  C   UNL     1      -9.020   2.506  69.491  1.00  0.00    -0.167 A  
HETATM   18  C   UNL     1      -9.563   3.724  69.906  1.00  0.00    -0.255 A  
HETATM   19  C   UNL     1      -8.161   3.676  71.858  1.00  0.00    -0.072 A  
HETATM   20  C   UNL     1      -8.010   1.902  70.232  1.00  0.00    -0.051 A  
HETATM   21  C   UNL     1      -7.605   2.470  71.434  1.00  0.00    -0.040 A  
ENDBRANCH   5  16
ENDBRANCH   2   5
BRANCH   4  22
HETATM   22  C   UNL     2      -8.643   9.576  69.712  1.00  0.00    -0.192 A  
HETATM   23  C   UNL     2      -9.884   9.011  69.925  1.00  0.00    -0.194 A  
HETATM   24  C   UNL     2      -9.680  11.498  68.567  1.00  0.00    -0.191 A  
HETATM   25  C   UNL     2     -10.860  13.286  67.441  1.00  0.00    -0.279 A  
HETATM   26  C   UNL     2     -11.019   9.680  69.459  1.00  0.00    -0.233 A  
HETATM   27  C   UNL     2     -12.034  12.595  67.692  1.00  0.00    -0.247 A  
HETATM   28  C   UNL     2      -8.562  10.828  69.111  1.00  0.00    -0.097 A  
HETATM   29  C   UNL     2      -9.634  12.744  67.860  1.00  0.00    -0.211 A  
HETATM   30  C   UNL     2     -10.942  10.881  68.759  1.00  0.00    -0.237 A  
HETATM   31  N   UNL     2     -12.089  11.411  68.325  1.00  0.00    -0.608 NA 
BRANCH  29  32
HETATM   32  C   UNL     2      -8.335  13.547  67.643  1.00  0.00    -0.179 C  
HETATM   33  H   UNL     2      -6.523  13.237  66.899  1.00  0.00     0.000 HD 
HETATM   34  O   UNL     2      -7.323  12.743  67.033  1.00  0.00    -0.063 OA 
BRANCH  32  35
HETATM   35  C   UNL     2      -8.443  14.864  66.789  1.00  0.00    -0.180 C  
HETATM   36  C   UNL     2      -7.571  17.210  67.137  1.00  0.00    -0.203 C  
HETATM   37  C   UNL     2      -8.514  17.607  65.987  1.00  0.00    -0.078 C  
HETATM   38  C   UNL     2      -9.777  16.733  66.030  1.00  0.00    -0.259 C  
HETATM   39  C   UNL     2      -7.170  15.743  66.898  1.00  0.00    -0.128 C  
HETATM   40  N   UNL     2      -9.674  15.682  67.070  1.00  0.00    -0.224 NA 
HETATM   41  C   UNL     2      -9.593  16.384  68.379  1.00  0.00    -0.219 C  
HETATM   42  C   UNL     2      -8.320  17.263  68.492  1.00  0.00    -0.267 C  
BRANCH  42  43
HETATM   43  C   UNL     2      -8.659  18.677  68.905  1.00  0.00    -0.203 C  
HETATM   44  C   UNL     2      -9.902  19.173  68.970  1.00  0.00    -0.437 C  
ENDBRANCH  42  43
ENDBRANCH  32  35
ENDBRANCH  29  32
ENDBRANCH   4  22
TORSDOF 6
ENDMDL
MODEL      260
REMARK 921   NORMALIZED FREE ENERGY PREDICTED BY IDOCK:    1.36 KCAL/MOL
REMARK 922        TOTAL FREE ENERGY PREDICTED BY IDOCK:   -1.23 KCAL/MOL
REMARK 923 INTER-LIGAND FREE ENERGY PREDICTED BY IDOCK:   -4.63 KCAL/MOL
REMARK 924 INTRA-LIGAND FREE ENERGY PREDICTED BY IDOCK:    3.40 KCAL/MOL
REMARK 927      BINDING AFFINITY PREDICTED BY RF-SCORE:    0.00 PKD
ROOT
HETATM    1  C   UNL     1     -11.352  13.424  68.882  1.00  0.00    -0.331 C  
HETATM    2  C   UNL     1      -9.877  13.340  69.271  1.00  0.00     0.564 C  
HETATM    3  C   UNL     2     -12.525  10.259  69.683  1.00  0.00     0.195 C  
HETATM    4  O   UNL     2     -11.261  10.660  70.186  1.00  0.00    -0.288 OA 
ENDROOT
BRANCH   2   5
HETATM    5  C   UNL     1      -8.850  13.084  68.116  1.00  0.00    -0.194 C  
HETATM    6  O   UNL     1      -8.139  15.417  67.757  1.00  0.00    -0.129 OA 
HETATM    7  C   UNL     1      -9.554  12.034  67.240  1.00  0.00    -0.183 C  
HETATM    8  C   UNL     1      -8.661  14.393  67.309  1.00  0.00    -0.215 C  
HETATM    9  H   UNL     1      -8.657  15.064  65.371  1.00  0.00     0.000 HD 
HETATM   10  N   UNL     1     -10.411  12.529  66.297  1.00  0.00    -0.246 N  
HETATM   11  O   UNL     1      -9.457  10.822  67.394  1.00  0.00    -0.154 OA 
HETATM   12  O   UNL     1     -10.339  13.575  64.305  1.00  0.00    -0.406 OA 
HETATM   13  N   UNL     1      -9.066  14.373  65.999  1.00  0.00    -0.027 N  
HETATM   14  C   UNL     1      -9.967  13.507  65.474  1.00  0.00    -0.219 C  
HETATM   15  H   UNL     1     -11.362  12.171  66.215  1.00  0.00     0.000 HD 
BRANCH   5  16
HETATM   16  C   UNL     1      -7.502  12.572  68.667  1.00  0.00    -0.090 A  
HETATM   17  C   UNL     1      -5.465  12.954  69.952  1.00  0.00    -0.102 A  
HETATM   18  C   UNL     1      -6.543  13.446  69.211  1.00  0.00    -0.097 A  
HETATM   19  C   UNL     1      -7.241  11.193  68.746  1.00  0.00    -0.098 A  
HETATM   20  C   UNL     1      -5.307  11.585  70.133  1.00  0.00    -0.094 A  
HETATM   21  C   UNL     1      -6.176  10.703  69.502  1.00  0.00    -0.059 A  
ENDBRANCH   5  16
ENDBRANCH   2   5
BRANCH   4  22
HETATM   22  C   UNL     2     -10.263   9.736  70.137  1.00  0.00    -0.275 A  
HETATM   23  C   UNL     2      -9.466   9.327  71.187  1.00  0.00    -0.287 A  
HETATM   24  C   UNL     2      -9.110   8.177  68.614  1.00  0.00    -0.143 A  
HETATM   25  C   UNL     2      -7.850   6.622  67.254  1.00  0.00    -0.112 A  
HETATM   26  C   UNL     2      -8.493   8.351  70.955  1.00  0.00    -0.158 A  
HETATM   27  C   UNL     2      -7.102   6.328  68.382  1.00  0.00    -0.083 A  
HETATM   28  C   UNL     2     -10.128   9.114  68.900  1.00  0.00    -0.209 A  
HETATM   29  C   UNL     2      -8.876   7.578  67.333  1.00  0.00    -0.127 A  
HETATM   30  C   UNL     2      -8.275   7.801  69.695  1.00  0.00    -0.127 A  
HETATM   31  N   UNL     2      -7.290   6.905  69.581  1.00  0.00    -0.084 NA 
BRANCH  29  32
HETATM   32  C   UNL     2      -9.753   7.854  66.095  1.00  0.00    -0.009 C  
HETATM   33  H   UNL     2     -11.037   9.235  65.481  1.00  0.00     0.000 HD 
HETATM   34  O   UNL     2     -10.497   9.065  66.244  1.00  0.00    -0.179 OA 
BRANCH  32  35
HETATM   35  C   UNL     2      -9.021   7.939  64.705  1.00  0.00     0.535 C  
HETATM   36  C   UNL     2      -6.587   8.154  64.058  1.00  0.00    -0.067 C  
HETATM   37  C   UNL     2      -7.110   8.475  62.647  1.00  0.00    -0.090 C  
HETATM   38  C   UNL     2      -8.440   9.238  62.749  1.00  0.00    -0.211 C  
HETATM   39  C   UNL     2      -7.634   7.244  64.726  1.00  0.00    -0.104 C  
HETATM   40  N   UNL     2      -8.902   9.334  64.154  1.00  0.00    -0.183 NA 
HETATM   41  C   UNL     2      -7.887  10.140  64.883  1.00  0.00    -0.147 C  
HETATM   42  C   UNL     2      -6.499   9.448  64.907  1.00  0.00    -0.078 C  
BRANCH  42  43
HETATM   43  C   UNL     2      -5.408  10.377  64.426  1.00  0.00    -0.143 C  
HETATM   44  C   UNL     2      -5.197  10.699  63.143  1.00  0.00    -0.177 C  
ENDBRANCH  42  43
ENDBRANCH  32  35
ENDBRANCH  29  32
ENDBRANCH   4  22
TORSDOF 6
ENDMDL
MODEL      261
REMARK 921   NORMALIZED FREE ENERGY PREDICTED BY IDOCK:    1.39 KCAL/MOL
REMARK 922        TOTAL FREE ENERGY PREDICTED BY IDOCK:   -1.20 KCAL/MOL
REMARK 923 INTER-LIGAND FREE ENERGY PREDICTED BY IDOCK:   -1.81 KCAL/MOL
REMARK 924 INTRA-LIGAND FREE ENERGY PREDICTED BY IDOCK:    0.61 KCAL/MOL
REMARK 927      BINDING AFFINITY PREDICTED BY RF-SCORE:    0.00 PKD
ROOT
HETATM    1  C   UNL     1     -12.093   8.150  71.742  1.00  0.00    -0.357 C  
HETATM    2  C   UNL     1     -11.563   7.155  70.713  1.00  0.00    -0.358 C  
HETATM    3  C   UNL     2     -12.448  11.052  69.875  1.00  0.00    -0.219 C  
HETATM    4  O   UNL     2     -12.264   9.824  69.190  1.00  0.00     0.544 OA 
ENDROOT
BRANCH   2   5
HETATM    5  C   UNL     1     -10.019   6.887  70.710  1.00  0.00    -0.201 C  
HETATM    6  O   UNL     1      -9.257   9.231  70.772  1.00  0.00    -0.240 OA 
HETATM    7  C   UNL     1      -9.860   5.738  69.700  1.00  0.00    -0.176 C  
HETATM    8  C   UNL     1      -9.289   8.148  70.183  1.00  0.00    -0.159 C  
HETATM    9  H   UNL     1      -7.857   8.685  68.816  1.00  0.00     0.000 HD 
HETATM   10  N   UNL     1      -9.744   6.113  68.391  1.00  0.00    -0.120 N  
HETATM   11  O   UNL     1      -9.916   4.548  69.987  1.00  0.00    -0.220 OA 
HETATM   12  O   UNL     1      -8.224   7.023  67.003  1.00  0.00    -0.115 OA 
HETATM   13  N   UNL     1      -8.601   8.013  69.005  1.00  0.00    -0.136 N  
HETATM   14  C   UNL     1      -8.831   7.058  68.070  1.00  0.00    -0.124 C  
HETATM   15  H   UNL     1     -10.331   5.690  67.672  1.00  0.00     0.000 HD 
BRANCH   5  16
HETATM   16  C   UNL     1      -9.514   6.500  72.116  1.00  0.00    -0.148 A  
HETATM   17  C   UNL     1      -8.079   5.137  73.541  1.00  0.00    -0.110 A  
HETATM   18  C   UNL     1      -8.762   5.332  72.338  1.00  0.00    -0.125 A  
HETATM   19  C   UNL     1      -9.695   7.370  73.204  1.00  0.00    -0.281 A  
HETATM   20  C   UNL     1      -8.163   6.087  74.554  1.00  0.00    -0.112 A  
HETATM   21  C   UNL     1      -8.998   7.186  74.398  1.00  0.00    -0.230 A  
ENDBRANCH   5  16
ENDBRANCH   2   5
BRANCH   4  22
HETATM   22  C   UNL     2     -11.410   9.837  68.131  1.00  0.00     0.129 A  
HETATM   23  C   UNL     2     -11.213   8.822  67.217  1.00  0.00     0.716 A  
HETATM   24  C   UNL     2      -9.771  11.255  66.954  1.00  0.00    -0.215 A  
HETATM   25  C   UNL     2      -8.113  12.494  65.701  1.00  0.00     1.843 A  
HETATM   26  C   UNL     2     -10.299   9.017  66.178  1.00  0.00     0.000 A  
HETATM   27  C   UNL     2      -7.990  11.388  64.877  1.00  0.00     0.888 A  
HETATM   28  C   UNL     2     -10.752  11.049  67.950  1.00  0.00    -0.263 A  
HETATM   29  C   UNL     2      -9.004  12.455  66.785  1.00  0.00    -0.205 A  
HETATM   30  C   UNL     2      -9.554  10.185  66.051  1.00  0.00    -0.210 A  
HETATM   31  N   UNL     2      -8.679  10.246  65.042  1.00  0.00    -0.172 NA 
BRANCH  29  32
HETATM   32  C   UNL     2      -9.192  13.711  67.660  1.00  0.00    -0.213 C  
HETATM   33  H   UNL     2      -8.743  14.302  69.499  1.00  0.00     0.000 HD 
HETATM   34  O   UNL     2      -8.627  13.529  68.960  1.00  0.00     0.137 OA 
BRANCH  32  35
HETATM   35  C   UNL     2      -8.617  15.064  67.101  1.00  0.00    -0.223 C  
HETATM   36  C   UNL     2      -7.780  17.168  68.224  1.00  0.00    -0.220 C  
HETATM   37  C   UNL     2      -7.844  17.802  66.824  1.00  0.00    -0.262 C  
HETATM   38  C   UNL     2      -9.016  17.198  66.035  1.00  0.00    -0.106 C  
HETATM   39  C   UNL     2      -7.521  15.663  68.021  1.00  0.00    -0.134 C  
HETATM   40  N   UNL     2      -9.664  16.097  66.786  1.00  0.00    -0.233 NA 
HETATM   41  C   UNL     2     -10.240  16.702  68.017  1.00  0.00    -0.280 C  
HETATM   42  C   UNL     2      -9.148  17.302  68.940  1.00  0.00    -0.172 C  
BRANCH  42  43
HETATM   43  C   UNL     2      -9.462  18.733  69.313  1.00  0.00    -0.029 C  
HETATM   44  C   UNL     2     -10.611  19.358  69.024  1.00  0.00     0.299 C  
ENDBRANCH  42  43
ENDBRANCH  32  35
ENDBRANCH  29  32
ENDBRANCH   4  22
TORSDOF 6
ENDMDL
MODEL      262
REMARK 921   NORMALIZED FREE ENERGY PREDICTED BY IDOCK:    1.61 KCAL/MOL
REMARK 922        TOTAL FREE ENERGY PREDICTED BY IDOCK:   -0.91 KCAL/MOL
REMARK 923 INTER-LIGAND FREE ENERGY PREDICTED BY IDOCK:   -4.25 KCAL/MOL
REMARK 924 INTRA-LIGAND FREE ENERGY PREDICTED BY IDOCK:    3.34 KCAL/MOL
REMARK 927      BINDING AFFINITY PREDICTED BY RF-SCORE:    0.00 PKD
ROOT
HETATM    1  C   UNL     1     -11.301  13.236  68.772  1.00  0.00    -0.331 C  
HETATM    2  C   UNL     1      -9.831  13.279  69.183  1.00  0.00     0.387 C  
HETATM    3  C   UNL     2     -12.284  10.077  69.814  1.00  0.00     0.187 C  
HETATM    4  O   UNL     2     -11.056  10.598  70.296  1.00  0.00    -0.292 OA 
ENDROOT
BRANCH   2   5
HETATM    5  C   UNL     1      -8.770  12.998  68.064  1.00  0.00    -0.187 C  
HETATM    6  O   UNL     1      -9.984  14.008  66.170  1.00  0.00    -0.293 OA 
HETATM    7  C   UNL     1      -8.283  11.574  68.385  1.00  0.00    -0.152 C  
HETATM    8  C   UNL     1      -9.476  13.008  66.685  1.00  0.00    -0.256 C  
HETATM    9  H   UNL     1      -9.622  11.878  64.980  1.00  0.00     0.000 HD 
HETATM   10  N   UNL     1      -9.032  10.561  67.856  1.00  0.00    -0.135 N  
HETATM   11  O   UNL     1      -7.348  11.312  69.132  1.00  0.00    -0.119 OA 
HETATM   12  O   UNL     1      -9.403   9.566  65.872  1.00  0.00    -0.189 OA 
HETATM   13  N   UNL     1      -9.485  11.827  65.989  1.00  0.00    -0.229 N  
HETATM   14  C   UNL     1      -9.325  10.597  66.536  1.00  0.00    -0.167 C  
HETATM   15  H   UNL     1      -9.363   9.794  68.443  1.00  0.00     0.000 HD 
BRANCH   5  16
HETATM   16  C   UNL     1      -7.622  14.028  68.108  1.00  0.00    -0.141 A  
HETATM   17  C   UNL     1      -6.829  16.318  67.830  1.00  0.00    -0.152 A  
HETATM   18  C   UNL     1      -7.754  15.311  67.544  1.00  0.00    -0.200 A  
HETATM   19  C   UNL     1      -6.441  13.752  68.819  1.00  0.00    -0.096 A  
HETATM   20  C   UNL     1      -5.741  16.054  68.654  1.00  0.00    -0.105 A  
HETATM   21  C   UNL     1      -5.529  14.762  69.121  1.00  0.00    -0.095 A  
ENDBRANCH   5  16
ENDBRANCH   2   5
BRANCH   4  22
HETATM   22  C   UNL     2     -10.002   9.739  70.334  1.00  0.00    -0.233 A  
HETATM   23  C   UNL     2      -8.837   9.895  71.057  1.00  0.00     0.907 A  
HETATM   24  C   UNL     2      -9.209   7.571  69.467  1.00  0.00    -0.146 A  
HETATM   25  C   UNL     2      -8.262   5.486  68.687  1.00  0.00    -0.102 A  
HETATM   26  C   UNL     2      -7.859   8.899  70.985  1.00  0.00    -0.164 A  
HETATM   27  C   UNL     2      -7.134   5.782  69.433  1.00  0.00    -0.065 A  
HETATM   28  C   UNL     2     -10.203   8.564  69.618  1.00  0.00    -0.209 A  
HETATM   29  C   UNL     2      -9.338   6.388  68.668  1.00  0.00    -0.124 A  
HETATM   30  C   UNL     2      -8.003   7.770  70.185  1.00  0.00    -0.112 A  
HETATM   31  N   UNL     2      -6.987   6.902  70.162  1.00  0.00    -0.064 NA 
BRANCH  29  32
HETATM   32  C   UNL     2     -10.621   6.024  67.893  1.00  0.00    -0.267 C  
HETATM   33  H   UNL     2     -11.935   6.931  66.716  1.00  0.00     0.000 HD 
HETATM   34  O   UNL     2     -11.144   7.155  67.193  1.00  0.00    -0.326 OA 
BRANCH  32  35
HETATM   35  C   UNL     2     -10.517   4.852  66.849  1.00  0.00    -0.144 C  
HETATM   36  C   UNL     2      -8.594   3.400  66.085  1.00  0.00    -0.119 C  
HETATM   37  C   UNL     2      -9.527   2.967  64.941  1.00  0.00    -0.123 C  
HETATM   38  C   UNL     2     -10.432   4.142  64.538  1.00  0.00    -0.157 C  
HETATM   39  C   UNL     2      -9.494   3.768  67.279  1.00  0.00    -0.238 C  
HETATM   40  N   UNL     2     -10.245   5.303  65.440  1.00  0.00     0.212 NA 
HETATM   41  C   UNL     2      -8.840   5.760  65.260  1.00  0.00    -0.049 C  
HETATM   42  C   UNL     2      -7.814   4.680  65.690  1.00  0.00    -0.094 C  
BRANCH  42  43
HETATM   43  C   UNL     2      -6.796   4.418  64.604  1.00  0.00    -0.046 C  
HETATM   44  C   UNL     2      -6.369   5.337  63.727  1.00  0.00    -0.022 C  
ENDBRANCH  42  43
ENDBRANCH  32  35
ENDBRANCH  29  32
ENDBRANCH   4  22
TORSDOF 6
ENDMDL
MODEL      263
REMARK 921   NORMALIZED FREE ENERGY PREDICTED BY IDOCK:    1.66 KCAL/MOL
REMARK 922        TOTAL FREE ENERGY PREDICTED BY IDOCK:   -0.83 KCAL/MOL
REMARK 923 INTER-LIGAND FREE ENERGY PREDICTED BY IDOCK:   -3.49 KCAL/MOL
REMARK 924 INTRA-LIGAND FREE ENERGY PREDICTED BY IDOCK:    2.66 KCAL/MOL
REMARK 927      BINDING AFFINITY PREDICTED BY RF-SCORE:    0.00 PKD
ROOT
HETATM    1  C   UNL     1      -6.356  11.822  70.615  1.00  0.00     0.506 C  
HETATM    2  C   UNL     1      -5.791  11.977  69.205  1.00  0.00    -0.074 C  
HETATM    3  C   UNL     2      -6.585   8.379  70.963  1.00  0.00    -0.043 C  
HETATM    4  O   UNL     2      -5.816   8.902  69.892  1.00  0.00    -0.031 OA 
ENDROOT
BRANCH   2   5
HETATM    5  C   UNL     1      -6.810  12.313  68.063  1.00  0.00    -0.082 C  
HETATM    6  O   UNL     1      -8.887  12.112  69.377  1.00  0.00     0.688 OA 
HETATM    7  C   UNL     1      -6.238  11.567  66.846  1.00  0.00    -0.143 C  
HETATM    8  C   UNL     1      -8.195  11.724  68.432  1.00  0.00    -0.154 C  
HETATM    9  H   UNL     1      -9.690  10.582  67.616  1.00  0.00     0.000 HD 
HETATM   10  N   UNL     1      -6.615  10.258  66.724  1.00  0.00    -0.072 N  
HETATM   11  O   UNL     1      -5.427  12.040  66.059  1.00  0.00    -0.004 OA 
HETATM   12  O   UNL     1      -8.416   9.047  66.131  1.00  0.00    -0.119 OA 
HETATM   13  N   UNL     1      -8.683  10.739  67.612  1.00  0.00    -0.126 N  
HETATM   14  C   UNL     1      -7.932   9.958  66.798  1.00  0.00    -0.116 C  
HETATM   15  H   UNL     1      -5.920   9.526  66.582  1.00  0.00     0.000 HD 
BRANCH   5  16
HETATM   16  C   UNL     1      -6.901  13.835  67.822  1.00  0.00    -0.182 A  
HETATM   17  C   UNL     1      -5.812  16.007  67.609  1.00  0.00    -0.174 A  
HETATM   18  C   UNL     1      -5.819  14.694  68.088  1.00  0.00    -0.138 A  
HETATM   19  C   UNL     1      -8.039  14.395  67.215  1.00  0.00    -0.209 A  
HETATM   20  C   UNL     1      -6.897  16.494  66.888  1.00  0.00    -0.248 A  
HETATM   21  C   UNL     1      -8.024  15.699  66.720  1.00  0.00    -0.246 A  
ENDBRANCH   5  16
ENDBRANCH   2   5
BRANCH   4  22
HETATM   22  C   UNL     2      -5.957   8.292  68.684  1.00  0.00    -0.044 A  
HETATM   23  C   UNL     2      -5.144   8.450  67.581  1.00  0.00    -0.034 A  
HETATM   24  C   UNL     2      -7.356   6.672  67.459  1.00  0.00    -0.095 A  
HETATM   25  C   UNL     2      -8.638   5.135  66.100  1.00  0.00    -0.117 A  
HETATM   26  C   UNL     2      -5.433   7.728  66.420  1.00  0.00    -0.025 A  
HETATM   27  C   UNL     2      -7.765   5.411  65.061  1.00  0.00    -0.087 A  
HETATM   28  C   UNL     2      -6.993   7.365  68.636  1.00  0.00    -0.079 A  
HETATM   29  C   UNL     2      -8.469   5.776  67.337  1.00  0.00    -0.103 A  
HETATM   30  C   UNL     2      -6.533   6.880  66.324  1.00  0.00    -0.051 A  
HETATM   31  N   UNL     2      -6.736   6.271  65.152  1.00  0.00    -0.046 NA 
BRANCH  29  32
HETATM   32  C   UNL     2      -9.399   5.417  68.513  1.00  0.00    -0.118 C  
HETATM   33  H   UNL     2     -11.084   4.411  68.801  1.00  0.00     0.000 HD 
HETATM   34  O   UNL     2     -10.511   4.632  68.076  1.00  0.00     0.071 OA 
BRANCH  32  35
HETATM   35  C   UNL     2      -8.753   4.652  69.727  1.00  0.00    -0.081 C  
HETATM   36  C   UNL     2      -9.735   3.279  71.609  1.00  0.00    -0.234 C  
HETATM   37  C   UNL     2      -8.342   3.381  72.255  1.00  0.00    -0.081 C  
HETATM   38  C   UNL     2      -7.708   4.737  71.906  1.00  0.00    -0.098 C  
HETATM   39  C   UNL     2      -9.526   3.356  70.085  1.00  0.00    -0.244 C  
HETATM   40  N   UNL     2      -8.549   5.499  70.953  1.00  0.00    -0.126 NA 
HETATM   41  C   UNL     2      -9.829   5.790  71.652  1.00  0.00    -0.167 C  
HETATM   42  C   UNL     2     -10.606   4.497  72.011  1.00  0.00    -0.103 C  
BRANCH  42  43
HETATM   43  C   UNL     2     -10.990   4.469  73.472  1.00  0.00    -0.387 C  
HETATM   44  C   UNL     2     -10.527   5.322  74.396  1.00  0.00    -0.277 C  
ENDBRANCH  42  43
ENDBRANCH  32  35
ENDBRANCH  29  32
ENDBRANCH   4  22
TORSDOF 6
ENDMDL
MODEL      264
REMARK 921   NORMALIZED FREE ENERGY PREDICTED BY IDOCK:    1.74 KCAL/MOL
REMARK 922        TOTAL FREE ENERGY PREDICTED BY IDOCK:   -0.73 KCAL/MOL
REMARK 923 INTER-LIGAND FREE ENERGY PREDICTED BY IDOCK:   -0.63 KCAL/MOL
REMARK 924 INTRA-LIGAND FREE ENERGY PREDICTED BY IDOCK:   -0.09 KCAL/MOL
REMARK 927      BINDING AFFINITY PREDICTED BY RF-SCORE:    0.00 PKD
ROOT
HETATM    1  C   UNL     1      -9.437  12.050  64.412  1.00  0.00     0.125 C  
HETATM    2  C   UNL     1      -9.885  12.085  65.871  1.00  0.00    -0.259 C  
HETATM    3  C   UNL     2      -6.709   9.910  64.510  1.00  0.00    -0.124 C  
HETATM    4  O   UNL     2      -7.578   9.952  65.630  1.00  0.00    -0.108 OA 
ENDROOT
BRANCH   2   5
HETATM    5  C   UNL     1      -9.433  13.317  66.726  1.00  0.00    -0.257 C  
HETATM    6  O   UNL     1      -7.086  13.420  65.977  1.00  0.00     2.528 OA 
HETATM    7  C   UNL     1     -10.112  13.076  68.085  1.00  0.00    -0.237 C  
HETATM    8  C   UNL     1      -7.894  13.275  66.898  1.00  0.00     0.223 C  
HETATM    9  H   UNL     1      -6.467  13.414  68.365  1.00  0.00     0.000 HD 
HETATM   10  N   UNL     1      -9.421  12.283  68.959  1.00  0.00    -0.349 N  
HETATM   11  O   UNL     1     -11.234  13.470  68.381  1.00  0.00    -0.249 OA 
HETATM   12  O   UNL     1      -7.628  12.394  70.314  1.00  0.00     1.614 OA 
HETATM   13  N   UNL     1      -7.422  13.110  68.175  1.00  0.00    -0.117 N  
HETATM   14  C   UNL     1      -8.123  12.575  69.204  1.00  0.00     0.488 C  
HETATM   15  H   UNL     1      -9.873  11.491  69.415  1.00  0.00     0.000 HD 
BRANCH   5  16
HETATM   16  C   UNL     1      -9.883  14.645  66.080  1.00  0.00    -0.347 A  
HETATM   17  C   UNL     1     -11.270  15.846  64.474  1.00  0.00    -0.324 A  
HETATM   18  C   UNL     1     -10.637  14.673  64.892  1.00  0.00    -0.446 A  
HETATM   19  C   UNL     1      -9.647  15.870  66.727  1.00  0.00    -0.252 A  
HETATM   20  C   UNL     1     -11.134  17.016  65.213  1.00  0.00     0.097 A  
HETATM   21  C   UNL     1     -10.294  17.036  66.321  1.00  0.00    -0.309 A  
ENDBRANCH   5  16
ENDBRANCH   2   5
BRANCH   4  22
HETATM   22  C   UNL     2      -6.992   9.954  66.857  1.00  0.00    -0.088 A  
HETATM   23  C   UNL     2      -5.895  10.696  67.246  1.00  0.00    -0.046 A  
HETATM   24  C   UNL     2      -7.173   8.983  69.116  1.00  0.00    -0.067 A  
HETATM   25  C   UNL     2      -7.182   8.103  71.371  1.00  0.00    -0.074 A  
HETATM   26  C   UNL     2      -5.434  10.582  68.560  1.00  0.00    -0.037 A  
HETATM   27  C   UNL     2      -6.059   8.875  71.617  1.00  0.00    -0.065 A  
HETATM   28  C   UNL     2      -7.653   9.175  67.801  1.00  0.00    -0.085 A  
HETATM   29  C   UNL     2      -7.769   8.121  70.095  1.00  0.00    -0.085 A  
HETATM   30  C   UNL     2      -6.021   9.722  69.484  1.00  0.00    -0.037 A  
HETATM   31  N   UNL     2      -5.472   9.663  70.701  1.00  0.00    -0.043 NA 
BRANCH  29  32
HETATM   32  C   UNL     2      -9.059   7.316  69.842  1.00  0.00    -0.141 C  
HETATM   33  H   UNL     2     -11.018   7.596  69.976  1.00  0.00     0.000 HD 
HETATM   34  O   UNL     2     -10.224   8.093  70.132  1.00  0.00    -0.193 OA 
BRANCH  32  35
HETATM   35  C   UNL     2      -9.259   6.722  68.398  1.00  0.00    -0.123 C  
HETATM   36  C   UNL     2     -10.218   4.540  67.558  1.00  0.00    -0.023 C  
HETATM   37  C   UNL     2      -9.600   4.924  66.202  1.00  0.00    -0.183 C  
HETATM   38  C   UNL     2      -8.294   5.700  66.430  1.00  0.00    -0.112 C  
HETATM   39  C   UNL     2     -10.541   5.855  68.290  1.00  0.00    -0.310 C  
HETATM   40  N   UNL     2      -8.068   5.970  67.870  1.00  0.00    -0.105 NA 
HETATM   41  C   UNL     2      -7.904   4.647  68.531  1.00  0.00    -0.080 C  
HETATM   42  C   UNL     2      -9.183   3.778  68.425  1.00  0.00    -0.213 C  
BRANCH  42  43
HETATM   43  C   UNL     2      -8.876   2.404  67.876  1.00  0.00    -0.161 C  
HETATM   44  C   UNL     2      -7.669   1.823  67.915  1.00  0.00    -0.058 C  
ENDBRANCH  42  43
ENDBRANCH  32  35
ENDBRANCH  29  32
ENDBRANCH   4  22
TORSDOF 6
ENDMDL
MODEL      265
REMARK 921   NORMALIZED FREE ENERGY PREDICTED BY IDOCK:    1.89 KCAL/MOL
REMARK 922        TOTAL FREE ENERGY PREDICTED BY IDOCK:   -0.52 KCAL/MOL
REMARK 923 INTER-LIGAND FREE ENERGY PREDICTED BY IDOCK:   -3.71 KCAL/MOL
REMARK 924 INTRA-LIGAND FREE ENERGY PREDICTED BY IDOCK:    3.19 KCAL/MOL
REMARK 927      BINDING AFFINITY PREDICTED BY RF-SCORE:    0.00 PKD
ROOT
HETATM    1  C   UNL     1     -10.658  17.143  67.052  1.00  0.00    -0.227 C  
HETATM    2  C   UNL     1     -11.374  16.929  68.383  1.00  0.00     0.019 C  
HETATM    3  C   UNL     2     -10.764  13.985  65.621  1.00  0.00    -0.303 C  
HETATM    4  O   UNL     2     -11.599  14.252  66.736  1.00  0.00    -0.356 OA 
ENDROOT
BRANCH   2   5
HETATM    5  C   UNL     1     -10.476  16.742  69.653  1.00  0.00    -0.209 C  
HETATM    6  O   UNL     1     -10.206  19.120  70.245  1.00  0.00     0.635 OA 
HETATM    7  C   UNL     1      -9.502  15.626  69.238  1.00  0.00    -0.264 C  
HETATM    8  C   UNL     1      -9.689  18.051  69.913  1.00  0.00     0.979 C  
HETATM    9  H   UNL     1      -7.777  18.693  70.286  1.00  0.00     0.000 HD 
HETATM   10  N   UNL     1      -8.381  16.038  68.571  1.00  0.00    -0.181 N  
HETATM   11  O   UNL     1      -9.711  14.428  69.391  1.00  0.00     0.002 OA 
HETATM   12  O   UNL     1      -6.420  17.058  68.993  1.00  0.00    -0.178 OA 
HETATM   13  N   UNL     1      -8.324  17.980  69.804  1.00  0.00     1.026 N  
HETATM   14  C   UNL     1      -7.644  17.037  69.107  1.00  0.00    -0.140 C  
HETATM   15  H   UNL     1      -8.108  15.602  67.690  1.00  0.00     0.000 HD 
BRANCH   5  16
HETATM   16  C   UNL     1     -11.319  16.348  70.884  1.00  0.00    -0.215 A  
HETATM   17  C   UNL     1     -12.391  14.633  72.247  1.00  0.00    -0.365 A  
HETATM   18  C   UNL     1     -11.877  15.063  71.021  1.00  0.00    -0.373 A  
HETATM   19  C   UNL     1     -11.459  17.234  71.967  1.00  0.00     1.241 A  
HETATM   20  C   UNL     1     -12.390  15.487  73.345  1.00  0.00    -0.638 A  
HETATM   21  C   UNL     1     -11.955  16.798  73.195  1.00  0.00    -0.219 A  
ENDBRANCH   5  16
ENDBRANCH   2   5
BRANCH   4  22
HETATM   22  C   UNL     2     -11.678  13.282  67.686  1.00  0.00    -0.366 A  
HETATM   23  C   UNL     2     -12.379  13.345  68.874  1.00  0.00     0.013 A  
HETATM   24  C   UNL     2     -10.938  10.989  68.211  1.00  0.00    -0.287 A  
HETATM   25  C   UNL     2     -10.277   8.766  68.900  1.00  0.00    -0.221 A  
HETATM   26  C   UNL     2     -12.359  12.241  69.729  1.00  0.00    -0.081 A  
HETATM   27  C   UNL     2     -10.992   8.975  70.068  1.00  0.00    -0.214 A  
HETATM   28  C   UNL     2     -11.037  12.097  67.340  1.00  0.00    -0.330 A  
HETATM   29  C   UNL     2     -10.213   9.783  67.935  1.00  0.00    -0.237 A  
HETATM   30  C   UNL     2     -11.630  11.090  69.444  1.00  0.00    -0.312 A  
HETATM   31  N   UNL     2     -11.650  10.111  70.354  1.00  0.00    -0.294 NA 
BRANCH  29  32
HETATM   32  C   UNL     2      -9.475   9.524  66.606  1.00  0.00    -0.170 C  
HETATM   33  H   UNL     2      -7.670   9.828  65.843  1.00  0.00     0.000 HD 
HETATM   34  O   UNL     2      -8.124   9.987  66.662  1.00  0.00    -0.116 OA 
BRANCH  32  35
HETATM   35  C   UNL     2      -9.424   8.037  66.095  1.00  0.00    -0.122 C  
HETATM   36  C   UNL     2     -10.188   5.849  67.103  1.00  0.00    -0.247 C  
HETATM   37  C   UNL     2      -9.365   5.181  65.988  1.00  0.00    -0.165 C  
HETATM   38  C   UNL     2      -8.130   6.038  65.672  1.00  0.00    -0.126 C  
HETATM   39  C   UNL     2     -10.653   7.212  66.559  1.00  0.00     0.023 C  
HETATM   40  N   UNL     2      -8.148   7.313  66.427  1.00  0.00    -0.114 NA 
HETATM   41  C   UNL     2      -8.067   6.956  67.869  1.00  0.00    -0.114 C  
HETATM   42  C   UNL     2      -9.294   6.132  68.337  1.00  0.00    -0.116 C  
BRANCH  42  43
HETATM   43  C   UNL     2      -8.873   4.864  69.044  1.00  0.00    -0.117 C  
HETATM   44  C   UNL     2      -9.301   3.636  68.719  1.00  0.00    -0.231 C  
ENDBRANCH  42  43
ENDBRANCH  32  35
ENDBRANCH  29  32
ENDBRANCH   4  22
TORSDOF 6
ENDMDL
MODEL      266
REMARK 921   NORMALIZED FREE ENERGY PREDICTED BY IDOCK:    1.97 KCAL/MOL
REMARK 922        TOTAL FREE ENERGY PREDICTED BY IDOCK:   -0.42 KCAL/MOL
REMARK 923 INTER-LIGAND FREE ENERGY PREDICTED BY IDOCK:   -0.89 KCAL/MOL
REMARK 924 INTRA-LIGAND FREE ENERGY PREDICTED BY IDOCK:    0.47 KCAL/MOL
REMARK 927      BINDING AFFINITY PREDICTED BY RF-SCORE:    0.00 PKD
ROOT
HETATM    1  C   UNL     1     -12.976  11.502  65.843  1.00  0.00     4.653 C  
HETATM    2  C   UNL     1     -12.610  12.984  65.845  1.00  0.00    -0.180 C  
HETATM    3  C   UNL     2     -11.367  10.323  68.680  1.00  0.00    -0.166 C  
HETATM    4  O   UNL     2     -11.509  11.725  68.515  1.00  0.00    -0.245 OA 
ENDROOT
BRANCH   2   5
HETATM    5  C   UNL     1     -11.441  13.431  64.902  1.00  0.00    -0.346 C  
HETATM    6  O   UNL     1      -9.820  14.086  66.641  1.00  0.00    -0.266 OA 
HETATM    7  C   UNL     1     -12.163  14.187  63.774  1.00  0.00    -0.139 C  
HETATM    8  C   UNL     1     -10.515  14.405  65.672  1.00  0.00    -0.334 C  
HETATM    9  H   UNL     1      -9.621  16.238  65.451  1.00  0.00     0.000 HD 
HETATM   10  N   UNL     1     -12.406  15.511  64.012  1.00  0.00    -0.846 N  
HETATM   11  O   UNL     1     -12.591  13.666  62.751  1.00  0.00    -0.456 OA 
HETATM   12  O   UNL     1     -11.295  17.467  64.082  1.00  0.00    -0.582 OA 
HETATM   13  N   UNL     1     -10.444  15.690  65.200  1.00  0.00    -0.408 N  
HETATM   14  C   UNL     1     -11.381  16.290  64.425  1.00  0.00    -0.129 C  
HETATM   15  H   UNL     1     -13.339  15.903  63.880  1.00  0.00     0.000 HD 
BRANCH   5  16
HETATM   16  C   UNL     1     -10.651  12.215  64.373  1.00  0.00    -0.363 A  
HETATM   17  C   UNL     1      -9.199  11.212  62.690  1.00  0.00    -0.357 A  
HETATM   18  C   UNL     1     -10.138  12.176  63.063  1.00  0.00     0.058 A  
HETATM   19  C   UNL     1     -10.320  11.151  65.230  1.00  0.00    -0.336 A  
HETATM   20  C   UNL     1      -8.782  10.251  63.605  1.00  0.00    -0.211 A  
HETATM   21  C   UNL     1      -9.368  10.200  64.864  1.00  0.00    -0.310 A  
ENDBRANCH   5  16
ENDBRANCH   2   5
BRANCH   4  22
HETATM   22  C   UNL     2     -10.426  12.489  68.822  1.00  0.00    -0.144 A  
HETATM   23  C   UNL     2     -10.434  13.711  69.463  1.00  0.00     0.305 A  
HETATM   24  C   UNL     2      -7.965  12.544  68.681  1.00  0.00    -0.029 A  
HETATM   25  C   UNL     2      -5.558  12.780  68.596  1.00  0.00    -0.063 A  
HETATM   26  C   UNL     2      -9.217  14.352  69.709  1.00  0.00     0.727 A  
HETATM   27  C   UNL     2      -5.711  14.009  69.214  1.00  0.00    -0.084 A  
HETATM   28  C   UNL     2      -9.208  11.895  68.510  1.00  0.00    -0.136 A  
HETATM   29  C   UNL     2      -6.692  12.010  68.293  1.00  0.00    -0.061 A  
HETATM   30  C   UNL     2      -7.998  13.818  69.303  1.00  0.00     0.367 A  
HETATM   31  N   UNL     2      -6.900  14.537  69.556  1.00  0.00    -0.149 NA 
BRANCH  29  32
HETATM   32  C   UNL     2      -6.516  10.611  67.668  1.00  0.00    -0.057 C  
HETATM   33  H   UNL     2      -5.086   9.571  66.770  1.00  0.00     0.000 HD 
HETATM   34  O   UNL     2      -5.194  10.432  67.155  1.00  0.00    -0.040 OA 
BRANCH  32  35
HETATM   35  C   UNL     2      -6.815   9.373  68.592  1.00  0.00    -0.061 C  
HETATM   36  C   UNL     2      -5.592   7.198  68.996  1.00  0.00    -0.018 C  
HETATM   37  C   UNL     2      -6.879   6.740  69.704  1.00  0.00    -0.055 C  
HETATM   38  C   UNL     2      -8.100   7.368  69.015  1.00  0.00    -0.127 C  
HETATM   39  C   UNL     2      -5.519   8.729  69.150  1.00  0.00    -0.036 C  
HETATM   40  N   UNL     2      -7.693   8.328  67.961  1.00  0.00    -0.105 NA 
HETATM   41  C   UNL     2      -6.971   7.543  66.924  1.00  0.00    -0.079 C  
HETATM   42  C   UNL     2      -5.674   6.897  67.478  1.00  0.00    -0.020 C  
BRANCH  42  43
HETATM   43  C   UNL     2      -5.623   5.416  67.184  1.00  0.00    -0.013 C  
HETATM   44  C   UNL     2      -6.552   4.532  67.574  1.00  0.00    -0.047 C  
ENDBRANCH  42  43
ENDBRANCH  32  35
ENDBRANCH  29  32
ENDBRANCH   4  22
TORSDOF 6
ENDMDL
MODEL      267
REMARK 921   NORMALIZED FREE ENERGY PREDICTED BY IDOCK:    2.13 KCAL/MOL
REMARK 922        TOTAL FREE ENERGY PREDICTED BY IDOCK:   -0.20 KCAL/MOL
REMARK 923 INTER-LIGAND FREE ENERGY PREDICTED BY IDOCK:   -2.09 KCAL/MOL
REMARK 924 INTRA-LIGAND FREE ENERGY PREDICTED BY IDOCK:    1.88 KCAL/MOL
REMARK 927      BINDING AFFINITY PREDICTED BY RF-SCORE:    0.00 PKD
ROOT
HETATM    1  C   UNL     1      -7.662  12.996  66.266  1.00  0.00     1.501 C  
HETATM    2  C   UNL     1      -6.878  12.685  67.539  1.00  0.00    -0.151 C  
HETATM    3  C   UNL     2      -7.082  16.389  65.833  1.00  0.00     1.350 C  
HETATM    4  O   UNL     2      -6.267  15.673  66.747  1.00  0.00    -0.140 OA 
ENDROOT
BRANCH   2   5
HETATM    5  C   UNL     1      -7.691  12.605  68.875  1.00  0.00     0.094 C  
HETATM    6  O   UNL     1      -8.445  14.951  68.966  1.00  0.00    -0.182 OA 
HETATM    7  C   UNL     1      -6.805  11.732  69.780  1.00  0.00     0.090 C  
HETATM    8  C   UNL     1      -7.810  14.027  69.480  1.00  0.00     0.432 C  
HETATM    9  H   UNL     1      -7.532  15.013  71.257  1.00  0.00     0.000 HD 
HETATM   10  N   UNL     1      -5.832  12.395  70.473  1.00  0.00    -0.249 N  
HETATM   11  O   UNL     1      -6.868  10.509  69.842  1.00  0.00    -0.120 OA 
HETATM   12  O   UNL     1      -5.630  13.758  72.252  1.00  0.00    -0.384 OA 
HETATM   13  N   UNL     1      -7.198  14.235  70.689  1.00  0.00     0.726 N  
HETATM   14  C   UNL     1      -6.183  13.488  71.189  1.00  0.00     0.418 C  
HETATM   15  H   UNL     1      -4.864  12.075  70.451  1.00  0.00     0.000 HD 
BRANCH   5  16
HETATM   16  C   UNL     1      -9.084  11.981  68.649  1.00  0.00    -0.030 A  
HETATM   17  C   UNL     1     -11.489  12.243  68.336  1.00  0.00    -0.356 A  
HETATM   18  C   UNL     1     -10.267  12.727  68.809  1.00  0.00    -0.094 A  
HETATM   19  C   UNL     1      -9.208  10.669  68.160  1.00  0.00    -0.148 A  
HETATM   20  C   UNL     1     -11.558  10.994  67.727  1.00  0.00    -0.277 A  
HETATM   21  C   UNL     1     -10.424  10.193  67.670  1.00  0.00    -0.293 A  
ENDBRANCH   5  16
ENDBRANCH   2   5
BRANCH   4  22
HETATM   22  C   UNL     2      -5.998  16.284  67.933  1.00  0.00    -0.127 A  
HETATM   23  C   UNL     2      -5.353  15.728  69.019  1.00  0.00    -0.103 A  
HETATM   24  C   UNL     2      -6.233  18.427  69.130  1.00  0.00    -0.245 A  
HETATM   25  C   UNL     2      -6.408  20.440  70.461  1.00  0.00    -0.112 A  
HETATM   26  C   UNL     2      -5.150  16.513  70.157  1.00  0.00    -0.175 A  
HETATM   27  C   UNL     2      -5.780  19.752  71.485  1.00  0.00    -0.300 A  
HETATM   28  C   UNL     2      -6.359  17.626  67.973  1.00  0.00    -0.166 A  
HETATM   29  C   UNL     2      -6.672  19.787  69.246  1.00  0.00    -0.383 A  
HETATM   30  C   UNL     2      -5.605  17.825  70.249  1.00  0.00    -0.239 A  
HETATM   31  N   UNL     2      -5.391  18.468  71.401  1.00  0.00    -0.333 NA 
BRANCH  29  32
HETATM   32  C   UNL     2      -7.308  20.574  68.083  1.00  0.00    -0.103 C  
HETATM   33  H   UNL     2      -7.116  20.698  66.113  1.00  0.00     0.000 HD 
HETATM   34  O   UNL     2      -6.724  20.213  66.829  1.00  0.00    -0.207 OA 
BRANCH  32  35
HETATM   35  C   UNL     2      -8.867  20.454  67.908  1.00  0.00    -0.080 C  
HETATM   36  C   UNL     2     -10.515  18.607  68.421  1.00  0.00    -0.259 C  
HETATM   37  C   UNL     2     -11.513  19.421  67.579  1.00  0.00     0.579 C  
HETATM   38  C   UNL     2     -10.767  20.140  66.444  1.00  0.00    -0.116 C  
HETATM   39  C   UNL     2      -9.523  19.613  69.035  1.00  0.00    -0.333 C  
HETATM   40  N   UNL     2      -9.301  19.954  66.558  1.00  0.00    -0.381 NA 
HETATM   41  C   UNL     2      -9.041  18.499  66.390  1.00  0.00    -0.269 C  
HETATM   42  C   UNL     2      -9.694  17.655  67.514  1.00  0.00    -0.280 C  
BRANCH  42  43
HETATM   43  C   UNL     2     -10.537  16.535  66.948  1.00  0.00    -0.238 C  
HETATM   44  C   UNL     2     -10.491  16.118  65.676  1.00  0.00    -0.402 C  
ENDBRANCH  42  43
ENDBRANCH  32  35
ENDBRANCH  29  32
ENDBRANCH   4  22
TORSDOF 6
ENDMDL
MODEL      268
REMARK 921   NORMALIZED FREE ENERGY PREDICTED BY IDOCK:    2.38 KCAL/MOL
REMARK 922        TOTAL FREE ENERGY PREDICTED BY IDOCK:    0.14 KCAL/MOL
REMARK 923 INTER-LIGAND FREE ENERGY PREDICTED BY IDOCK:   -0.68 KCAL/MOL
REMARK 924 INTRA-LIGAND FREE ENERGY PREDICTED BY IDOCK:    0.82 KCAL/MOL
REMARK 927      BINDING AFFINITY PREDICTED BY RF-SCORE:    0.00 PKD
ROOT
HETATM    1  C   UNL     1      -7.343  11.348  66.809  1.00  0.00    -0.135 C  
HETATM    2  C   UNL     1      -8.262  10.225  67.283  1.00  0.00    -0.121 C  
HETATM    3  C   UNL     2      -8.300  14.005  68.824  1.00  0.00    -0.048 C  
HETATM    4  O   UNL     2      -8.724  12.699  69.179  1.00  0.00     0.403 OA 
ENDROOT
BRANCH   2   5
HETATM    5  C   UNL     1      -9.532   9.929  66.414  1.00  0.00    -0.234 C  
HETATM    6  O   UNL     1     -11.188   9.824  68.238  1.00  0.00    -0.155 OA 
HETATM    7  C   UNL     1      -9.023   8.918  65.372  1.00  0.00    -0.182 C  
HETATM    8  C   UNL     1     -10.610   9.262  67.304  1.00  0.00    -0.233 C  
HETATM    9  H   UNL     1     -11.868   7.642  67.310  1.00  0.00     0.000 HD 
HETATM   10  N   UNL     1      -9.048   7.607  65.760  1.00  0.00    -0.381 N  
HETATM   11  O   UNL     1      -8.535   9.221  64.290  1.00  0.00    -0.171 OA 
HETATM   12  O   UNL     1     -10.534   5.946  66.072  1.00  0.00     0.036 OA 
HETATM   13  N   UNL     1     -10.960   7.975  66.986  1.00  0.00    -0.044 N  
HETATM   14  C   UNL     1     -10.196   7.110  66.275  1.00  0.00     0.241 C  
HETATM   15  H   UNL     1      -8.221   7.018  65.663  1.00  0.00     0.000 HD 
BRANCH   5  16
HETATM   16  C   UNL     1     -10.075  11.216  65.757  1.00  0.00    -0.299 A  
HETATM   17  C   UNL     1     -11.226  13.358  65.945  1.00  0.00    -0.314 A  
HETATM   18  C   UNL     1     -10.965  12.074  66.429  1.00  0.00    -0.337 A  
HETATM   19  C   UNL     1      -9.601  11.631  64.500  1.00  0.00    -0.135 A  
HETATM   20  C   UNL     1     -10.630  13.795  64.767  1.00  0.00    -0.444 A  
HETATM   21  C   UNL     1      -9.845  12.920  64.027  1.00  0.00     0.177 A  
ENDBRANCH   5  16
ENDBRANCH   2   5
BRANCH   4  22
HETATM   22  C   UNL     2     -10.013  12.567  69.592  1.00  0.00     1.394 A  
HETATM   23  C   UNL     2     -11.041  13.465  69.387  1.00  0.00    -0.160 A  
HETATM   24  C   UNL     2     -11.545  11.036  70.771  1.00  0.00    -0.159 A  
HETATM   25  C   UNL     2     -13.175   9.674  71.930  1.00  0.00    -0.538 A  
HETATM   26  C   UNL     2     -12.314  13.156  69.873  1.00  0.00    -0.201 A  
HETATM   27  C   UNL     2     -14.103  10.672  71.685  1.00  0.00     0.871 A  
HETATM   28  C   UNL     2     -10.289  11.350  70.206  1.00  0.00     1.469 A  
HETATM   29  C   UNL     2     -11.851   9.834  71.491  1.00  0.00    -0.476 A  
HETATM   30  C   UNL     2     -12.577  11.990  70.586  1.00  0.00    -0.168 A  
HETATM   31  N   UNL     2     -13.823  11.817  71.039  1.00  0.00     1.450 NA 
BRANCH  29  32
HETATM   32  C   UNL     2     -10.836   8.692  71.702  1.00  0.00    -0.304 C  
HETATM   33  H   UNL     2     -10.837   6.709  71.721  1.00  0.00     0.000 HD 
HETATM   34  O   UNL     2     -11.462   7.412  71.590  1.00  0.00    -0.251 OA 
BRANCH  32  35
HETATM   35  C   UNL     2      -9.581   8.668  70.755  1.00  0.00    -0.188 C  
HETATM   36  C   UNL     2      -7.886   6.877  70.197  1.00  0.00    -0.106 C  
HETATM   37  C   UNL     2      -7.069   8.012  69.556  1.00  0.00    -0.058 C  
HETATM   38  C   UNL     2      -7.287   9.314  70.342  1.00  0.00    -0.111 C  
HETATM   39  C   UNL     2      -9.369   7.280  70.094  1.00  0.00    -0.155 C  
HETATM   40  N   UNL     2      -8.309   9.143  71.401  1.00  0.00    -0.337 NA 
HETATM   41  C   UNL     2      -7.764   8.147  72.362  1.00  0.00    -0.122 C  
HETATM   42  C   UNL     2      -7.551   6.758  71.706  1.00  0.00    -0.095 C  
BRANCH  42  43
HETATM   43  C   UNL     2      -6.150   6.241  71.943  1.00  0.00    -0.041 C  
HETATM   44  C   UNL     2      -5.291   5.904  70.972  1.00  0.00    -0.013 C  
ENDBRANCH  42  43
ENDBRANCH  32  35
ENDBRANCH  29  32
ENDBRANCH   4  22
TORSDOF 6
ENDMDL
MODEL      269
REMARK 921   NORMALIZED FREE ENERGY PREDICTED BY IDOCK:    2.51 KCAL/MOL
REMARK 922        TOTAL FREE ENERGY PREDICTED BY IDOCK:    0.31 KCAL/MOL
REMARK 923 INTER-LIGAND FREE ENERGY PREDICTED BY IDOCK:    0.59 KCAL/MOL
REMARK 924 INTRA-LIGAND FREE ENERGY PREDICTED BY IDOCK:   -0.27 KCAL/MOL
REMARK 927      BINDING AFFINITY PREDICTED BY RF-SCORE:    0.00 PKD
ROOT
HETATM    1  C   UNL     1     -10.714  15.837  69.413  1.00  0.00    -0.266 C  
HETATM    2  C   UNL     1      -9.464  15.119  69.916  1.00  0.00     0.047 C  
HETATM    3  C   UNL     2     -13.027  13.262  69.194  1.00  0.00     1.516 C  
HETATM    4  O   UNL     2     -11.828  13.036  69.917  1.00  0.00    -0.322 OA 
ENDROOT
BRANCH   2   5
HETATM    5  C   UNL     1      -8.378  14.747  68.850  1.00  0.00    -0.163 C  
HETATM    6  O   UNL     1      -6.581  16.236  69.645  1.00  0.00    -0.201 OA 
HETATM    7  C   UNL     1      -9.183  14.647  67.543  1.00  0.00    -0.192 C  
HETATM    8  C   UNL     1      -7.356  15.907  68.744  1.00  0.00    -0.159 C  
HETATM    9  H   UNL     1      -6.437  17.074  67.330  1.00  0.00     0.000 HD 
HETATM   10  N   UNL     1      -9.366  15.823  66.870  1.00  0.00    -0.218 N  
HETATM   11  O   UNL     1      -9.722  13.625  67.135  1.00  0.00    -0.232 OA 
HETATM   12  O   UNL     1      -8.199  17.254  65.584  1.00  0.00    -0.467 OA 
HETATM   13  N   UNL     1      -7.295  16.566  67.543  1.00  0.00    -0.133 N  
HETATM   14  C   UNL     1      -8.284  16.595  66.617  1.00  0.00    -0.266 C  
HETATM   15  H   UNL     1     -10.295  16.111  66.565  1.00  0.00     0.000 HD 
BRANCH   5  16
HETATM   16  C   UNL     1      -7.676  13.419  69.203  1.00  0.00     0.260 A  
HETATM   17  C   UNL     1      -7.016  11.153  68.589  1.00  0.00    -0.081 A  
HETATM   18  C   UNL     1      -7.859  12.255  68.433  1.00  0.00    -0.151 A  
HETATM   19  C   UNL     1      -6.736  13.364  70.246  1.00  0.00     0.443 A  
HETATM   20  C   UNL     1      -5.999  11.179  69.538  1.00  0.00    -0.072 A  
HETATM   21  C   UNL     1      -5.881  12.271  70.389  1.00  0.00    -0.152 A  
ENDBRANCH   5  16
ENDBRANCH   2   5
BRANCH   4  22
HETATM   22  C   UNL     2     -11.215  11.837  69.723  1.00  0.00    -0.090 A  
HETATM   23  C   UNL     2     -10.678  11.018  70.696  1.00  0.00     1.047 A  
HETATM   24  C   UNL     2     -10.589  10.217  67.973  1.00  0.00    -0.273 A  
HETATM   25  C   UNL     2      -9.872   8.538  66.385  1.00  0.00    -0.327 A  
HETATM   26  C   UNL     2     -10.096   9.807  70.314  1.00  0.00    -0.323 A  
HETATM   27  C   UNL     2      -9.345   7.832  67.453  1.00  0.00    -0.141 A  
HETATM   28  C   UNL     2     -11.231  11.400  68.403  1.00  0.00    -0.324 A  
HETATM   29  C   UNL     2     -10.502   9.772  66.612  1.00  0.00    -0.233 A  
HETATM   30  C   UNL     2     -10.007   9.411  68.983  1.00  0.00    -0.177 A  
HETATM   31  N   UNL     2      -9.393   8.251  68.729  1.00  0.00    -0.144 NA 
BRANCH  29  32
HETATM   32  C   UNL     2     -11.149  10.524  65.432  1.00  0.00     0.532 C  
HETATM   33  H   UNL     2     -12.063  12.255  65.116  1.00  0.00     0.000 HD 
HETATM   34  O   UNL     2     -11.664  11.793  65.843  1.00  0.00    -0.397 OA 
BRANCH  32  35
HETATM   35  C   UNL     2     -10.246  10.788  64.171  1.00  0.00    -0.344 C  
HETATM   36  C   UNL     2      -8.062   9.788  63.385  1.00  0.00    -0.151 C  
HETATM   37  C   UNL     2      -8.017  10.960  62.389  1.00  0.00    -0.200 C  
HETATM   38  C   UNL     2      -8.655  12.205  63.026  1.00  0.00     1.835 C  
HETATM   39  C   UNL     2      -9.548   9.498  63.667  1.00  0.00     0.513 C  
HETATM   40  N   UNL     2      -9.243  11.894  64.351  1.00  0.00     0.221 NA 
HETATM   41  C   UNL     2      -8.116  11.490  65.233  1.00  0.00     0.702 C  
HETATM   42  C   UNL     2      -7.415  10.200  64.733  1.00  0.00    -0.136 C  
BRANCH  42  43
HETATM   43  C   UNL     2      -5.920  10.390  64.616  1.00  0.00    -0.109 C  
HETATM   44  C   UNL     2      -5.164  11.028  65.520  1.00  0.00    -0.084 C  
ENDBRANCH  42  43
ENDBRANCH  32  35
ENDBRANCH  29  32
ENDBRANCH   4  22
TORSDOF 6
ENDMDL
MODEL      270
REMARK 921   NORMALIZED FREE ENERGY PREDICTED BY IDOCK:    2.55 KCAL/MOL
REMARK 922        TOTAL FREE ENERGY PREDICTED BY IDOCK:    0.37 KCAL/MOL
REMARK 923 INTER-LIGAND FREE ENERGY PREDICTED BY IDOCK:   -2.55 KCAL/MOL
REMARK 924 INTRA-LIGAND FREE ENERGY PREDICTED BY IDOCK:    2.92 KCAL/MOL
REMARK 927      BINDING AFFINITY PREDICTED BY RF-SCORE:    0.00 PKD
ROOT
HETATM    1  C   UNL     1      -8.119  15.889  70.565  1.00  0.00     1.960 C  
HETATM    2  C   UNL     1      -7.720  16.265  69.140  1.00  0.00    -0.229 C  
HETATM    3  C   UNL     2      -6.520  12.845  71.019  1.00  0.00     1.454 C  
HETATM    4  O   UNL     2      -6.139  13.653  69.918  1.00  0.00    -0.125 OA 
ENDROOT
BRANCH   2   5
HETATM    5  C   UNL     1      -8.767  15.981  68.009  1.00  0.00    -0.171 C  
HETATM    6  O   UNL     1     -10.609  15.168  69.433  1.00  0.00    -0.235 OA 
HETATM    7  C   UNL     1      -7.920  15.347  66.892  1.00  0.00    -0.195 C  
HETATM    8  C   UNL     1      -9.801  14.950  68.526  1.00  0.00    -0.217 C  
HETATM    9  H   UNL     1     -10.692  13.191  67.961  1.00  0.00     0.000 HD 
HETATM   10  N   UNL     1      -7.733  13.997  66.985  1.00  0.00    -0.338 N  
HETATM   11  O   UNL     1      -7.355  15.978  66.006  1.00  0.00     0.376 OA 
HETATM   12  O   UNL     1      -8.879  12.087  66.664  1.00  0.00    -0.198 OA 
HETATM   13  N   UNL     1      -9.834  13.737  67.887  1.00  0.00    -0.226 N  
HETATM   14  C   UNL     1      -8.817  13.207  67.164  1.00  0.00    -0.222 C  
HETATM   15  H   UNL     1      -6.798  13.593  66.922  1.00  0.00     0.000 HD 
BRANCH   5  16
HETATM   16  C   UNL     1      -9.461  17.279  67.547  1.00  0.00    -0.245 A  
HETATM   17  C   UNL     1      -9.822  19.679  67.785  1.00  0.00    -0.498 A  
HETATM   18  C   UNL     1      -9.441  18.450  68.328  1.00  0.00    -0.342 A  
HETATM   19  C   UNL     1     -10.040  17.363  66.269  1.00  0.00    -0.328 A  
HETATM   20  C   UNL     1     -10.260  19.757  66.468  1.00  0.00    -0.606 A  
HETATM   21  C   UNL     1     -10.402  18.594  65.721  1.00  0.00    -0.232 A  
ENDBRANCH   5  16
ENDBRANCH   2   5
BRANCH   4  22
HETATM   22  C   UNL     2      -5.943  13.016  68.732  1.00  0.00    -0.076 A  
HETATM   23  C   UNL     2      -5.301  13.522  67.620  1.00  0.00     0.004 A  
HETATM   24  C   UNL     2      -6.340  10.879  67.567  1.00  0.00    -0.057 A  
HETATM   25  C   UNL     2      -6.674   8.866  66.266  1.00  0.00    -0.074 A  
HETATM   26  C   UNL     2      -5.180  12.715  66.485  1.00  0.00     1.156 A  
HETATM   27  C   UNL     2      -6.039   9.506  65.215  1.00  0.00    -0.067 A  
HETATM   28  C   UNL     2      -6.383  11.696  68.719  1.00  0.00    -0.056 A  
HETATM   29  C   UNL     2      -6.861   9.546  67.480  1.00  0.00    -0.083 A  
HETATM   30  C   UNL     2      -5.713  11.432  66.423  1.00  0.00    -0.116 A  
HETATM   31  N   UNL     2      -5.573  10.766  65.272  1.00  0.00    -0.136 NA 
BRANCH  29  32
HETATM   32  C   UNL     2      -7.506   8.809  68.672  1.00  0.00    -0.092 C  
HETATM   33  H   UNL     2      -8.753   9.224  70.156  1.00  0.00     0.000 HD 
HETATM   34  O   UNL     2      -8.357   9.678  69.422  1.00  0.00    -0.121 OA 
BRANCH  32  35
HETATM   35  C   UNL     2      -8.348   7.521  68.344  1.00  0.00    -0.125 C  
HETATM   36  C   UNL     2     -10.825   7.023  68.428  1.00  0.00    -0.191 C  
HETATM   37  C   UNL     2     -10.416   5.548  68.275  1.00  0.00    -0.225 C  
HETATM   38  C   UNL     2      -9.076   5.306  68.987  1.00  0.00    -0.115 C  
HETATM   39  C   UNL     2      -9.734   7.863  67.737  1.00  0.00    -0.189 C  
HETATM   40  N   UNL     2      -8.499   6.571  69.500  1.00  0.00    -0.130 NA 
HETATM   41  C   UNL     2      -9.445   7.085  70.527  1.00  0.00    -0.166 C  
HETATM   42  C   UNL     2     -10.832   7.429  69.924  1.00  0.00    -0.259 C  
BRANCH  42  43
HETATM   43  C   UNL     2     -11.950   6.764  70.693  1.00  0.00    -0.418 C  
HETATM   44  C   UNL     2     -12.711   7.377  71.610  1.00  0.00    -0.399 C  
ENDBRANCH  42  43
ENDBRANCH  32  35
ENDBRANCH  29  32
ENDBRANCH   4  22
TORSDOF 6
ENDMDL
MODEL      271
REMARK 921   NORMALIZED FREE ENERGY PREDICTED BY IDOCK:    2.79 KCAL/MOL
REMARK 922        TOTAL FREE ENERGY PREDICTED BY IDOCK:    0.69 KCAL/MOL
REMARK 923 INTER-LIGAND FREE ENERGY PREDICTED BY IDOCK:   -5.08 KCAL/MOL
REMARK 924 INTRA-LIGAND FREE ENERGY PREDICTED BY IDOCK:    5.77 KCAL/MOL
REMARK 927      BINDING AFFINITY PREDICTED BY RF-SCORE:    0.00 PKD
ROOT
HETATM    1  C   UNL     1      -9.738  11.776  65.642  1.00  0.00    -0.256 C  
HETATM    2  C   UNL     1      -8.562  11.241  66.456  1.00  0.00    -0.170 C  
HETATM    3  C   UNL     2      -9.222  15.204  65.731  1.00  0.00    -0.047 C  
HETATM    4  O   UNL     2      -8.161  14.349  66.126  1.00  0.00     0.718 OA 
ENDROOT
BRANCH   2   5
HETATM    5  C   UNL     1      -8.845  10.860  67.949  1.00  0.00    -0.134 C  
HETATM    6  O   UNL     1      -7.238  12.398  69.014  1.00  0.00    -0.089 OA 
HETATM    7  C   UNL     1      -8.990   9.329  67.903  1.00  0.00    -0.127 C  
HETATM    8  C   UNL     1      -7.614  11.241  68.809  1.00  0.00    -0.130 C  
HETATM    9  H   UNL     1      -6.369  10.433  70.226  1.00  0.00     0.000 HD 
HETATM   10  N   UNL     1      -7.824   8.622  67.998  1.00  0.00    -0.102 N  
HETATM   11  O   UNL     1     -10.044   8.736  67.707  1.00  0.00    -0.183 OA 
HETATM   12  O   UNL     1      -6.299   8.041  69.549  1.00  0.00    -0.033 OA 
HETATM   13  N   UNL     1      -6.940  10.209  69.411  1.00  0.00    -0.066 N  
HETATM   14  C   UNL     1      -6.973   8.915  69.009  1.00  0.00    -0.064 C  
HETATM   15  H   UNL     1      -7.600   7.890  67.324  1.00  0.00     0.000 HD 
BRANCH   5  16
HETATM   16  C   UNL     1     -10.123  11.549  68.472  1.00  0.00    -0.211 A  
HETATM   17  C   UNL     1     -12.034  11.581  69.987  1.00  0.00    -0.435 A  
HETATM   18  C   UNL     1     -11.043  10.877  69.298  1.00  0.00    -0.305 A  
HETATM   19  C   UNL     1     -10.347  12.915  68.230  1.00  0.00    -0.248 A  
HETATM   20  C   UNL     1     -12.145  12.959  69.836  1.00  0.00    -0.335 A  
HETATM   21  C   UNL     1     -11.324  13.621  68.932  1.00  0.00    -0.332 A  
ENDBRANCH   5  16
ENDBRANCH   2   5
BRANCH   4  22
HETATM   22  C   UNL     2      -7.462  14.715  67.234  1.00  0.00    -0.117 A  
HETATM   23  C   UNL     2      -6.978  13.876  68.218  1.00  0.00    -0.108 A  
HETATM   24  C   UNL     2      -6.507  16.672  68.391  1.00  0.00    -0.135 A  
HETATM   25  C   UNL     2      -5.538  18.480  69.673  1.00  0.00    -0.229 A  
HETATM   26  C   UNL     2      -6.265  14.429  69.285  1.00  0.00    -0.110 A  
HETATM   27  C   UNL     2      -5.138  17.534  70.602  1.00  0.00    -0.267 A  
HETATM   28  C   UNL     2      -7.163  16.072  67.292  1.00  0.00    -0.241 A  
HETATM   29  C   UNL     2      -6.256  18.076  68.536  1.00  0.00    -0.197 A  
HETATM   30  C   UNL     2      -6.054  15.798  69.411  1.00  0.00    -0.138 A  
HETATM   31  N   UNL     2      -5.393  16.219  70.494  1.00  0.00    -0.183 NA 
BRANCH  29  32
HETATM   32  C   UNL     2      -6.639  19.120  67.469  1.00  0.00    -0.198 C  
HETATM   33  H   UNL     2      -6.751  19.229  65.491  1.00  0.00     0.000 HD 
HETATM   34  O   UNL     2      -6.515  18.586  66.149  1.00  0.00    -0.189 OA 
BRANCH  32  35
HETATM   35  C   UNL     2      -8.077  19.750  67.569  1.00  0.00    -0.302 C  
HETATM   36  C   UNL     2     -10.147  19.103  68.868  1.00  0.00    -0.422 C  
HETATM   37  C   UNL     2     -10.885  20.110  67.969  1.00  0.00     0.026 C  
HETATM   38  C   UNL     2     -10.249  20.118  66.570  1.00  0.00    -0.433 C  
HETATM   39  C   UNL     2      -8.692  19.593  68.985  1.00  0.00    -0.155 C  
HETATM   40  N   UNL     2      -9.040  19.263  66.521  1.00  0.00    -0.337 NA 
HETATM   41  C   UNL     2      -9.491  17.870  66.780  1.00  0.00    -0.287 C  
HETATM   42  C   UNL     2     -10.105  17.708  68.195  1.00  0.00    -0.347 C  
BRANCH  42  43
HETATM   43  C   UNL     2     -11.469  17.059  68.136  1.00  0.00     0.303 C  
HETATM   44  C   UNL     2     -12.014  16.536  67.030  1.00  0.00     1.537 C  
ENDBRANCH  42  43
ENDBRANCH  32  35
ENDBRANCH  29  32
ENDBRANCH   4  22
TORSDOF 6
ENDMDL
MODEL      272
REMARK 921   NORMALIZED FREE ENERGY PREDICTED BY IDOCK:    2.83 KCAL/MOL
REMARK 922        TOTAL FREE ENERGY PREDICTED BY IDOCK:    0.74 KCAL/MOL
REMARK 923 INTER-LIGAND FREE ENERGY PREDICTED BY IDOCK:   -3.63 KCAL/MOL
REMARK 924 INTRA-LIGAND FREE ENERGY PREDICTED BY IDOCK:    4.37 KCAL/MOL
REMARK 927      BINDING AFFINITY PREDICTED BY RF-SCORE:    0.00 PKD
ROOT
HETATM    1  C   UNL     1     -11.350  13.416  68.888  1.00  0.00    -0.331 C  
HETATM    2  C   UNL     1      -9.894  13.340  69.340  1.00  0.00     0.774 C  
HETATM    3  C   UNL     2     -12.580  10.296  69.772  1.00  0.00     0.182 C  
HETATM    4  O   UNL     2     -11.334  10.710  70.309  1.00  0.00    -0.298 OA 
ENDROOT
BRANCH   2   5
HETATM    5  C   UNL     1      -8.822  13.029  68.240  1.00  0.00    -0.172 C  
HETATM    6  O   UNL     1     -10.178  11.508  66.850  1.00  0.00    -0.208 OA 
HETATM    7  C   UNL     1      -7.522  12.868  69.045  1.00  0.00     0.104 C  
HETATM    8  C   UNL     1      -9.179  11.688  67.552  1.00  0.00    -0.172 C  
HETATM    9  H   UNL     1      -8.308   9.908  67.020  1.00  0.00     0.000 HD 
HETATM   10  N   UNL     1      -7.290  11.618  69.549  1.00  0.00    -0.345 N  
HETATM   11  O   UNL     1      -6.757  13.784  69.322  1.00  0.00    -0.110 OA 
HETATM   12  O   UNL     1      -6.644   9.583  68.839  1.00  0.00    -0.047 OA 
HETATM   13  N   UNL     1      -8.286  10.658  67.710  1.00  0.00    -0.115 N  
HETATM   14  C   UNL     1      -7.378  10.560  68.711  1.00  0.00    -0.092 C  
HETATM   15  H   UNL     1      -7.057  11.486  70.533  1.00  0.00     0.000 HD 
BRANCH   5  16
HETATM   16  C   UNL     1      -8.728  14.174  67.208  1.00  0.00    -0.229 A  
HETATM   17  C   UNL     1      -9.728  15.478  65.407  1.00  0.00    -0.232 A  
HETATM   18  C   UNL     1      -9.653  14.301  66.155  1.00  0.00    -0.300 A  
HETATM   19  C   UNL     1      -7.775  15.195  67.361  1.00  0.00    -0.225 A  
HETATM   20  C   UNL     1      -8.860  16.533  65.673  1.00  0.00     0.302 A  
HETATM   21  C   UNL     1      -7.862  16.378  66.627  1.00  0.00    -0.316 A  
ENDBRANCH   5  16
ENDBRANCH   2   5
BRANCH   4  22
HETATM   22  C   UNL     2     -10.342   9.779  70.340  1.00  0.00    -0.293 A  
HETATM   23  C   UNL     2      -9.551   9.452  71.422  1.00  0.00    -0.076 A  
HETATM   24  C   UNL     2      -9.195   8.092  68.954  1.00  0.00    -0.147 A  
HETATM   25  C   UNL     2      -7.942   6.422  67.732  1.00  0.00    -0.114 A  
HETATM   26  C   UNL     2      -8.584   8.454  71.275  1.00  0.00    -0.198 A  
HETATM   27  C   UNL     2      -7.199   6.217  68.882  1.00  0.00    -0.084 A  
HETATM   28  C   UNL     2     -10.208   9.056  69.159  1.00  0.00    -0.213 A  
HETATM   29  C   UNL     2      -8.962   7.387  67.728  1.00  0.00    -0.127 A  
HETATM   30  C   UNL     2      -8.366   7.800  70.066  1.00  0.00    -0.130 A  
HETATM   31  N   UNL     2      -7.387   6.892  70.030  1.00  0.00    -0.080 NA 
BRANCH  29  32
HETATM   32  C   UNL     2      -9.833   7.566  66.469  1.00  0.00    -0.156 C  
HETATM   33  H   UNL     2     -11.057   8.929  65.709  1.00  0.00     0.000 HD 
HETATM   34  O   UNL     2     -10.520   8.820  66.484  1.00  0.00    -0.242 OA 
BRANCH  32  35
HETATM   35  C   UNL     2      -9.108   7.464  65.077  1.00  0.00     0.667 C  
HETATM   36  C   UNL     2      -6.669   7.400  64.413  1.00  0.00    -0.047 C  
HETATM   37  C   UNL     2      -7.173   7.643  62.979  1.00  0.00    -0.087 C  
HETATM   38  C   UNL     2      -8.427   8.530  63.015  1.00  0.00    -0.072 C  
HETATM   39  C   UNL     2      -7.789   6.650  65.158  1.00  0.00    -0.115 C  
HETATM   40  N   UNL     2      -8.868   8.788  64.406  1.00  0.00    -0.028 NA 
HETATM   41  C   UNL     2      -7.779   9.559  65.062  1.00  0.00    -0.114 C  
HETATM   42  C   UNL     2      -6.459   8.749  65.147  1.00  0.00    -0.064 C  
BRANCH  42  43
HETATM   43  C   UNL     2      -5.292   9.530  64.586  1.00  0.00    -0.055 C  
HETATM   44  C   UNL     2      -5.181  10.865  64.629  1.00  0.00    -0.019 C  
ENDBRANCH  42  43
ENDBRANCH  32  35
ENDBRANCH  29  32
ENDBRANCH   4  22
TORSDOF 6
ENDMDL
MODEL      273
REMARK 921   NORMALIZED FREE ENERGY PREDICTED BY IDOCK:    2.91 KCAL/MOL
REMARK 922        TOTAL FREE ENERGY PREDICTED BY IDOCK:    0.85 KCAL/MOL
REMARK 923 INTER-LIGAND FREE ENERGY PREDICTED BY IDOCK:   -0.24 KCAL/MOL
REMARK 924 INTRA-LIGAND FREE ENERGY PREDICTED BY IDOCK:    1.10 KCAL/MOL
REMARK 927      BINDING AFFINITY PREDICTED BY RF-SCORE:    0.00 PKD
ROOT
HETATM    1  C   UNL     1      -7.543  10.029  70.413  1.00  0.00    -0.037 C  
HETATM    2  C   UNL     1      -9.026   9.824  70.113  1.00  0.00    -0.235 C  
HETATM    3  C   UNL     2      -6.026   8.960  67.483  1.00  0.00    -0.047 C  
HETATM    4  O   UNL     2      -7.423   9.203  67.472  1.00  0.00    -0.087 OA 
ENDROOT
BRANCH   2   5
HETATM    5  C   UNL     1      -9.696   8.530  70.689  1.00  0.00    -0.207 C  
HETATM    6  O   UNL     1     -10.532   7.594  68.567  1.00  0.00    -0.200 OA 
HETATM    7  C   UNL     1     -10.372   9.024  71.980  1.00  0.00    -0.217 C  
HETATM    8  C   UNL     1     -10.774   8.034  69.694  1.00  0.00    -0.207 C  
HETATM    9  H   UNL     1     -12.736   7.435  69.663  1.00  0.00     0.000 HD 
HETATM   10  N   UNL     1     -11.628   9.543  71.828  1.00  0.00    -0.375 N  
HETATM   11  O   UNL     1      -9.832   9.056  73.079  1.00  0.00     0.394 OA 
HETATM   12  O   UNL     1     -13.734   8.841  71.456  1.00  0.00    -0.372 OA 
HETATM   13  N   UNL     1     -12.073   8.050  70.134  1.00  0.00     0.390 N  
HETATM   14  C   UNL     1     -12.545   8.820  71.145  1.00  0.00    -0.168 C  
HETATM   15  H   UNL     1     -11.868  10.454  72.220  1.00  0.00     0.000 HD 
BRANCH   5  16
HETATM   16  C   UNL     1      -8.649   7.431  70.967  1.00  0.00    -0.134 A  
HETATM   17  C   UNL     1      -6.326   6.689  70.998  1.00  0.00    -0.041 A  
HETATM   18  C   UNL     1      -7.322   7.538  70.510  1.00  0.00    -0.075 A  
HETATM   19  C   UNL     1      -8.964   6.336  71.789  1.00  0.00    -0.140 A  
HETATM   20  C   UNL     1      -6.642   5.699  71.922  1.00  0.00    -0.057 A  
HETATM   21  C   UNL     1      -7.967   5.500  72.291  1.00  0.00    -0.107 A  
ENDBRANCH   5  16
ENDBRANCH   2   5
BRANCH   4  22
HETATM   22  C   UNL     2      -8.196   8.294  66.819  1.00  0.00    -0.103 A  
HETATM   23  C   UNL     2      -8.755   8.436  65.565  1.00  0.00    -0.196 A  
HETATM   24  C   UNL     2      -9.158   6.033  67.024  1.00  0.00    -0.117 A  
HETATM   25  C   UNL     2     -10.205   3.852  67.072  1.00  0.00     0.459 A  
HETATM   26  C   UNL     2      -9.515   7.387  65.042  1.00  0.00     1.346 A  
HETATM   27  C   UNL     2     -10.732   4.138  65.825  1.00  0.00     0.348 A  
HETATM   28  C   UNL     2      -8.340   7.085  67.492  1.00  0.00    -0.119 A  
HETATM   29  C   UNL     2      -9.408   4.806  67.724  1.00  0.00    -0.163 A  
HETATM   30  C   UNL     2      -9.757   6.215  65.753  1.00  0.00     0.299 A  
HETATM   31  N   UNL     2     -10.532   5.295  65.171  1.00  0.00     0.529 NA 
BRANCH  29  32
HETATM   32  C   UNL     2      -8.764   4.460  69.082  1.00  0.00    -0.085 C  
HETATM   33  H   UNL     2      -9.261   3.495  70.741  1.00  0.00     0.000 HD 
HETATM   34  O   UNL     2      -9.658   3.708  69.905  1.00  0.00    -0.189 OA 
BRANCH  32  35
HETATM   35  C   UNL     2      -7.405   3.668  69.047  1.00  0.00    -0.053 C  
HETATM   36  C   UNL     2      -5.755   3.172  67.198  1.00  0.00    -0.022 C  
HETATM   37  C   UNL     2      -5.141   2.155  68.176  1.00  0.00    -0.012 C  
HETATM   38  C   UNL     2      -6.248   1.544  69.049  1.00  0.00    -0.025 C  
HETATM   39  C   UNL     2      -6.388   4.286  68.052  1.00  0.00    -0.037 C  
HETATM   40  N   UNL     2      -7.556   2.192  68.797  1.00  0.00    -0.043 NA 
HETATM   41  C   UNL     2      -7.912   1.898  67.383  1.00  0.00    -0.065 C  
HETATM   42  C   UNL     2      -6.899   2.515  66.384  1.00  0.00    -0.044 C  
BRANCH  42  43
HETATM   43  C   UNL     2      -6.387   1.484  65.405  1.00  0.00    -0.022 C  
HETATM   44  C   UNL     2      -5.633   1.762  64.334  1.00  0.00    -0.008 C  
ENDBRANCH  42  43
ENDBRANCH  32  35
ENDBRANCH  29  32
ENDBRANCH   4  22
TORSDOF 6
ENDMDL
MODEL      274
REMARK 921   NORMALIZED FREE ENERGY PREDICTED BY IDOCK:    3.18 KCAL/MOL
REMARK 922        TOTAL FREE ENERGY PREDICTED BY IDOCK:    1.22 KCAL/MOL
REMARK 923 INTER-LIGAND FREE ENERGY PREDICTED BY IDOCK:    1.37 KCAL/MOL
REMARK 924 INTRA-LIGAND FREE ENERGY PREDICTED BY IDOCK:   -0.15 KCAL/MOL
REMARK 927      BINDING AFFINITY PREDICTED BY RF-SCORE:    0.00 PKD
ROOT
HETATM    1  C   UNL     1     -12.915  13.930  68.067  1.00  0.00     1.960 C  
HETATM    2  C   UNL     1     -11.705  13.994  68.997  1.00  0.00    -0.368 C  
HETATM    3  C   UNL     2     -11.556  14.813  65.000  1.00  0.00    -0.378 C  
HETATM    4  O   UNL     2     -10.675  14.467  66.056  1.00  0.00    -0.291 OA 
ENDROOT
BRANCH   2   5
HETATM    5  C   UNL     1     -11.546  15.285  69.870  1.00  0.00    -0.335 C  
HETATM    6  O   UNL     1      -9.384  14.733  70.920  1.00  0.00     1.515 OA 
HETATM    7  C   UNL     1     -12.966  15.528  70.409  1.00  0.00    -0.206 C  
HETATM    8  C   UNL     1     -10.586  14.983  71.048  1.00  0.00     0.293 C  
HETATM    9  H   UNL     1     -10.474  15.196  73.085  1.00  0.00     0.000 HD 
HETATM   10  N   UNL     1     -13.285  14.856  71.556  1.00  0.00    -0.341 N  
HETATM   11  O   UNL     1     -13.820  16.197  69.840  1.00  0.00     1.462 OA 
HETATM   12  O   UNL     1     -12.853  14.941  73.763  1.00  0.00    -0.491 OA 
HETATM   13  N   UNL     1     -11.119  15.050  72.309  1.00  0.00     0.020 N  
HETATM   14  C   UNL     1     -12.437  14.936  72.607  1.00  0.00    -0.348 C  
HETATM   15  H   UNL     1     -14.142  14.307  71.618  1.00  0.00     0.000 HD 
BRANCH   5  16
HETATM   16  C   UNL     1     -11.034  16.473  69.027  1.00  0.00    -0.306 A  
HETATM   17  C   UNL     1     -11.421  18.173  67.323  1.00  0.00     1.017 A  
HETATM   18  C   UNL     1     -11.736  16.942  67.902  1.00  0.00     0.698 A  
HETATM   19  C   UNL     1      -9.900  17.199  69.432  1.00  0.00     0.004 A  
HETATM   20  C   UNL     1     -10.379  18.940  67.833  1.00  0.00    -0.473 A  
HETATM   21  C   UNL     1      -9.597  18.437  68.866  1.00  0.00    -0.284 A  
ENDBRANCH   5  16
ENDBRANCH   2   5
BRANCH   4  22
HETATM   22  C   UNL     2      -9.571  15.246  66.211  1.00  0.00    -0.303 A  
HETATM   23  C   UNL     2      -9.332  16.467  65.613  1.00  0.00     0.006 A  
HETATM   24  C   UNL     2      -7.414  15.372  67.399  1.00  0.00    -0.239 A  
HETATM   25  C   UNL     2      -5.253  15.642  68.453  1.00  0.00    -0.100 A  
HETATM   26  C   UNL     2      -8.141  17.137  65.900  1.00  0.00    -0.018 A  
HETATM   27  C   UNL     2      -5.126  16.836  67.763  1.00  0.00    -0.119 A  
HETATM   28  C   UNL     2      -8.658  14.756  67.139  1.00  0.00    -0.248 A  
HETATM   29  C   UNL     2      -6.404  14.858  68.277  1.00  0.00    -0.123 A  
HETATM   30  C   UNL     2      -7.170  16.604  66.742  1.00  0.00    -0.237 A  
HETATM   31  N   UNL     2      -6.051  17.315  66.913  1.00  0.00    -0.167 NA 
BRANCH  29  32
HETATM   32  C   UNL     2      -6.575  13.564  69.099  1.00  0.00    -0.109 C  
HETATM   33  H   UNL     2      -8.015  12.636  70.097  1.00  0.00     0.000 HD 
HETATM   34  O   UNL     2      -7.911  13.433  69.591  1.00  0.00     0.633 OA 
BRANCH  32  35
HETATM   35  C   UNL     2      -6.221  12.210  68.380  1.00  0.00    -0.052 C  
HETATM   36  C   UNL     2      -6.710  11.315  66.068  1.00  0.00     0.132 C  
HETATM   37  C   UNL     2      -6.249   9.956  66.622  1.00  0.00    -0.068 C  
HETATM   38  C   UNL     2      -6.637   9.843  68.105  1.00  0.00    -0.056 C  
HETATM   39  C   UNL     2      -5.960  12.399  66.863  1.00  0.00     0.185 C  
HETATM   40  N   UNL     2      -7.220  11.109  68.610  1.00  0.00    -0.090 NA 
HETATM   41  C   UNL     2      -8.480  11.331  67.851  1.00  0.00    -0.133 C  
HETATM   42  C   UNL     2      -8.224  11.521  66.334  1.00  0.00    -0.092 C  
BRANCH  42  43
HETATM   43  C   UNL     2      -9.083  10.593  65.506  1.00  0.00    -0.214 C  
HETATM   44  C   UNL     2     -10.138  10.983  64.779  1.00  0.00    -0.367 C  
ENDBRANCH  42  43
ENDBRANCH  32  35
ENDBRANCH  29  32
ENDBRANCH   4  22
TORSDOF 6
ENDMDL
MODEL      275
REMARK 921   NORMALIZED FREE ENERGY PREDICTED BY IDOCK:    4.04 KCAL/MOL
REMARK 922        TOTAL FREE ENERGY PREDICTED BY IDOCK:    2.38 KCAL/MOL
REMARK 923 INTER-LIGAND FREE ENERGY PREDICTED BY IDOCK:    1.28 KCAL/MOL
REMARK 924 INTRA-LIGAND FREE ENERGY PREDICTED BY IDOCK:    1.10 KCAL/MOL
REMARK 927      BINDING AFFINITY PREDICTED BY RF-SCORE:    0.00 PKD
ROOT
HETATM    1  C   UNL     1     -10.772  15.624  69.046  1.00  0.00    -0.236 C  
HETATM    2  C   UNL     1      -9.543  14.977  69.681  1.00  0.00    -0.047 C  
HETATM    3  C   UNL     2     -12.997  12.972  68.832  1.00  0.00     1.825 C  
HETATM    4  O   UNL     2     -11.847  12.827  69.649  1.00  0.00    -0.311 OA 
ENDROOT
BRANCH   2   5
HETATM    5  C   UNL     1      -8.375  14.572  68.719  1.00  0.00    -0.149 C  
HETATM    6  O   UNL     1      -9.736  13.642  66.885  1.00  0.00    -0.245 OA 
HETATM    7  C   UNL     1      -7.318  13.985  69.670  1.00  0.00     0.243 C  
HETATM    8  C   UNL     1      -8.875  13.470  67.752  1.00  0.00    -0.198 C  
HETATM    9  H   UNL     1      -8.325  11.626  67.043  1.00  0.00     0.000 HD 
HETATM   10  N   UNL     1      -7.462  12.658  69.966  1.00  0.00     0.731 N  
HETATM   11  O   UNL     1      -6.440  14.637  70.222  1.00  0.00    -0.176 OA 
HETATM   12  O   UNL     1      -7.148  10.648  69.004  1.00  0.00    -0.070 OA 
HETATM   13  N   UNL     1      -8.273  12.242  67.854  1.00  0.00    -0.150 N  
HETATM   14  C   UNL     1      -7.615  11.783  68.947  1.00  0.00    -0.063 C  
HETATM   15  H   UNL     1      -7.455  12.335  70.934  1.00  0.00     0.000 HD 
BRANCH   5  16
HETATM   16  C   UNL     1      -7.840  15.793  67.940  1.00  0.00    -0.149 A  
HETATM   17  C   UNL     1      -8.110  18.095  67.180  1.00  0.00    -0.230 A  
HETATM   18  C   UNL     1      -8.662  16.892  67.629  1.00  0.00    -0.212 A  
HETATM   19  C   UNL     1      -6.476  15.892  67.616  1.00  0.00    -0.192 A  
HETATM   20  C   UNL     1      -6.736  18.209  67.001  1.00  0.00    -0.206 A  
HETATM   21  C   UNL     1      -5.923  17.098  67.186  1.00  0.00    -0.192 A  
ENDBRANCH   5  16
ENDBRANCH   2   5
BRANCH   4  22
HETATM   22  C   UNL     2     -11.191  11.637  69.576  1.00  0.00    -0.213 A  
HETATM   23  C   UNL     2     -10.679  10.912  70.632  1.00  0.00     0.805 A  
HETATM   24  C   UNL     2     -10.435   9.912  67.985  1.00  0.00    -0.266 A  
HETATM   25  C   UNL     2      -9.594   8.143  66.564  1.00  0.00    -0.303 A  
HETATM   26  C   UNL     2     -10.043   9.695  70.370  1.00  0.00    -0.336 A  
HETATM   27  C   UNL     2      -9.099   7.536  67.706  1.00  0.00    -0.129 A  
HETATM   28  C   UNL     2     -11.130  11.102  68.294  1.00  0.00    -0.310 A  
HETATM   29  C   UNL     2     -10.269   9.370  66.668  1.00  0.00    -0.319 A  
HETATM   30  C   UNL     2      -9.879   9.203  69.079  1.00  0.00    -0.174 A  
HETATM   31  N   UNL     2      -9.220   8.048  68.943  1.00  0.00    -0.147 NA 
BRANCH  29  32
HETATM   32  C   UNL     2     -10.880  10.010  65.405  1.00  0.00     0.818 C  
HETATM   33  H   UNL     2     -11.674  11.749  64.875  1.00  0.00     0.000 HD 
HETATM   34  O   UNL     2     -11.297  11.355  65.653  1.00  0.00    -0.160 OA 
BRANCH  32  35
HETATM   35  C   UNL     2      -9.981  10.044  64.115  1.00  0.00     0.132 C  
HETATM   36  C   UNL     2      -7.667   9.159  63.611  1.00  0.00    -0.118 C  
HETATM   37  C   UNL     2      -7.740  10.023  62.340  1.00  0.00    -0.140 C  
HETATM   38  C   UNL     2      -8.546  11.299  62.626  1.00  0.00    -0.110 C  
HETATM   39  C   UNL     2      -9.113   8.767  63.967  1.00  0.00     0.453 C  
HETATM   40  N   UNL     2      -9.128  11.277  63.989  1.00  0.00    -0.050 NA 
HETATM   41  C   UNL     2      -7.986  11.267  64.941  1.00  0.00     0.681 C  
HETATM   42  C   UNL     2      -7.116   9.991  64.797  1.00  0.00    -0.137 C  
BRANCH  42  43
HETATM   43  C   UNL     2      -5.654  10.333  64.627  1.00  0.00    -0.132 C  
HETATM   44  C   UNL     2      -5.175  11.577  64.495  1.00  0.00     1.462 C  
ENDBRANCH  42  43
ENDBRANCH  32  35
ENDBRANCH  29  32
ENDBRANCH   4  22
TORSDOF 6
ENDMDL
MODEL      276
REMARK 921   NORMALIZED FREE ENERGY PREDICTED BY IDOCK:    4.29 KCAL/MOL
REMARK 922        TOTAL FREE ENERGY PREDICTED BY IDOCK:    2.72 KCAL/MOL
REMARK 923 INTER-LIGAND FREE ENERGY PREDICTED BY IDOCK:    1.72 KCAL/MOL
REMARK 924 INTRA-LIGAND FREE ENERGY PREDICTED BY IDOCK:    0.99 KCAL/MOL
REMARK 927      BINDING AFFINITY PREDICTED BY RF-SCORE:    0.00 PKD
ROOT
HETATM    1  C   UNL     1      -8.726  12.025  65.292  1.00  0.00     0.670 C  
HETATM    2  C   UNL     1      -9.297  12.347  66.671  1.00  0.00    -0.227 C  
HETATM    3  C   UNL     2      -6.171   9.800  66.032  1.00  0.00    -0.071 C  
HETATM    4  O   UNL     2      -7.130  10.089  67.037  1.00  0.00    -0.087 OA 
ENDROOT
BRANCH   2   5
HETATM    5  C   UNL     1      -8.837  13.689  67.336  1.00  0.00    -0.221 C  
HETATM    6  O   UNL     1      -6.480  13.649  66.614  1.00  0.00     0.841 OA 
HETATM    7  C   UNL     1      -9.536  13.665  68.706  1.00  0.00    -0.011 C  
HETATM    8  C   UNL     1      -7.301  13.655  67.534  1.00  0.00    -0.166 C  
HETATM    9  H   UNL     1      -5.891  13.997  68.983  1.00  0.00     0.000 HD 
HETATM   10  N   UNL     1      -8.867  13.005  69.699  1.00  0.00     1.087 N  
HETATM   11  O   UNL     1     -10.656  14.112  68.923  1.00  0.00    -0.244 OA 
HETATM   12  O   UNL     1      -7.089  13.297  71.047  1.00  0.00     1.641 OA 
HETATM   13  N   UNL     1      -6.847  13.679  68.828  1.00  0.00    -0.102 N  
HETATM   14  C   UNL     1      -7.569  13.314  69.916  1.00  0.00     1.314 C  
HETATM   15  H   UNL     1      -9.336  12.296  70.263  1.00  0.00     0.000 HD 
BRANCH   5  16
HETATM   16  C   UNL     1      -9.261  14.909  66.490  1.00  0.00    -0.314 A  
HETATM   17  C   UNL     1     -10.871  16.002  65.021  1.00  0.00    -0.421 A  
HETATM   18  C   UNL     1     -10.320  14.840  65.567  1.00  0.00    -0.387 A  
HETATM   19  C   UNL     1      -8.668  16.166  66.703  1.00  0.00    -0.300 A  
HETATM   20  C   UNL     1     -10.353  17.247  65.359  1.00  0.00     0.006 A  
HETATM   21  C   UNL     1      -9.230  17.327  66.173  1.00  0.00    -0.193 A  
ENDBRANCH   5  16
ENDBRANCH   2   5
BRANCH   4  22
HETATM   22  C   UNL     2      -6.655  10.284  68.296  1.00  0.00    -0.057 A  
HETATM   23  C   UNL     2      -5.634  11.134  68.671  1.00  0.00    -0.043 A  
HETATM   24  C   UNL     2      -6.987   9.601  70.642  1.00  0.00    -0.115 A  
HETATM   25  C   UNL     2      -7.151   9.019  72.985  1.00  0.00     0.402 A  
HETATM   26  C   UNL     2      -5.285  11.216  70.021  1.00  0.00    -0.057 A  
HETATM   27  C   UNL     2      -6.093   9.881  73.217  1.00  0.00     0.937 A  
HETATM   28  C   UNL     2      -7.357   9.594  69.279  1.00  0.00    -0.079 A  
HETATM   29  C   UNL     2      -7.624   8.838  71.676  1.00  0.00    -0.109 A  
HETATM   30  C   UNL     2      -5.908  10.448  71.000  1.00  0.00    -0.027 A  
HETATM   31  N   UNL     2      -5.466  10.579  72.255  1.00  0.00    -0.295 NA 
BRANCH  29  32
HETATM   32  C   UNL     2      -8.846   7.931  71.428  1.00  0.00    -0.135 C  
HETATM   33  H   UNL     2     -10.463   7.924  70.279  1.00  0.00     0.000 HD 
HETATM   34  O   UNL     2      -9.710   8.483  70.432  1.00  0.00    -0.170 OA 
BRANCH  32  35
HETATM   35  C   UNL     2      -8.558   6.444  71.004  1.00  0.00    -0.131 C  
HETATM   36  C   UNL     2     -10.000   4.369  70.934  1.00  0.00    -0.242 C  
HETATM   37  C   UNL     2      -8.681   3.599  70.745  1.00  0.00    -0.123 C  
HETATM   38  C   UNL     2      -7.555   4.303  71.518  1.00  0.00    -0.068 C  
HETATM   39  C   UNL     2      -9.787   5.772  70.337  1.00  0.00    -0.241 C  
HETATM   40  N   UNL     2      -8.022   5.578  72.112  1.00  0.00    -0.106 NA 
HETATM   41  C   UNL     2      -9.072   5.228  73.105  1.00  0.00    -0.127 C  
HETATM   42  C   UNL     2     -10.303   4.557  72.442  1.00  0.00    -0.256 C  
BRANCH  42  43
HETATM   43  C   UNL     2     -10.658   3.255  73.122  1.00  0.00    -0.260 C  
HETATM   44  C   UNL     2     -11.880   2.705  73.120  1.00  0.00     0.209 C  
ENDBRANCH  42  43
ENDBRANCH  32  35
ENDBRANCH  29  32
ENDBRANCH   4  22
TORSDOF 6
ENDMDL
MODEL      277
REMARK 921   NORMALIZED FREE ENERGY PREDICTED BY IDOCK:    4.46 KCAL/MOL
REMARK 922        TOTAL FREE ENERGY PREDICTED BY IDOCK:    2.95 KCAL/MOL
REMARK 923 INTER-LIGAND FREE ENERGY PREDICTED BY IDOCK:    1.30 KCAL/MOL
REMARK 924 INTRA-LIGAND FREE ENERGY PREDICTED BY IDOCK:    1.66 KCAL/MOL
REMARK 927      BINDING AFFINITY PREDICTED BY RF-SCORE:    0.00 PKD
ROOT
HETATM    1  C   UNL     1      -9.502  10.803  67.883  1.00  0.00    -0.165 C  
HETATM    2  C   UNL     1      -9.907  12.095  68.588  1.00  0.00    -0.110 C  
HETATM    3  C   UNL     2      -8.653  11.910  64.708  1.00  0.00     1.082 C  
HETATM    4  O   UNL     2      -8.791  12.868  65.744  1.00  0.00     0.369 OA 
ENDROOT
BRANCH   2   5
HETATM    5  C   UNL     1     -11.440  12.397  68.699  1.00  0.00    -0.348 C  
HETATM    6  O   UNL     1     -11.283  14.672  69.637  1.00  0.00    -0.260 OA 
HETATM    7  C   UNL     1     -12.028  11.069  69.207  1.00  0.00    -0.339 C  
HETATM    8  C   UNL     1     -11.662  13.504  69.759  1.00  0.00    -0.295 C  
HETATM    9  H   UNL     1     -12.816  13.899  71.408  1.00  0.00     0.000 HD 
HETATM   10  N   UNL     1     -12.017  10.899  70.563  1.00  0.00    -0.343 N  
HETATM   11  O   UNL     1     -12.410  10.156  68.484  1.00  0.00     0.407 OA 
HETATM   12  O   UNL     1     -13.115  11.632  72.386  1.00  0.00    -0.226 OA 
HETATM   13  N   UNL     1     -12.369  13.150  70.880  1.00  0.00    -0.360 N  
HETATM   14  C   UNL     1     -12.521  11.884  71.340  1.00  0.00    -0.155 C  
HETATM   15  H   UNL     1     -11.638  10.048  70.981  1.00  0.00     0.000 HD 
BRANCH   5  16
HETATM   16  C   UNL     1     -12.031  12.809  67.334  1.00  0.00    -0.335 A  
HETATM   17  C   UNL     1     -12.735  12.220  65.075  1.00  0.00    -0.005 A  
HETATM   18  C   UNL     1     -11.963  11.964  66.211  1.00  0.00     0.045 A  
HETATM   19  C   UNL     1     -12.762  14.003  67.204  1.00  0.00     0.435 A  
HETATM   20  C   UNL     1     -13.560  13.339  65.027  1.00  0.00     1.367 A  
HETATM   21  C   UNL     1     -13.547  14.248  66.078  1.00  0.00     2.034 A  
ENDBRANCH   5  16
ENDBRANCH   2   5
BRANCH   4  22
HETATM   22  C   UNL     2      -9.447  14.018  65.430  1.00  0.00     0.250 A  
HETATM   23  C   UNL     2     -10.185  14.261  64.290  1.00  0.00     0.715 A  
HETATM   24  C   UNL     2      -9.960  16.275  66.280  1.00  0.00    -0.335 A  
HETATM   25  C   UNL     2     -10.532  18.531  66.942  1.00  0.00    -0.434 A  
HETATM   26  C   UNL     2     -10.806  15.503  64.139  1.00  0.00     0.657 A  
HETATM   27  C   UNL     2     -11.211  18.653  65.742  1.00  0.00     0.792 A  
HETATM   28  C   UNL     2      -9.405  14.984  66.429  1.00  0.00    -0.334 A  
HETATM   29  C   UNL     2      -9.865  17.332  67.243  1.00  0.00    -0.267 A  
HETATM   30  C   UNL     2     -10.679  16.519  65.083  1.00  0.00    -0.244 A  
HETATM   31  N   UNL     2     -11.283  17.681  64.816  1.00  0.00    -0.612 NA 
BRANCH  29  32
HETATM   32  C   UNL     2      -9.168  17.173  68.609  1.00  0.00    -0.263 C  
HETATM   33  H   UNL     2      -9.375  16.072  70.246  1.00  0.00     0.000 HD 
HETATM   34  O   UNL     2      -9.804  16.170  69.405  1.00  0.00    -0.242 OA 
BRANCH  32  35
HETATM   35  C   UNL     2      -7.632  16.832  68.592  1.00  0.00    -0.222 C  
HETATM   36  C   UNL     2      -6.313  14.905  67.626  1.00  0.00    -0.147 C  
HETATM   37  C   UNL     2      -5.140  15.436  68.468  1.00  0.00    -0.097 C  
HETATM   38  C   UNL     2      -5.675  16.043  69.775  1.00  0.00    -0.148 C  
HETATM   39  C   UNL     2      -7.203  16.115  67.286  1.00  0.00    -0.232 C  
HETATM   40  N   UNL     2      -7.157  16.064  69.795  1.00  0.00    -0.096 NA 
HETATM   41  C   UNL     2      -7.603  14.645  69.766  1.00  0.00     0.087 C  
HETATM   42  C   UNL     2      -7.177  13.925  68.461  1.00  0.00    -0.107 C  
BRANCH  42  43
HETATM   43  C   UNL     2      -6.454  12.630  68.754  1.00  0.00    -0.085 C  
HETATM   44  C   UNL     2      -5.798  12.367  69.892  1.00  0.00    -0.139 C  
ENDBRANCH  42  43
ENDBRANCH  32  35
ENDBRANCH  29  32
ENDBRANCH   4  22
TORSDOF 6
ENDMDL
MODEL      278
REMARK 921   NORMALIZED FREE ENERGY PREDICTED BY IDOCK:    4.47 KCAL/MOL
REMARK 922        TOTAL FREE ENERGY PREDICTED BY IDOCK:    2.96 KCAL/MOL
REMARK 923 INTER-LIGAND FREE ENERGY PREDICTED BY IDOCK:    4.31 KCAL/MOL
REMARK 924 INTRA-LIGAND FREE ENERGY PREDICTED BY IDOCK:   -1.34 KCAL/MOL
REMARK 927      BINDING AFFINITY PREDICTED BY RF-SCORE:    0.00 PKD
ROOT
HETATM    1  C   UNL     1     -10.238  15.410  71.853  1.00  0.00     1.936 C  
HETATM    2  C   UNL     1      -9.146  14.603  71.156  1.00  0.00     3.535 C  
HETATM    3  C   UNL     2     -13.124  13.704  70.965  1.00  0.00    -0.180 C  
HETATM    4  O   UNL     2     -11.871  13.073  70.752  1.00  0.00    -0.167 OA 
ENDROOT
BRANCH   2   5
HETATM    5  C   UNL     1      -8.602  15.164  69.798  1.00  0.00     0.052 C  
HETATM    6  O   UNL     1      -6.294  15.646  70.517  1.00  0.00     0.026 OA 
HETATM    7  C   UNL     1      -9.764  16.030  69.280  1.00  0.00    -0.257 C  
HETATM    8  C   UNL     1      -7.370  16.060  70.079  1.00  0.00     0.471 C  
HETATM    9  H   UNL     1      -6.633  17.917  69.616  1.00  0.00     0.000 HD 
HETATM   10  N   UNL     1      -9.792  17.317  69.740  1.00  0.00     0.316 N  
HETATM   11  O   UNL     1     -10.677  15.618  68.575  1.00  0.00    -0.245 OA 
HETATM   12  O   UNL     1      -8.713  19.267  69.428  1.00  0.00    -0.098 OA 
HETATM   13  N   UNL     1      -7.492  17.390  69.768  1.00  0.00     0.530 N  
HETATM   14  C   UNL     1      -8.665  18.059  69.647  1.00  0.00     0.992 C  
HETATM   15  H   UNL     1     -10.642  17.709  70.145  1.00  0.00     0.000 HD 
BRANCH   5  16
HETATM   16  C   UNL     1      -8.248  14.023  68.820  1.00  0.00    -0.049 A  
HETATM   17  C   UNL     1      -8.035  13.189  66.538  1.00  0.00     0.691 A  
HETATM   18  C   UNL     1      -8.597  14.078  67.458  1.00  0.00    -0.196 A  
HETATM   19  C   UNL     1      -7.459  12.940  69.243  1.00  0.00     0.312 A  
HETATM   20  C   UNL     1      -7.145  12.210  66.966  1.00  0.00    -0.064 A  
HETATM   21  C   UNL     1      -6.883  12.064  68.323  1.00  0.00    -0.068 A  
ENDBRANCH   5  16
ENDBRANCH   2   5
BRANCH   4  22
HETATM   22  C   UNL     2     -11.712  12.414  69.573  1.00  0.00    -0.322 A  
HETATM   23  C   UNL     2     -12.024  12.887  68.315  1.00  0.00    -0.297 A  
HETATM   24  C   UNL     2     -10.897  10.296  68.608  1.00  0.00    -0.272 A  
HETATM   25  C   UNL     2     -10.174   8.272  67.497  1.00  0.00    -0.309 A  
HETATM   26  C   UNL     2     -11.780  12.071  67.207  1.00  0.00    -0.339 A  
HETATM   27  C   UNL     2     -10.562   8.854  66.302  1.00  0.00     0.371 A  
HETATM   28  C   UNL     2     -11.094  11.174  69.697  1.00  0.00    -0.297 A  
HETATM   29  C   UNL     2     -10.347   8.975  68.700  1.00  0.00    -0.233 A  
HETATM   30  C   UNL     2     -11.263  10.785  67.329  1.00  0.00    -0.197 A  
HETATM   31  N   UNL     2     -11.108  10.079  66.204  1.00  0.00     0.410 NA 
BRANCH  29  32
HETATM   32  C   UNL     2      -9.851   8.355  70.021  1.00  0.00    -0.182 C  
HETATM   33  H   UNL     2     -10.388   8.336  71.930  1.00  0.00     0.000 HD 
HETATM   34  O   UNL     2     -10.694   8.719  71.116  1.00  0.00    -0.216 OA 
BRANCH  32  35
HETATM   35  C   UNL     2      -9.703   6.789  70.064  1.00  0.00    -0.163 C  
HETATM   36  C   UNL     2      -9.422   5.143  71.961  1.00  0.00    -0.182 C  
HETATM   37  C   UNL     2      -9.061   4.122  70.868  1.00  0.00    -0.180 C  
HETATM   38  C   UNL     2      -8.326   4.831  69.720  1.00  0.00    -0.075 C  
HETATM   39  C   UNL     2     -10.374   6.168  71.317  1.00  0.00    -0.264 C  
HETATM   40  N   UNL     2      -8.288   6.298  69.926  1.00  0.00    -0.127 NA 
HETATM   41  C   UNL     2      -7.491   6.536  71.159  1.00  0.00    -0.085 C  
HETATM   42  C   UNL     2      -8.159   5.917  72.415  1.00  0.00    -0.110 C  
BRANCH  42  43
HETATM   43  C   UNL     2      -7.194   5.041  73.181  1.00  0.00    -0.086 C  
HETATM   44  C   UNL     2      -7.349   4.680  74.462  1.00  0.00    -0.077 C  
ENDBRANCH  42  43
ENDBRANCH  32  35
ENDBRANCH  29  32
ENDBRANCH   4  22
TORSDOF 6
ENDMDL
MODEL      279
REMARK 921   NORMALIZED FREE ENERGY PREDICTED BY IDOCK:    4.53 KCAL/MOL
REMARK 922        TOTAL FREE ENERGY PREDICTED BY IDOCK:    3.05 KCAL/MOL
REMARK 923 INTER-LIGAND FREE ENERGY PREDICTED BY IDOCK:    0.30 KCAL/MOL
REMARK 924 INTRA-LIGAND FREE ENERGY PREDICTED BY IDOCK:    2.75 KCAL/MOL
REMARK 927      BINDING AFFINITY PREDICTED BY RF-SCORE:    0.00 PKD
ROOT
HETATM    1  C   UNL     1      -9.414  12.104  64.548  1.00  0.00     0.171 C  
HETATM    2  C   UNL     1     -10.013  12.069  65.952  1.00  0.00    -0.260 C  
HETATM    3  C   UNL     2      -6.438  10.368  64.953  1.00  0.00    -0.072 C  
HETATM    4  O   UNL     2      -7.417  10.282  65.976  1.00  0.00    -0.115 OA 
ENDROOT
BRANCH   2   5
HETATM    5  C   UNL     1      -9.831  13.349  66.836  1.00  0.00    -0.256 C  
HETATM    6  O   UNL     1     -10.483  15.031  65.155  1.00  0.00    -0.373 OA 
HETATM    7  C   UNL     1      -8.535  13.062  67.614  1.00  0.00    -0.187 C  
HETATM    8  C   UNL     1      -9.623  14.575  65.912  1.00  0.00    -0.247 C  
HETATM    9  H   UNL     1      -8.362  16.176  65.677  1.00  0.00     0.000 HD 
HETATM   10  N   UNL     1      -7.375  13.402  66.976  1.00  0.00    -0.314 N  
HETATM   11  O   UNL     1      -8.487  12.488  68.696  1.00  0.00    -0.094 OA 
HETATM   12  O   UNL     1      -6.190  15.241  66.450  1.00  0.00     1.266 OA 
HETATM   13  N   UNL     1      -8.408  15.207  65.993  1.00  0.00     0.528 N  
HETATM   14  C   UNL     1      -7.265  14.647  66.459  1.00  0.00     1.831 C  
HETATM   15  H   UNL     1      -6.610  12.733  66.892  1.00  0.00     0.000 HD 
BRANCH   5  16
HETATM   16  C   UNL     1     -11.038  13.560  67.774  1.00  0.00    -0.291 A  
HETATM   17  C   UNL     1     -12.807  12.638  69.178  1.00  0.00     1.266 A  
HETATM   18  C   UNL     1     -11.900  12.504  68.123  1.00  0.00    -0.371 A  
HETATM   19  C   UNL     1     -11.245  14.800  68.404  1.00  0.00    -0.298 A  
HETATM   20  C   UNL     1     -12.893  13.836  69.878  1.00  0.00     0.195 A  
HETATM   21  C   UNL     1     -12.136  14.928  69.469  1.00  0.00    -0.315 A  
ENDBRANCH   5  16
ENDBRANCH   2   5
BRANCH   4  22
HETATM   22  C   UNL     2      -6.970  10.362  67.258  1.00  0.00    -0.086 A  
HETATM   23  C   UNL     2      -6.220  11.382  67.808  1.00  0.00    -0.050 A  
HETATM   24  C   UNL     2      -7.003   9.180  69.422  1.00  0.00    -0.052 A  
HETATM   25  C   UNL     2      -6.905   8.141  71.605  1.00  0.00    -0.063 A  
HETATM   26  C   UNL     2      -5.858  11.303  69.155  1.00  0.00    -0.043 A  
HETATM   27  C   UNL     2      -6.129   9.210  72.018  1.00  0.00    -0.012 A  
HETATM   28  C   UNL     2      -7.409   9.326  68.076  1.00  0.00    -0.080 A  
HETATM   29  C   UNL     2      -7.356   8.084  70.276  1.00  0.00    -0.060 A  
HETATM   30  C   UNL     2      -6.199  10.217  69.956  1.00  0.00    -0.076 A  
HETATM   31  N   UNL     2      -5.765  10.228  71.220  1.00  0.00    -0.253 NA 
BRANCH  29  32
HETATM   32  C   UNL     2      -8.278   6.929  69.835  1.00  0.00    -0.127 C  
HETATM   33  H   UNL     2     -10.214   6.499  69.864  1.00  0.00     0.000 HD 
HETATM   34  O   UNL     2      -9.647   7.211  70.135  1.00  0.00    -0.168 OA 
BRANCH  32  35
HETATM   35  C   UNL     2      -8.223   6.509  68.320  1.00  0.00    -0.114 C  
HETATM   36  C   UNL     2      -8.216   4.264  67.160  1.00  0.00    -0.100 C  
HETATM   37  C   UNL     2      -7.810   5.046  65.899  1.00  0.00    -0.092 C  
HETATM   38  C   UNL     2      -6.931   6.243  66.293  1.00  0.00    -0.066 C  
HETATM   39  C   UNL     2      -9.043   5.224  68.034  1.00  0.00    -0.118 C  
HETATM   40  N   UNL     2      -6.831   6.380  67.765  1.00  0.00    -0.067 NA 
HETATM   41  C   UNL     2      -6.142   5.158  68.261  1.00  0.00    -0.027 C  
HETATM   42  C   UNL     2      -6.959   3.871  67.978  1.00  0.00    -0.051 C  
BRANCH  42  43
HETATM   43  C   UNL     2      -6.122   2.826  67.277  1.00  0.00    -0.028 C  
HETATM   44  C   UNL     2      -6.611   1.710  66.720  1.00  0.00    -0.030 C  
ENDBRANCH  42  43
ENDBRANCH  32  35
ENDBRANCH  29  32
ENDBRANCH   4  22
TORSDOF 6
ENDMDL
MODEL      280
REMARK 921   NORMALIZED FREE ENERGY PREDICTED BY IDOCK:    5.15 KCAL/MOL
REMARK 922        TOTAL FREE ENERGY PREDICTED BY IDOCK:    3.88 KCAL/MOL
REMARK 923 INTER-LIGAND FREE ENERGY PREDICTED BY IDOCK:    1.62 KCAL/MOL
REMARK 924 INTRA-LIGAND FREE ENERGY PREDICTED BY IDOCK:    2.26 KCAL/MOL
REMARK 927      BINDING AFFINITY PREDICTED BY RF-SCORE:    0.00 PKD
ROOT
HETATM    1  C   UNL     1     -10.238  15.410  71.853  1.00  0.00     1.936 C  
HETATM    2  C   UNL     1      -9.146  14.603  71.156  1.00  0.00     3.535 C  
HETATM    3  C   UNL     2     -13.124  13.704  70.965  1.00  0.00    -0.180 C  
HETATM    4  O   UNL     2     -11.871  13.073  70.752  1.00  0.00    -0.167 OA 
ENDROOT
BRANCH   2   5
HETATM    5  C   UNL     1      -8.602  15.164  69.798  1.00  0.00     0.052 C  
HETATM    6  O   UNL     1      -9.736  13.580  68.286  1.00  0.00    -0.218 OA 
HETATM    7  C   UNL     1      -7.129  15.478  70.107  1.00  0.00     0.167 C  
HETATM    8  C   UNL     1      -8.682  14.051  68.723  1.00  0.00    -0.028 C  
HETATM    9  H   UNL     1      -7.518  13.153  67.293  1.00  0.00     0.000 HD 
HETATM   10  N   UNL     1      -6.259  14.434  69.963  1.00  0.00    -0.148 N  
HETATM   11  O   UNL     1      -6.723  16.550  70.542  1.00  0.00     0.659 OA 
HETATM   12  O   UNL     1      -5.258  13.257  68.327  1.00  0.00    -0.078 OA 
HETATM   13  N   UNL     1      -7.492  13.608  68.205  1.00  0.00    -0.112 N  
HETATM   14  C   UNL     1      -6.285  13.728  68.810  1.00  0.00    -0.089 C  
HETATM   15  H   UNL     1      -5.605  14.192  70.708  1.00  0.00     0.000 HD 
BRANCH   5  16
HETATM   16  C   UNL     1      -9.384  16.419  69.356  1.00  0.00    -0.090 A  
HETATM   17  C   UNL     1      -9.401  18.691  68.469  1.00  0.00    -0.379 A  
HETATM   18  C   UNL     1      -8.743  17.651  69.130  1.00  0.00     0.125 A  
HETATM   19  C   UNL     1     -10.754  16.337  69.054  1.00  0.00    -0.300 A  
HETATM   20  C   UNL     1     -10.719  18.532  68.054  1.00  0.00    -0.271 A  
HETATM   21  C   UNL     1     -11.406  17.368  68.377  1.00  0.00     0.432 A  
ENDBRANCH   5  16
ENDBRANCH   2   5
BRANCH   4  22
HETATM   22  C   UNL     2     -11.712  12.414  69.573  1.00  0.00    -0.322 A  
HETATM   23  C   UNL     2     -12.024  12.887  68.315  1.00  0.00    -0.297 A  
HETATM   24  C   UNL     2     -10.897  10.296  68.608  1.00  0.00    -0.272 A  
HETATM   25  C   UNL     2     -10.174   8.272  67.497  1.00  0.00    -0.309 A  
HETATM   26  C   UNL     2     -11.780  12.071  67.207  1.00  0.00    -0.339 A  
HETATM   27  C   UNL     2     -10.562   8.854  66.302  1.00  0.00     0.371 A  
HETATM   28  C   UNL     2     -11.094  11.174  69.697  1.00  0.00    -0.297 A  
HETATM   29  C   UNL     2     -10.347   8.975  68.700  1.00  0.00    -0.233 A  
HETATM   30  C   UNL     2     -11.263  10.785  67.329  1.00  0.00    -0.197 A  
HETATM   31  N   UNL     2     -11.108  10.079  66.204  1.00  0.00     0.410 NA 
BRANCH  29  32
HETATM   32  C   UNL     2      -9.851   8.355  70.021  1.00  0.00    -0.182 C  
HETATM   33  H   UNL     2     -10.388   8.336  71.930  1.00  0.00     0.000 HD 
HETATM   34  O   UNL     2     -10.694   8.719  71.116  1.00  0.00    -0.216 OA 
BRANCH  32  35
HETATM   35  C   UNL     2      -9.703   6.789  70.064  1.00  0.00    -0.163 C  
HETATM   36  C   UNL     2      -9.422   5.143  71.961  1.00  0.00    -0.182 C  
HETATM   37  C   UNL     2      -9.061   4.122  70.868  1.00  0.00    -0.180 C  
HETATM   38  C   UNL     2      -8.326   4.831  69.720  1.00  0.00    -0.075 C  
HETATM   39  C   UNL     2     -10.374   6.168  71.317  1.00  0.00    -0.264 C  
HETATM   40  N   UNL     2      -8.288   6.298  69.926  1.00  0.00    -0.127 NA 
HETATM   41  C   UNL     2      -7.491   6.536  71.159  1.00  0.00    -0.085 C  
HETATM   42  C   UNL     2      -8.159   5.917  72.415  1.00  0.00    -0.110 C  
BRANCH  42  43
HETATM   43  C   UNL     2      -7.194   5.041  73.181  1.00  0.00    -0.086 C  
HETATM   44  C   UNL     2      -7.349   4.680  74.462  1.00  0.00    -0.077 C  
ENDBRANCH  42  43
ENDBRANCH  32  35
ENDBRANCH  29  32
ENDBRANCH   4  22
TORSDOF 6
ENDMDL
MODEL      281
REMARK 921   NORMALIZED FREE ENERGY PREDICTED BY IDOCK:    5.38 KCAL/MOL
REMARK 922        TOTAL FREE ENERGY PREDICTED BY IDOCK:    4.19 KCAL/MOL
REMARK 923 INTER-LIGAND FREE ENERGY PREDICTED BY IDOCK:    2.18 KCAL/MOL
REMARK 924 INTRA-LIGAND FREE ENERGY PREDICTED BY IDOCK:    2.01 KCAL/MOL
REMARK 927      BINDING AFFINITY PREDICTED BY RF-SCORE:    0.00 PKD
ROOT
HETATM    1  C   UNL     1      -5.138  11.289  69.966  1.00  0.00    -0.055 C  
HETATM    2  C   UNL     1      -6.509  10.924  70.530  1.00  0.00     0.057 C  
HETATM    3  C   UNL     2      -5.949  13.098  67.120  1.00  0.00     0.390 C  
HETATM    4  O   UNL     2      -6.966  12.848  68.076  1.00  0.00    -0.082 OA 
ENDROOT
BRANCH   2   5
HETATM    5  C   UNL     1      -7.043   9.483  70.229  1.00  0.00    -0.110 C  
HETATM    6  O   UNL     1      -9.278  10.104  69.394  1.00  0.00    -0.197 OA 
HETATM    7  C   UNL     1      -6.540   8.660  71.428  1.00  0.00    -0.072 C  
HETATM    8  C   UNL     1      -8.592   9.508  70.228  1.00  0.00    -0.226 C  
HETATM    9  H   UNL     1     -10.186   8.494  71.028  1.00  0.00     0.000 HD 
HETATM   10  N   UNL     1      -7.346   8.671  72.532  1.00  0.00    -0.019 N  
HETATM   11  O   UNL     1      -5.457   8.089  71.473  1.00  0.00    -0.034 OA 
HETATM   12  O   UNL     1      -9.290   7.783  73.237  1.00  0.00    -0.217 OA 
HETATM   13  N   UNL     1      -9.220   8.773  71.201  1.00  0.00    -0.214 N  
HETATM   14  C   UNL     1      -8.659   8.388  72.373  1.00  0.00    -0.193 C  
HETATM   15  H   UNL     1      -6.966   8.887  73.454  1.00  0.00     0.000 HD 
BRANCH   5  16
HETATM   16  C   UNL     1      -6.496   8.949  68.888  1.00  0.00    -0.048 A  
HETATM   17  C   UNL     1      -6.052   7.083  67.382  1.00  0.00    -0.040 A  
HETATM   18  C   UNL     1      -6.275   7.577  68.670  1.00  0.00    -0.032 A  
HETATM   19  C   UNL     1      -6.309   9.817  67.798  1.00  0.00    -0.053 A  
HETATM   20  C   UNL     1      -6.011   7.953  66.297  1.00  0.00    -0.041 A  
HETATM   21  C   UNL     1      -6.105   9.323  66.510  1.00  0.00    -0.064 A  
ENDBRANCH   5  16
ENDBRANCH   2   5
BRANCH   4  22
HETATM   22  C   UNL     2      -8.184  12.487  67.592  1.00  0.00    -0.172 A  
HETATM   23  C   UNL     2      -8.519  11.275  67.023  1.00  0.00    -0.150 A  
HETATM   24  C   UNL     2     -10.495  13.297  67.299  1.00  0.00    -0.247 A  
HETATM   25  C   UNL     2     -12.793  13.941  66.904  1.00  0.00     0.547 A  
HETATM   26  C   UNL     2      -9.832  11.073  66.589  1.00  0.00    -0.235 A  
HETATM   27  C   UNL     2     -12.985  12.698  66.325  1.00  0.00     1.735 A  
HETATM   28  C   UNL     2      -9.177  13.441  67.788  1.00  0.00    -0.211 A  
HETATM   29  C   UNL     2     -11.526  14.288  67.399  1.00  0.00    -0.368 A  
HETATM   30  C   UNL     2     -10.808  12.061  66.680  1.00  0.00    -0.272 A  
HETATM   31  N   UNL     2     -12.020  11.771  66.197  1.00  0.00    -0.385 NA 
BRANCH  29  32
HETATM   32  C   UNL     2     -11.332  15.645  68.106  1.00  0.00    -0.340 C  
HETATM   33  H   UNL     2     -12.384  17.293  68.440  1.00  0.00     0.000 HD 
HETATM   34  O   UNL     2     -12.504  16.457  68.005  1.00  0.00     1.062 OA 
BRANCH  32  35
HETATM   35  C   UNL     2     -10.936  15.607  69.628  1.00  0.00    -0.288 C  
HETATM   36  C   UNL     2     -11.627  14.110  71.544  1.00  0.00     0.431 C  
HETATM   37  C   UNL     2     -10.960  15.158  72.451  1.00  0.00     0.432 C  
HETATM   38  C   UNL     2     -11.138  16.558  71.842  1.00  0.00     0.738 C  
HETATM   39  C   UNL     2     -10.895  14.162  70.190  1.00  0.00     0.269 C  
HETATM   40  N   UNL     2     -11.778  16.490  70.507  1.00  0.00     0.050 NA 
HETATM   41  C   UNL     2     -13.142  15.935  70.716  1.00  0.00     0.205 C  
HETATM   42  C   UNL     2     -13.106  14.490  71.277  1.00  0.00    -0.417 C  
BRANCH  42  43
HETATM   43  C   UNL     2     -13.964  14.353  72.513  1.00  0.00    -0.508 C  
HETATM   44  C   UNL     2     -14.326  13.186  73.061  1.00  0.00     1.551 C  
ENDBRANCH  42  43
ENDBRANCH  32  35
ENDBRANCH  29  32
ENDBRANCH   4  22
TORSDOF 6
ENDMDL
MODEL      282
REMARK 921   NORMALIZED FREE ENERGY PREDICTED BY IDOCK:    5.79 KCAL/MOL
REMARK 922        TOTAL FREE ENERGY PREDICTED BY IDOCK:    4.74 KCAL/MOL
REMARK 923 INTER-LIGAND FREE ENERGY PREDICTED BY IDOCK:    1.33 KCAL/MOL
REMARK 924 INTRA-LIGAND FREE ENERGY PREDICTED BY IDOCK:    3.41 KCAL/MOL
REMARK 927      BINDING AFFINITY PREDICTED BY RF-SCORE:    0.00 PKD
ROOT
HETATM    1  C   UNL     1      -7.560   6.150  71.521  1.00  0.00    -0.099 C  
HETATM    2  C   UNL     1      -8.826   6.203  72.373  1.00  0.00    -0.136 C  
HETATM    3  C   UNL     2      -7.466   9.317  70.111  1.00  0.00    -0.098 C  
HETATM    4  O   UNL     2      -8.339   9.089  71.205  1.00  0.00    -0.173 OA 
ENDROOT
BRANCH   2   5
HETATM    5  C   UNL     1     -10.118   5.555  71.768  1.00  0.00    -0.247 C  
HETATM    6  O   UNL     1     -10.297   3.633  73.302  1.00  0.00    -0.143 OA 
HETATM    7  C   UNL     1      -9.911   5.696  70.251  1.00  0.00    -0.194 C  
HETATM    8  C   UNL     1     -10.158   4.055  72.151  1.00  0.00    -0.163 C  
HETATM    9  H   UNL     1     -10.435   2.214  71.289  1.00  0.00     0.000 HD 
HETATM   10  N   UNL     1      -9.195   4.695  69.657  1.00  0.00    -0.113 N  
HETATM   11  O   UNL     1     -10.264   6.665  69.588  1.00  0.00    -0.177 OA 
HETATM   12  O   UNL     1      -9.456   2.550  69.028  1.00  0.00    -0.150 OA 
HETATM   13  N   UNL     1     -10.077   3.154  71.120  1.00  0.00     0.081 N  
HETATM   14  C   UNL     1      -9.560   3.414  69.895  1.00  0.00    -0.127 C  
HETATM   15  H   UNL     1      -8.405   4.908  69.048  1.00  0.00     0.000 HD 
BRANCH   5  16
HETATM   16  C   UNL     1     -11.390   6.285  72.251  1.00  0.00    -0.337 A  
HETATM   17  C   UNL     1     -12.437   8.094  73.508  1.00  0.00     2.378 A  
HETATM   18  C   UNL     1     -11.349   7.249  73.275  1.00  0.00    -0.060 A  
HETATM   19  C   UNL     1     -12.618   6.087  71.596  1.00  0.00     0.489 A  
HETATM   20  C   UNL     1     -13.595   7.968  72.748  1.00  0.00     0.376 A  
HETATM   21  C   UNL     1     -13.697   6.943  71.815  1.00  0.00    -0.244 A  
ENDBRANCH   5  16
ENDBRANCH   2   5
BRANCH   4  22
HETATM   22  C   UNL     2      -9.585   9.626  71.114  1.00  0.00     0.193 A  
HETATM   23  C   UNL     2     -10.676   9.317  71.901  1.00  0.00    -0.209 A  
HETATM   24  C   UNL     2     -10.917  11.286  69.868  1.00  0.00    -0.096 A  
HETATM   25  C   UNL     2     -12.377  12.844  68.730  1.00  0.00     0.175 A  
HETATM   26  C   UNL     2     -11.883   9.983  71.673  1.00  0.00    -0.315 A  
HETATM   27  C   UNL     2     -13.395  12.416  69.565  1.00  0.00     2.673 A  
HETATM   28  C   UNL     2      -9.696  10.643  70.172  1.00  0.00     0.588 A  
HETATM   29  C   UNL     2     -11.099  12.275  68.846  1.00  0.00    -0.291 A  
HETATM   30  C   UNL     2     -12.036  10.924  70.660  1.00  0.00    -0.368 A  
HETATM   31  N   UNL     2     -13.247  11.468  70.507  1.00  0.00     0.320 NA 
BRANCH  29  32
HETATM   32  C   UNL     2      -9.949  12.801  67.963  1.00  0.00    -0.225 C  
HETATM   33  H   UNL     2      -8.676  12.081  66.624  1.00  0.00     0.000 HD 
HETATM   34  O   UNL     2      -9.384  11.757  67.167  1.00  0.00    -0.172 OA 
BRANCH  32  35
HETATM   35  C   UNL     2     -10.285  13.985  66.984  1.00  0.00    -0.261 C  
HETATM   36  C   UNL     2      -8.942  15.958  66.151  1.00  0.00    -0.376 C  
HETATM   37  C   UNL     2     -10.284  16.508  65.638  1.00  0.00    -0.316 C  
HETATM   38  C   UNL     2     -11.414  16.089  66.591  1.00  0.00     0.409 C  
HETATM   39  C   UNL     2      -9.057  14.422  66.144  1.00  0.00    -0.043 C  
HETATM   40  N   UNL     2     -10.919  15.176  67.649  1.00  0.00    -0.300 NA 
HETATM   41  C   UNL     2      -9.940  15.952  68.457  1.00  0.00    -0.216 C  
HETATM   42  C   UNL     2      -8.709  16.390  67.622  1.00  0.00    -0.188 C  
BRANCH  42  43
HETATM   43  C   UNL     2      -8.452  17.874  67.749  1.00  0.00    -0.242 C  
HETATM   44  C   UNL     2      -8.026  18.660  66.751  1.00  0.00    -0.266 C  
ENDBRANCH  42  43
ENDBRANCH  32  35
ENDBRANCH  29  32
ENDBRANCH   4  22
TORSDOF 6
ENDMDL
MODEL      283
REMARK 921   NORMALIZED FREE ENERGY PREDICTED BY IDOCK:    6.42 KCAL/MOL
REMARK 922        TOTAL FREE ENERGY PREDICTED BY IDOCK:    5.60 KCAL/MOL
REMARK 923 INTER-LIGAND FREE ENERGY PREDICTED BY IDOCK:    3.24 KCAL/MOL
REMARK 924 INTRA-LIGAND FREE ENERGY PREDICTED BY IDOCK:    2.35 KCAL/MOL
REMARK 927      BINDING AFFINITY PREDICTED BY RF-SCORE:    0.00 PKD
ROOT
HETATM    1  C   UNL     1      -9.248  12.025  66.953  1.00  0.00    -0.197 C  
HETATM    2  C   UNL     1     -10.113  13.270  67.130  1.00  0.00    -0.239 C  
HETATM    3  C   UNL     2      -6.056  13.228  67.582  1.00  0.00    -0.135 C  
HETATM    4  O   UNL     2      -7.166  14.030  67.948  1.00  0.00    -0.122 OA 
ENDROOT
BRANCH   2   5
HETATM    5  C   UNL     1     -10.554  14.022  65.828  1.00  0.00    -0.303 C  
HETATM    6  O   UNL     1      -8.310  14.531  64.941  1.00  0.00     4.236 OA 
HETATM    7  C   UNL     1     -11.738  14.884  66.299  1.00  0.00    -0.177 C  
HETATM    8  C   UNL     1      -9.397  14.939  65.358  1.00  0.00     0.326 C  
HETATM    9  H   UNL     1      -9.058  16.875  64.771  1.00  0.00     0.000 HD 
HETATM   10  N   UNL     1     -11.410  16.101  66.828  1.00  0.00     0.172 N  
HETATM   11  O   UNL     1     -12.907  14.516  66.305  1.00  0.00    -0.086 OA 
HETATM   12  O   UNL     1     -10.711  18.128  66.144  1.00  0.00    -0.320 OA 
HETATM   13  N   UNL     1      -9.637  16.289  65.373  1.00  0.00     0.045 N  
HETATM   14  C   UNL     1     -10.581  16.906  66.124  1.00  0.00    -0.194 C  
HETATM   15  H   UNL     1     -11.780  16.396  67.731  1.00  0.00     0.000 HD 
BRANCH   5  16
HETATM   16  C   UNL     1     -10.962  13.031  64.718  1.00  0.00    -0.349 A  
HETATM   17  C   UNL     1     -10.857  10.801  63.737  1.00  0.00     0.190 A  
HETATM   18  C   UNL     1     -10.307  11.797  64.548  1.00  0.00    -0.340 A  
HETATM   19  C   UNL     1     -12.085  13.285  63.911  1.00  0.00    -0.531 A  
HETATM   20  C   UNL     1     -12.048  11.030  63.057  1.00  0.00     1.326 A  
HETATM   21  C   UNL     1     -12.644  12.284  63.117  1.00  0.00    -0.270 A  
ENDBRANCH   5  16
ENDBRANCH   2   5
BRANCH   4  22
HETATM   22  C   UNL     2      -7.077  15.360  67.674  1.00  0.00    -0.180 A  
HETATM   23  C   UNL     2      -6.207  15.962  66.787  1.00  0.00     0.516 A  
HETATM   24  C   UNL     2      -8.074  17.546  68.227  1.00  0.00    -0.268 A  
HETATM   25  C   UNL     2      -8.911  19.771  68.676  1.00  0.00    -0.244 A  
HETATM   26  C   UNL     2      -6.265  17.348  66.621  1.00  0.00    -0.239 A  
HETATM   27  C   UNL     2      -7.965  20.248  67.784  1.00  0.00    -0.232 A  
HETATM   28  C   UNL     2      -8.034  16.136  68.317  1.00  0.00    -0.152 A  
HETATM   29  C   UNL     2      -8.984  18.394  68.940  1.00  0.00    -0.171 A  
HETATM   30  C   UNL     2      -7.146  18.149  67.342  1.00  0.00    -0.198 A  
HETATM   31  N   UNL     2      -7.086  19.467  67.132  1.00  0.00    -0.202 NA 
BRANCH  29  32
HETATM   32  C   UNL     2     -10.082  17.858  69.880  1.00  0.00     0.725 C  
HETATM   33  H   UNL     2     -11.828  18.465  70.599  1.00  0.00     0.000 HD 
HETATM   34  O   UNL     2     -11.151  18.796  70.020  1.00  0.00     2.117 OA 
BRANCH  32  35
HETATM   35  C   UNL     2     -10.736  16.478  69.500  1.00  0.00    -0.321 C  
HETATM   36  C   UNL     2     -12.815  15.286  70.303  1.00  0.00    -0.298 C  
HETATM   37  C   UNL     2     -12.249  14.053  69.577  1.00  0.00    -0.355 C  
HETATM   38  C   UNL     2     -10.714  14.065  69.659  1.00  0.00     0.106 C  
HETATM   39  C   UNL     2     -12.285  16.525  69.558  1.00  0.00     0.957 C  
HETATM   40  N   UNL     2     -10.215  15.309  70.291  1.00  0.00    -0.171 NA 
HETATM   41  C   UNL     2     -10.720  15.310  71.690  1.00  0.00     0.378 C  
HETATM   42  C   UNL     2     -12.269  15.358  71.752  1.00  0.00    -0.450 C  
BRANCH  42  43
HETATM   43  C   UNL     2     -12.823  14.258  72.628  1.00  0.00    -0.468 C  
HETATM   44  C   UNL     2     -13.924  13.547  72.350  1.00  0.00    -0.638 C  
ENDBRANCH  42  43
ENDBRANCH  32  35
ENDBRANCH  29  32
ENDBRANCH   4  22
TORSDOF 6
ENDMDL
MODEL      284
REMARK 921   NORMALIZED FREE ENERGY PREDICTED BY IDOCK:    6.74 KCAL/MOL
REMARK 922        TOTAL FREE ENERGY PREDICTED BY IDOCK:    6.03 KCAL/MOL
REMARK 923 INTER-LIGAND FREE ENERGY PREDICTED BY IDOCK:   -1.29 KCAL/MOL
REMARK 924 INTRA-LIGAND FREE ENERGY PREDICTED BY IDOCK:    7.32 KCAL/MOL
REMARK 927      BINDING AFFINITY PREDICTED BY RF-SCORE:    0.00 PKD
ROOT
HETATM    1  C   UNL     1     -10.934  15.419  67.800  1.00  0.00    -0.311 C  
HETATM    2  C   UNL     1      -9.628  14.976  68.455  1.00  0.00    -0.210 C  
HETATM    3  C   UNL     2     -12.540  12.403  67.204  1.00  0.00     1.447 C  
HETATM    4  O   UNL     2     -11.425  12.415  68.080  1.00  0.00    -0.271 OA 
ENDROOT
BRANCH   2   5
HETATM    5  C   UNL     1      -8.357  14.918  67.541  1.00  0.00    -0.195 C  
HETATM    6  O   UNL     1      -7.148  13.131  68.736  1.00  0.00    -0.100 OA 
HETATM    7  C   UNL     1      -8.060  16.399  67.249  1.00  0.00    -0.171 C  
HETATM    8  C   UNL     1      -7.185  14.301  68.345  1.00  0.00    -0.113 C  
HETATM    9  H   UNL     1      -5.216  14.665  68.793  1.00  0.00     0.000 HD 
HETATM   10  N   UNL     1      -7.296  17.043  68.181  1.00  0.00    -0.186 N  
HETATM   11  O   UNL     1      -8.527  17.028  66.308  1.00  0.00    -0.288 OA 
HETATM   12  O   UNL     1      -5.151  17.150  68.854  1.00  0.00    -0.140 OA 
HETATM   13  N   UNL     1      -6.107  15.115  68.586  1.00  0.00    -0.084 N  
HETATM   14  C   UNL     1      -6.134  16.470  68.569  1.00  0.00    -0.129 C  
HETATM   15  H   UNL     1      -7.594  17.936  68.576  1.00  0.00     0.000 HD 
BRANCH   5  16
HETATM   16  C   UNL     1      -8.629  14.115  66.252  1.00  0.00     0.467 A  
HETATM   17  C   UNL     1      -8.641  11.992  65.050  1.00  0.00     1.060 A  
HETATM   18  C   UNL     1      -8.159  12.799  66.084  1.00  0.00     1.057 A  
HETATM   19  C   UNL     1      -9.459  14.639  65.246  1.00  0.00     0.289 A  
HETATM   20  C   UNL     1      -9.572  12.495  64.148  1.00  0.00     0.190 A  
HETATM   21  C   UNL     1      -9.955  13.828  64.225  1.00  0.00     0.657 A  
ENDBRANCH   5  16
ENDBRANCH   2   5
BRANCH   4  22
HETATM   22  C   UNL     2     -10.532  11.398  67.946  1.00  0.00    -0.184 A  
HETATM   23  C   UNL     2      -9.747  11.130  66.842  1.00  0.00    -0.216 A  
HETATM   24  C   UNL     2      -9.549   9.483  69.148  1.00  0.00    -0.170 A  
HETATM   25  C   UNL     2      -8.507   7.550  70.164  1.00  0.00    -0.136 A  
HETATM   26  C   UNL     2      -8.870  10.043  66.886  1.00  0.00    -0.142 A  
HETATM   27  C   UNL     2      -7.806   7.375  68.983  1.00  0.00    -0.120 A  
HETATM   28  C   UNL     2     -10.373  10.629  69.094  1.00  0.00    -0.242 A  
HETATM   29  C   UNL     2      -9.421   8.609  70.278  1.00  0.00    -0.182 A  
HETATM   30  C   UNL     2      -8.782   9.200  67.990  1.00  0.00    -0.129 A  
HETATM   31  N   UNL     2      -7.938   8.167  67.906  1.00  0.00    -0.125 NA 
BRANCH  29  32
HETATM   32  C   UNL     2     -10.150   8.844  71.617  1.00  0.00    -0.341 C  
HETATM   33  H   UNL     2     -11.673   9.919  72.293  1.00  0.00     0.000 HD 
HETATM   34  O   UNL     2     -11.225   9.775  71.468  1.00  0.00    -0.360 OA 
BRANCH  32  35
HETATM   35  C   UNL     2     -10.742   7.579  72.340  1.00  0.00    -0.263 C  
HETATM   36  C   UNL     2      -9.867   5.233  72.683  1.00  0.00    -0.188 C  
HETATM   37  C   UNL     2     -11.299   4.888  73.127  1.00  0.00    -0.395 C  
HETATM   38  C   UNL     2     -12.305   5.734  72.332  1.00  0.00     0.175 C  
HETATM   39  C   UNL     2      -9.642   6.719  73.016  1.00  0.00    -0.168 C  
HETATM   40  N   UNL     2     -11.618   6.722  71.468  1.00  0.00    -0.283 NA 
HETATM   41  C   UNL     2     -10.829   5.945  70.474  1.00  0.00    -0.296 C  
HETATM   42  C   UNL     2      -9.728   5.084  71.146  1.00  0.00    -0.241 C  
BRANCH  42  43
HETATM   43  C   UNL     2      -9.802   3.642  70.701  1.00  0.00    -0.128 C  
HETATM   44  C   UNL     2      -8.737   2.869  70.450  1.00  0.00    -0.128 C  
ENDBRANCH  42  43
ENDBRANCH  32  35
ENDBRANCH  29  32
ENDBRANCH   4  22
TORSDOF 6
ENDMDL
MODEL      285
REMARK 921   NORMALIZED FREE ENERGY PREDICTED BY IDOCK:    7.29 KCAL/MOL
REMARK 922        TOTAL FREE ENERGY PREDICTED BY IDOCK:    6.76 KCAL/MOL
REMARK 923 INTER-LIGAND FREE ENERGY PREDICTED BY IDOCK:   -0.15 KCAL/MOL
REMARK 924 INTRA-LIGAND FREE ENERGY PREDICTED BY IDOCK:    6.91 KCAL/MOL
REMARK 927      BINDING AFFINITY PREDICTED BY RF-SCORE:    0.00 PKD
ROOT
HETATM    1  C   UNL     1      -9.434  12.793  66.152  1.00  0.00    -0.169 C  
HETATM    2  C   UNL     1     -10.807  13.081  66.755  1.00  0.00    -0.285 C  
HETATM    3  C   UNL     2      -8.913   9.473  67.008  1.00  0.00    -0.134 C  
HETATM    4  O   UNL     2     -10.220  10.008  67.135  1.00  0.00    -0.203 OA 
ENDROOT
BRANCH   2   5
HETATM    5  C   UNL     1     -10.838  13.828  68.132  1.00  0.00    -0.261 C  
HETATM    6  O   UNL     1      -9.208  12.419  69.332  1.00  0.00     0.748 OA 
HETATM    7  C   UNL     1     -12.330  14.144  68.332  1.00  0.00     0.017 C  
HETATM    8  C   UNL     1     -10.357  12.861  69.242  1.00  0.00     0.326 C  
HETATM    9  H   UNL     1     -10.914  12.191  71.099  1.00  0.00     0.000 HD 
HETATM   10  N   UNL     1     -13.071  13.154  68.913  1.00  0.00     1.461 N  
HETATM   11  O   UNL     1     -12.884  15.163  67.934  1.00  0.00     1.047 OA 
HETATM   12  O   UNL     1     -13.396  12.228  70.938  1.00  0.00     0.189 OA 
HETATM   13  N   UNL     1     -11.274  12.525  70.205  1.00  0.00     0.417 N  
HETATM   14  C   UNL     1     -12.620  12.602  70.063  1.00  0.00     0.161 C  
HETATM   15  H   UNL     1     -13.944  12.838  68.490  1.00  0.00     0.000 HD 
BRANCH   5  16
HETATM   16  C   UNL     1      -9.973  15.106  68.096  1.00  0.00    -0.221 A  
HETATM   17  C   UNL     1      -9.070  17.010  66.868  1.00  0.00    -0.253 A  
HETATM   18  C   UNL     1      -9.605  15.719  66.884  1.00  0.00    -0.243 A  
HETATM   19  C   UNL     1      -9.622  15.764  69.288  1.00  0.00    -0.270 A  
HETATM   20  C   UNL     1      -8.862  17.696  68.060  1.00  0.00    -0.257 A  
HETATM   21  C   UNL     1      -9.106  17.060  69.271  1.00  0.00     0.066 A  
ENDBRANCH   5  16
ENDBRANCH   2   5
BRANCH   4  22
HETATM   22  C   UNL     2     -10.911   9.673  68.259  1.00  0.00    -0.182 A  
HETATM   23  C   UNL     2     -11.718  10.504  69.009  1.00  0.00    -0.242 A  
HETATM   24  C   UNL     2     -11.407   7.784  69.763  1.00  0.00     0.079 A  
HETATM   25  C   UNL     2     -11.972   6.053  71.357  1.00  0.00     0.060 A  
HETATM   26  C   UNL     2     -12.364   9.983  70.132  1.00  0.00    -0.068 A  
HETATM   27  C   UNL     2     -12.722   6.999  72.035  1.00  0.00    -0.193 A  
HETATM   28  C   UNL     2     -10.824   8.327  68.596  1.00  0.00     0.031 A  
HETATM   29  C   UNL     2     -11.271   6.424  70.198  1.00  0.00    -0.454 A  
HETATM   30  C   UNL     2     -12.198   8.664  70.543  1.00  0.00     0.209 A  
HETATM   31  N   UNL     2     -12.833   8.284  71.656  1.00  0.00    -0.324 NA 
BRANCH  29  32
HETATM   32  C   UNL     2     -10.493   5.355  69.406  1.00  0.00    -0.261 C  
HETATM   33  H   UNL     2     -10.332   4.746  67.525  1.00  0.00     0.000 HD 
HETATM   34  O   UNL     2     -10.811   5.405  68.013  1.00  0.00    -0.094 OA 
BRANCH  32  35
HETATM   35  C   UNL     2      -8.924   5.386  69.514  1.00  0.00    -0.105 C  
HETATM   36  C   UNL     2      -7.316   4.712  71.343  1.00  0.00    -0.068 C  
HETATM   37  C   UNL     2      -6.251   5.465  70.526  1.00  0.00    -0.026 C  
HETATM   38  C   UNL     2      -6.896   6.669  69.822  1.00  0.00    -0.055 C  
HETATM   39  C   UNL     2      -8.366   4.199  70.341  1.00  0.00    -0.083 C  
HETATM   40  N   UNL     2      -8.365   6.688  70.019  1.00  0.00    -0.133 NA 
HETATM   41  C   UNL     2      -8.597   6.869  71.477  1.00  0.00    -0.122 C  
HETATM   42  C   UNL     2      -8.042   5.683  72.308  1.00  0.00    -0.108 C  
BRANCH  42  43
HETATM   43  C   UNL     2      -7.143   6.162  73.425  1.00  0.00    -0.084 C  
HETATM   44  C   UNL     2      -6.380   7.262  73.366  1.00  0.00    -0.064 C  
ENDBRANCH  42  43
ENDBRANCH  32  35
ENDBRANCH  29  32
ENDBRANCH   4  22
TORSDOF 6
ENDMDL
MODEL      286
REMARK 921   NORMALIZED FREE ENERGY PREDICTED BY IDOCK:    7.55 KCAL/MOL
REMARK 922        TOTAL FREE ENERGY PREDICTED BY IDOCK:    7.12 KCAL/MOL
REMARK 923 INTER-LIGAND FREE ENERGY PREDICTED BY IDOCK:   -0.53 KCAL/MOL
REMARK 924 INTRA-LIGAND FREE ENERGY PREDICTED BY IDOCK:    7.65 KCAL/MOL
REMARK 927      BINDING AFFINITY PREDICTED BY RF-SCORE:    0.00 PKD
ROOT
HETATM    1  C   UNL     1     -11.782  12.406  66.843  1.00  0.00    -0.432 C  
HETATM    2  C   UNL     1     -12.401  11.986  68.174  1.00  0.00     0.545 C  
HETATM    3  C   UNL     2     -10.603   9.400  65.576  1.00  0.00     1.166 C  
HETATM    4  O   UNL     2     -11.512   9.366  66.664  1.00  0.00     0.929 OA 
ENDROOT
BRANCH   2   5
HETATM    5  C   UNL     1     -11.542  12.218  69.463  1.00  0.00    -0.366 C  
HETATM    6  O   UNL     1     -13.123  13.667  70.680  1.00  0.00    -0.135 OA 
HETATM    7  C   UNL     1     -10.119  12.414  68.913  1.00  0.00     0.038 C  
HETATM    8  C   UNL     1     -12.016  13.520  70.158  1.00  0.00    -0.329 C  
HETATM    9  H   UNL     1     -11.254  15.254  70.943  1.00  0.00     0.000 HD 
HETATM   10  N   UNL     1      -9.802  13.689  68.535  1.00  0.00    -0.303 N  
HETATM   11  O   UNL     1      -9.317  11.508  68.721  1.00  0.00    -0.169 OA 
HETATM   12  O   UNL     1      -9.293  15.671  69.472  1.00  0.00    -0.264 OA 
HETATM   13  N   UNL     1     -11.110  14.547  70.223  1.00  0.00    -0.109 N  
HETATM   14  C   UNL     1     -10.038  14.696  69.407  1.00  0.00    -0.055 C  
HETATM   15  H   UNL     1      -9.397  13.877  67.618  1.00  0.00     0.000 HD 
BRANCH   5  16
HETATM   16  C   UNL     1     -11.633  11.013  70.423  1.00  0.00    -0.389 A  
HETATM   17  C   UNL     1     -10.536   9.307  71.778  1.00  0.00    -0.286 A  
HETATM   18  C   UNL     1     -10.515  10.207  70.710  1.00  0.00     0.022 A  
HETATM   19  C   UNL     1     -12.818  10.753  71.133  1.00  0.00    -0.513 A  
HETATM   20  C   UNL     1     -11.682   9.171  72.555  1.00  0.00     0.157 A  
HETATM   21  C   UNL     1     -12.833   9.869  72.211  1.00  0.00    -0.345 A  
ENDBRANCH   5  16
ENDBRANCH   2   5
BRANCH   4  22
HETATM   22  C   UNL     2     -11.237   8.483  67.662  1.00  0.00     0.700 A  
HETATM   23  C   UNL     2     -11.848   8.419  68.898  1.00  0.00     1.820 A  
HETATM   24  C   UNL     2      -9.814   6.552  68.233  1.00  0.00    -0.132 A  
HETATM   25  C   UNL     2      -8.477   4.675  68.970  1.00  0.00    -0.088 A  
HETATM   26  C   UNL     2     -11.445   7.432  69.800  1.00  0.00     0.038 A  
HETATM   27  C   UNL     2      -9.146   4.744  70.180  1.00  0.00    -0.104 A  
HETATM   28  C   UNL     2     -10.295   7.519  67.322  1.00  0.00    -0.366 A  
HETATM   29  C   UNL     2      -8.781   5.597  67.956  1.00  0.00    -0.099 A  
HETATM   30  C   UNL     2     -10.425   6.530  69.511  1.00  0.00    -0.222 A  
HETATM   31  N   UNL     2     -10.095   5.653  70.465  1.00  0.00    -0.203 NA 
BRANCH  29  32
HETATM   32  C   UNL     2      -8.085   5.476  66.585  1.00  0.00    -0.105 C  
HETATM   33  H   UNL     2      -8.600   5.468  64.670  1.00  0.00     0.000 HD 
HETATM   34  O   UNL     2      -9.029   5.543  65.514  1.00  0.00    -0.160 OA 
BRANCH  32  35
HETATM   35  C   UNL     2      -6.957   6.524  66.262  1.00  0.00    -0.066 C  
HETATM   36  C   UNL     2      -6.061   8.525  67.520  1.00  0.00    -0.052 C  
HETATM   37  C   UNL     2      -5.360   8.895  66.202  1.00  0.00    -0.037 C  
HETATM   38  C   UNL     2      -6.233   8.465  65.013  1.00  0.00    -0.052 C  
HETATM   39  C   UNL     2      -6.205   6.992  67.535  1.00  0.00    -0.041 C  
HETATM   40  N   UNL     2      -7.426   7.709  65.463  1.00  0.00    -0.074 NA 
HETATM   41  C   UNL     2      -8.243   8.647  66.279  1.00  0.00    -0.116 C  
HETATM   42  C   UNL     2      -7.494   9.116  67.554  1.00  0.00    -0.088 C  
BRANCH  42  43
HETATM   43  C   UNL     2      -7.490  10.623  67.671  1.00  0.00    -0.091 C  
HETATM   44  C   UNL     2      -8.083  11.454  66.804  1.00  0.00    -0.161 C  
ENDBRANCH  42  43
ENDBRANCH  32  35
ENDBRANCH  29  32
ENDBRANCH   4  22
TORSDOF 6
ENDMDL
MODEL      287
REMARK 921   NORMALIZED FREE ENERGY PREDICTED BY IDOCK:    7.68 KCAL/MOL
REMARK 922        TOTAL FREE ENERGY PREDICTED BY IDOCK:    7.29 KCAL/MOL
REMARK 923 INTER-LIGAND FREE ENERGY PREDICTED BY IDOCK:    6.02 KCAL/MOL
REMARK 924 INTRA-LIGAND FREE ENERGY PREDICTED BY IDOCK:    1.27 KCAL/MOL
REMARK 927      BINDING AFFINITY PREDICTED BY RF-SCORE:    0.00 PKD
ROOT
HETATM    1  C   UNL     1      -7.592  16.854  71.436  1.00  0.00     7.039 C  
HETATM    2  C   UNL     1      -7.115  17.202  70.028  1.00  0.00     0.895 C  
HETATM    3  C   UNL     2      -6.346  13.648  71.884  1.00  0.00     1.433 C  
HETATM    4  O   UNL     2      -5.848  14.424  70.806  1.00  0.00    -0.168 OA 
ENDROOT
BRANCH   2   5
HETATM    5  C   UNL     1      -8.154  17.048  68.865  1.00  0.00    -0.210 C  
HETATM    6  O   UNL     1      -9.637  18.923  69.470  1.00  0.00    -0.001 OA 
HETATM    7  C   UNL     1      -8.345  15.525  68.759  1.00  0.00    -0.187 C  
HETATM    8  C   UNL     1      -9.488  17.712  69.289  1.00  0.00     0.110 C  
HETATM    9  H   UNL     1     -11.498  17.308  69.357  1.00  0.00     0.000 HD 
HETATM   10  N   UNL     1      -9.282  14.987  69.597  1.00  0.00    -0.455 N  
HETATM   11  O   UNL     1      -7.668  14.787  68.053  1.00  0.00    -0.108 OA 
HETATM   12  O   UNL     1     -11.519  14.861  69.802  1.00  0.00    -0.264 OA 
HETATM   13  N   UNL     1     -10.573  16.883  69.421  1.00  0.00    -0.335 N  
HETATM   14  C   UNL     1     -10.514  15.545  69.629  1.00  0.00    -0.286 C  
HETATM   15  H   UNL     1      -9.058  14.184  70.185  1.00  0.00     0.000 HD 
BRANCH   5  16
HETATM   16  C   UNL     1      -7.622  17.659  67.552  1.00  0.00    -0.210 A  
HETATM   17  C   UNL     1      -6.084  19.154  66.391  1.00  0.00    -0.182 A  
HETATM   18  C   UNL     1      -6.777  18.784  67.546  1.00  0.00    -0.205 A  
HETATM   19  C   UNL     1      -7.877  17.035  66.319  1.00  0.00    -0.346 A  
HETATM   20  C   UNL     1      -6.249  18.430  65.215  1.00  0.00    -0.250 A  
HETATM   21  C   UNL     1      -7.171  17.391  65.171  1.00  0.00     2.131 A  
ENDBRANCH   5  16
ENDBRANCH   2   5
BRANCH   4  22
HETATM   22  C   UNL     2      -5.689  13.785  69.616  1.00  0.00    -0.100 A  
HETATM   23  C   UNL     2      -5.239  14.340  68.435  1.00  0.00    -0.105 A  
HETATM   24  C   UNL     2      -5.906  11.581  68.532  1.00  0.00    -0.045 A  
HETATM   25  C   UNL     2      -6.092   9.505  67.303  1.00  0.00    -0.056 A  
HETATM   26  C   UNL     2      -5.125  13.525  67.306  1.00  0.00     0.409 A  
HETATM   27  C   UNL     2      -5.661  10.193  66.182  1.00  0.00    -0.065 A  
HETATM   28  C   UNL     2      -5.942  12.418  69.669  1.00  0.00    -0.124 A  
HETATM   29  C   UNL     2      -6.245  10.188  68.520  1.00  0.00    -0.044 A  
HETATM   30  C   UNL     2      -5.481  12.179  67.320  1.00  0.00    -0.124 A  
HETATM   31  N   UNL     2      -5.369  11.506  66.171  1.00  0.00    -0.294 NA 
BRANCH  29  32
HETATM   32  C   UNL     2      -6.657   9.406  69.784  1.00  0.00    -0.045 C  
HETATM   33  H   UNL     2      -7.744   9.713  71.414  1.00  0.00     0.000 HD 
HETATM   34  O   UNL     2      -7.490  10.195  70.636  1.00  0.00    -0.277 OA 
BRANCH  32  35
HETATM   35  C   UNL     2      -7.399   8.036  69.566  1.00  0.00    -0.086 C  
HETATM   36  C   UNL     2      -9.781   7.292  69.969  1.00  0.00    -0.175 C  
HETATM   37  C   UNL     2      -9.247   5.863  69.762  1.00  0.00    -0.160 C  
HETATM   38  C   UNL     2      -7.809   5.766  70.293  1.00  0.00    -0.100 C  
HETATM   39  C   UNL     2      -8.880   8.229  69.145  1.00  0.00    -0.143 C  
HETATM   40  N   UNL     2      -7.302   7.089  70.730  1.00  0.00    -0.072 NA 
HETATM   41  C   UNL     2      -8.155   7.516  71.872  1.00  0.00    -0.094 C  
HETATM   42  C   UNL     2      -9.636   7.711  71.455  1.00  0.00    -0.178 C  
BRANCH  42  43
HETATM   43  C   UNL     2     -10.572   6.945  72.361  1.00  0.00    -0.240 C  
HETATM   44  C   UNL     2     -10.218   6.398  73.531  1.00  0.00    -0.262 C  
ENDBRANCH  42  43
ENDBRANCH  32  35
ENDBRANCH  29  32
ENDBRANCH   4  22
TORSDOF 6
ENDMDL
MODEL      288
REMARK 921   NORMALIZED FREE ENERGY PREDICTED BY IDOCK:    8.15 KCAL/MOL
REMARK 922        TOTAL FREE ENERGY PREDICTED BY IDOCK:    7.93 KCAL/MOL
REMARK 923 INTER-LIGAND FREE ENERGY PREDICTED BY IDOCK:   -0.74 KCAL/MOL
REMARK 924 INTRA-LIGAND FREE ENERGY PREDICTED BY IDOCK:    8.67 KCAL/MOL
REMARK 927      BINDING AFFINITY PREDICTED BY RF-SCORE:    0.00 PKD
ROOT
HETATM    1  C   UNL     1      -8.542  14.010  65.226  1.00  0.00     3.055 C  
HETATM    2  C   UNL     1      -9.980  13.544  65.438  1.00  0.00    -0.220 C  
HETATM    3  C   UNL     2      -6.724  11.098  65.716  1.00  0.00     0.189 C  
HETATM    4  O   UNL     2      -8.126  10.997  65.531  1.00  0.00    -0.083 OA 
ENDROOT
BRANCH   2   5
HETATM    5  C   UNL     1     -10.624  13.830  66.837  1.00  0.00    -0.276 C  
HETATM    6  O   UNL     1      -8.754  13.059  68.247  1.00  0.00    -0.186 OA 
HETATM    7  C   UNL     1     -12.083  13.379  66.657  1.00  0.00    -0.373 C  
HETATM    8  C   UNL     1      -9.933  12.943  67.902  1.00  0.00    -0.233 C  
HETATM    9  H   UNL     1     -10.403  11.657  69.429  1.00  0.00     0.000 HD 
HETATM   10  N   UNL     1     -12.323  12.051  66.877  1.00  0.00     0.540 N  
HETATM   11  O   UNL     1     -12.990  14.101  66.257  1.00  0.00    -0.188 OA 
HETATM   12  O   UNL     1     -12.499  10.610  68.596  1.00  0.00    -0.252 OA 
HETATM   13  N   UNL     1     -10.715  12.003  68.522  1.00  0.00    -0.226 N  
HETATM   14  C   UNL     1     -11.870  11.497  68.025  1.00  0.00    -0.217 C  
HETATM   15  H   UNL     1     -12.831  11.491  66.193  1.00  0.00     0.000 HD 
BRANCH   5  16
HETATM   16  C   UNL     1     -10.520  15.325  67.207  1.00  0.00    -0.275 A  
HETATM   17  C   UNL     1     -10.691  17.673  66.573  1.00  0.00    -0.097 A  
HETATM   18  C   UNL     1     -10.503  16.333  66.226  1.00  0.00    -0.314 A  
HETATM   19  C   UNL     1     -10.554  15.731  68.553  1.00  0.00    -0.253 A  
HETATM   20  C   UNL     1     -10.863  18.034  67.905  1.00  0.00    -0.227 A  
HETATM   21  C   UNL     1     -10.761  17.066  68.898  1.00  0.00    -0.300 A  
ENDBRANCH   5  16
ENDBRANCH   2   5
BRANCH   4  22
HETATM   22  C   UNL     2      -8.789  10.132  66.345  1.00  0.00    -0.143 A  
HETATM   23  C   UNL     2      -9.751   9.218  65.968  1.00  0.00    -0.359 A  
HETATM   24  C   UNL     2      -8.960   9.389  68.690  1.00  0.00    -0.132 A  
HETATM   25  C   UNL     2      -9.282   8.565  70.942  1.00  0.00    -0.213 A  
HETATM   26  C   UNL     2     -10.320   8.395  66.943  1.00  0.00    -0.378 A  
HETATM   27  C   UNL     2     -10.253   7.719  70.435  1.00  0.00    -0.197 A  
HETATM   28  C   UNL     2      -8.358  10.156  67.667  1.00  0.00    -0.114 A  
HETATM   29  C   UNL     2      -8.610   9.446  70.080  1.00  0.00    -0.218 A  
HETATM   30  C   UNL     2      -9.975   8.486  68.289  1.00  0.00    -0.184 A  
HETATM   31  N   UNL     2     -10.613   7.676  69.140  1.00  0.00    -0.211 NA 
BRANCH  29  32
HETATM   32  C   UNL     2      -7.481  10.338  70.633  1.00  0.00     0.564 C  
HETATM   33  H   UNL     2      -5.804  10.114  71.670  1.00  0.00     0.000 HD 
HETATM   34  O   UNL     2      -6.500   9.564  71.328  1.00  0.00    -0.195 OA 
BRANCH  32  35
HETATM   35  C   UNL     2      -6.703  11.231  69.598  1.00  0.00    -0.122 C  
HETATM   36  C   UNL     2      -5.138  13.198  69.862  1.00  0.00    -0.085 C  
HETATM   37  C   UNL     2      -5.322  13.400  68.348  1.00  0.00    -0.093 C  
HETATM   38  C   UNL     2      -6.747  12.992  67.941  1.00  0.00    -0.129 C  
HETATM   39  C   UNL     2      -5.325  11.695  70.138  1.00  0.00    -0.097 C  
HETATM   40  N   UNL     2      -7.488  12.405  69.082  1.00  0.00     0.080 NA 
HETATM   41  C   UNL     2      -7.623  13.480  70.101  1.00  0.00     1.649 C  
HETATM   42  C   UNL     2      -6.248  13.946  70.645  1.00  0.00    -0.065 C  
BRANCH  42  43
HETATM   43  C   UNL     2      -6.097  15.447  70.559  1.00  0.00     0.016 C  
HETATM   44  C   UNL     2      -6.640  16.211  69.601  1.00  0.00    -0.182 C  
ENDBRANCH  42  43
ENDBRANCH  32  35
ENDBRANCH  29  32
ENDBRANCH   4  22
TORSDOF 6
ENDMDL
MODEL      289
REMARK 921   NORMALIZED FREE ENERGY PREDICTED BY IDOCK:    8.41 KCAL/MOL
REMARK 922        TOTAL FREE ENERGY PREDICTED BY IDOCK:    8.29 KCAL/MOL
REMARK 923 INTER-LIGAND FREE ENERGY PREDICTED BY IDOCK:    7.06 KCAL/MOL
REMARK 924 INTRA-LIGAND FREE ENERGY PREDICTED BY IDOCK:    1.23 KCAL/MOL
REMARK 927      BINDING AFFINITY PREDICTED BY RF-SCORE:    0.00 PKD
ROOT
HETATM    1  C   UNL     1      -7.285  11.437  66.879  1.00  0.00    -0.144 C  
HETATM    2  C   UNL     1      -8.613  10.784  67.254  1.00  0.00    -0.130 C  
HETATM    3  C   UNL     2      -7.230  14.254  68.901  1.00  0.00    -0.125 C  
HETATM    4  O   UNL     2      -8.172  13.234  69.187  1.00  0.00     0.253 OA 
ENDROOT
BRANCH   2   5
HETATM    5  C   UNL     1      -9.825  11.030  66.292  1.00  0.00    -0.257 C  
HETATM    6  O   UNL     1      -9.455  13.431  65.870  1.00  0.00    -0.166 OA 
HETATM    7  C   UNL     1     -10.963  10.221  66.939  1.00  0.00    -0.070 C  
HETATM    8  C   UNL     1     -10.184  12.537  66.307  1.00  0.00    -0.248 C  
HETATM    9  H   UNL     1     -11.811  13.768  66.518  1.00  0.00     0.000 HD 
HETATM   10  N   UNL     1     -11.671  10.871  67.912  1.00  0.00    -0.298 N  
HETATM   11  O   UNL     1     -11.202   9.044  66.699  1.00  0.00     0.486 OA 
HETATM   12  O   UNL     1     -13.232  12.480  68.101  1.00  0.00     2.456 OA 
HETATM   13  N   UNL     1     -11.419  12.871  66.802  1.00  0.00    -0.322 N  
HETATM   14  C   UNL     1     -12.159  12.103  67.639  1.00  0.00     0.087 C  
HETATM   15  H   UNL     1     -11.828  10.437  68.822  1.00  0.00     0.000 HD 
BRANCH   5  16
HETATM   16  C   UNL     1      -9.512  10.548  64.860  1.00  0.00    -0.304 A  
HETATM   17  C   UNL     1      -8.125  10.646  62.857  1.00  0.00    -0.104 A  
HETATM   18  C   UNL     1      -8.610  11.235  64.027  1.00  0.00     0.379 A  
HETATM   19  C   UNL     1     -10.037   9.334  64.384  1.00  0.00     1.721 A  
HETATM   20  C   UNL     1      -8.557   9.379  62.480  1.00  0.00    -0.219 A  
HETATM   21  C   UNL     1      -9.539   8.738  63.226  1.00  0.00     2.064 A  
ENDBRANCH   5  16
ENDBRANCH   2   5
BRANCH   4  22
HETATM   22  C   UNL     2      -9.431  13.637  69.507  1.00  0.00     1.049 A  
HETATM   23  C   UNL     2     -10.011  14.852  69.201  1.00  0.00    -0.213 A  
HETATM   24  C   UNL     2     -11.505  12.892  70.613  1.00  0.00     0.682 A  
HETATM   25  C   UNL     2     -13.602  12.338  71.686  1.00  0.00     0.084 A  
HETATM   26  C   UNL     2     -11.328  15.090  69.600  1.00  0.00    -0.309 A  
HETATM   27  C   UNL     2     -14.048  13.604  71.345  1.00  0.00     0.270 A  
HETATM   28  C   UNL     2     -10.197  12.659  70.134  1.00  0.00     2.533 A  
HETATM   29  C   UNL     2     -12.299  11.946  71.342  1.00  0.00    -0.120 A  
HETATM   30  C   UNL     2     -12.068  14.160  70.325  1.00  0.00    -0.342 A  
HETATM   31  N   UNL     2     -13.305  14.512  70.689  1.00  0.00    -0.208 NA 
BRANCH  29  32
HETATM   32  C   UNL     2     -11.827  10.513  71.661  1.00  0.00     0.166 C  
HETATM   33  H   UNL     2     -12.619   8.699  71.789  1.00  0.00     0.000 HD 
HETATM   34  O   UNL     2     -12.909   9.581  71.593  1.00  0.00    -0.339 OA 
BRANCH  32  35
HETATM   35  C   UNL     2     -10.669   9.927  70.772  1.00  0.00    -0.280 C  
HETATM   36  C   UNL     2      -9.967   7.567  70.204  1.00  0.00    -0.192 C  
HETATM   37  C   UNL     2      -8.677   8.204  69.659  1.00  0.00    -0.142 C  
HETATM   38  C   UNL     2      -8.315   9.439  70.499  1.00  0.00    -0.197 C  
HETATM   39  C   UNL     2     -11.082   8.617  70.053  1.00  0.00    -0.161 C  
HETATM   40  N   UNL     2      -9.366   9.739  71.500  1.00  0.00     0.435 NA 
HETATM   41  C   UNL     2      -9.409   8.582  72.434  1.00  0.00    -0.278 C  
HETATM   42  C   UNL     2      -9.823   7.270  71.719  1.00  0.00    -0.175 C  
BRANCH  42  43
HETATM   43  C   UNL     2      -8.841   6.154  71.993  1.00  0.00    -0.139 C  
HETATM   44  C   UNL     2      -8.167   5.486  71.048  1.00  0.00    -0.120 C  
ENDBRANCH  42  43
ENDBRANCH  32  35
ENDBRANCH  29  32
ENDBRANCH   4  22
TORSDOF 6
ENDMDL
MODEL      290
REMARK 921   NORMALIZED FREE ENERGY PREDICTED BY IDOCK:    8.49 KCAL/MOL
REMARK 922        TOTAL FREE ENERGY PREDICTED BY IDOCK:    8.39 KCAL/MOL
REMARK 923 INTER-LIGAND FREE ENERGY PREDICTED BY IDOCK:    4.86 KCAL/MOL
REMARK 924 INTRA-LIGAND FREE ENERGY PREDICTED BY IDOCK:    3.53 KCAL/MOL
REMARK 927      BINDING AFFINITY PREDICTED BY RF-SCORE:    0.00 PKD
ROOT
HETATM    1  C   UNL     1      -7.592  16.854  71.436  1.00  0.00     7.039 C  
HETATM    2  C   UNL     1      -7.127  17.196  70.022  1.00  0.00     0.895 C  
HETATM    3  C   UNL     2      -6.319  13.661  71.899  1.00  0.00     1.433 C  
HETATM    4  O   UNL     2      -5.834  14.433  70.812  1.00  0.00    -0.168 OA 
ENDROOT
BRANCH   2   5
HETATM    5  C   UNL     1      -8.173  17.025  68.868  1.00  0.00    -0.204 C  
HETATM    6  O   UNL     1      -7.140  15.089  67.743  1.00  0.00    -0.136 OA 
HETATM    7  C   UNL     1      -8.474  18.473  68.444  1.00  0.00    -0.328 C  
HETATM    8  C   UNL     1      -7.508  16.266  67.693  1.00  0.00    -0.140 C  
HETATM    9  H   UNL     1      -7.269  16.405  65.660  1.00  0.00     0.000 HD 
HETATM   10  N   UNL     1      -7.621  19.008  67.520  1.00  0.00    -0.234 N  
HETATM   11  O   UNL     1      -9.352  19.172  68.936  1.00  0.00    -0.369 OA 
HETATM   12  O   UNL     1      -7.181  18.867  65.318  1.00  0.00    -0.471 OA 
HETATM   13  N   UNL     1      -7.373  16.953  66.514  1.00  0.00    -0.260 N  
HETATM   14  C   UNL     1      -7.368  18.304  66.393  1.00  0.00    -0.248 C  
HETATM   15  H   UNL     1      -7.184  19.916  67.676  1.00  0.00     0.000 HD 
BRANCH   5  16
HETATM   16  C   UNL     1      -9.437  16.289  69.360  1.00  0.00    -0.161 A  
HETATM   17  C   UNL     1     -10.540  14.846  70.988  1.00  0.00     0.378 A  
HETATM   18  C   UNL     1      -9.378  15.299  70.359  1.00  0.00     0.766 A  
HETATM   19  C   UNL     1     -10.710  16.671  68.901  1.00  0.00    -0.337 A  
HETATM   20  C   UNL     1     -11.781  15.347  70.609  1.00  0.00    -0.373 A  
HETATM   21  C   UNL     1     -11.869  16.234  69.543  1.00  0.00    -0.009 A  
ENDBRANCH   5  16
ENDBRANCH   2   5
BRANCH   4  22
HETATM   22  C   UNL     2      -5.679  13.786  69.625  1.00  0.00    -0.100 A  
HETATM   23  C   UNL     2      -5.241  14.336  68.437  1.00  0.00    -0.105 A  
HETATM   24  C   UNL     2      -5.886  11.573  68.558  1.00  0.00    -0.045 A  
HETATM   25  C   UNL     2      -6.065   9.486  67.346  1.00  0.00    -0.053 A  
HETATM   26  C   UNL     2      -5.129  13.514  67.313  1.00  0.00     0.409 A  
HETATM   27  C   UNL     2      -5.647  10.170  66.217  1.00  0.00    -0.057 A  
HETATM   28  C   UNL     2      -5.921  12.418  69.690  1.00  0.00    -0.124 A  
HETATM   29  C   UNL     2      -6.215  10.177  68.559  1.00  0.00    -0.044 A  
HETATM   30  C   UNL     2      -5.474  12.166  67.339  1.00  0.00    -0.124 A  
HETATM   31  N   UNL     2      -5.365  11.484  66.194  1.00  0.00    -0.294 NA 
BRANCH  29  32
HETATM   32  C   UNL     2      -6.612   9.401  69.831  1.00  0.00    -0.055 C  
HETATM   33  H   UNL     2      -7.690   9.712  71.467  1.00  0.00     0.000 HD 
HETATM   34  O   UNL     2      -7.446  10.191  70.683  1.00  0.00    -0.277 OA 
BRANCH  32  35
HETATM   35  C   UNL     2      -7.346   8.025  69.628  1.00  0.00    -0.085 C  
HETATM   36  C   UNL     2      -9.719   7.265  70.054  1.00  0.00    -0.175 C  
HETATM   37  C   UNL     2      -9.176   5.839  69.852  1.00  0.00    -0.166 C  
HETATM   38  C   UNL     2      -7.733   5.757  70.375  1.00  0.00    -0.095 C  
HETATM   39  C   UNL     2      -8.831   8.203  69.216  1.00  0.00    -0.144 C  
HETATM   40  N   UNL     2      -7.234   7.086  70.798  1.00  0.00    -0.070 NA 
HETATM   41  C   UNL     2      -8.081   7.515  71.943  1.00  0.00    -0.094 C  
HETATM   42  C   UNL     2      -9.566   7.696  71.535  1.00  0.00    -0.179 C  
BRANCH  42  43
HETATM   43  C   UNL     2     -10.491   6.930  72.453  1.00  0.00    -0.234 C  
HETATM   44  C   UNL     2     -11.669   7.387  72.898  1.00  0.00    -0.109 C  
ENDBRANCH  42  43
ENDBRANCH  32  35
ENDBRANCH  29  32
ENDBRANCH   4  22
TORSDOF 6
ENDMDL
MODEL      291
REMARK 921   NORMALIZED FREE ENERGY PREDICTED BY IDOCK:    8.61 KCAL/MOL
REMARK 922        TOTAL FREE ENERGY PREDICTED BY IDOCK:    8.55 KCAL/MOL
REMARK 923 INTER-LIGAND FREE ENERGY PREDICTED BY IDOCK:    7.52 KCAL/MOL
REMARK 924 INTRA-LIGAND FREE ENERGY PREDICTED BY IDOCK:    1.03 KCAL/MOL
REMARK 927      BINDING AFFINITY PREDICTED BY RF-SCORE:    0.00 PKD
ROOT
HETATM    1  C   UNL     1     -11.224   6.830  66.855  1.00  0.00    -0.118 C  
HETATM    2  C   UNL     1      -9.786   6.604  67.314  1.00  0.00    -0.166 C  
HETATM    3  C   UNL     2     -11.236  10.201  66.040  1.00  0.00     0.899 C  
HETATM    4  O   UNL     2      -9.987   9.553  66.222  1.00  0.00    -0.249 OA 
ENDROOT
BRANCH   2   5
HETATM    5  C   UNL     1      -9.526   6.586  68.859  1.00  0.00    -0.129 C  
HETATM    6  O   UNL     1     -10.996   4.694  69.440  1.00  0.00     0.944 OA 
HETATM    7  C   UNL     1      -9.505   8.078  69.233  1.00  0.00    -0.155 C  
HETATM    8  C   UNL     1     -10.717   5.889  69.563  1.00  0.00    -0.343 C  
HETATM    9  H   UNL     1     -12.014   6.180  71.125  1.00  0.00     0.000 HD 
HETATM   10  N   UNL     1     -10.723   8.638  69.498  1.00  0.00    -0.314 N  
HETATM   11  O   UNL     1      -8.503   8.783  69.222  1.00  0.00    -0.119 OA 
HETATM   12  O   UNL     1     -12.280   8.653  71.123  1.00  0.00    -0.293 OA 
HETATM   13  N   UNL     1     -11.467   6.662  70.412  1.00  0.00    -0.362 N  
HETATM   14  C   UNL     1     -11.541   8.015  70.377  1.00  0.00    -0.068 C  
HETATM   15  H   UNL     1     -11.010   9.505  69.043  1.00  0.00     0.000 HD 
BRANCH   5  16
HETATM   16  C   UNL     1      -8.193   5.884  69.196  1.00  0.00    -0.106 A  
HETATM   17  C   UNL     1      -6.764   4.727  70.798  1.00  0.00    -0.036 A  
HETATM   18  C   UNL     1      -7.820   5.600  70.523  1.00  0.00    -0.099 A  
HETATM   19  C   UNL     1      -7.361   5.401  68.171  1.00  0.00    -0.072 A  
HETATM   20  C   UNL     1      -6.043   4.151  69.758  1.00  0.00    -0.023 A  
HETATM   21  C   UNL     1      -6.320   4.514  68.445  1.00  0.00    -0.036 A  
ENDBRANCH   5  16
ENDBRANCH   2   5
BRANCH   4  22
HETATM   22  C   UNL     2      -9.042  10.233  66.923  1.00  0.00    -0.143 A  
HETATM   23  C   UNL     2      -7.680  10.009  66.903  1.00  0.00    -0.096 A  
HETATM   24  C   UNL     2      -8.742  12.098  68.508  1.00  0.00    -0.079 A  
HETATM   25  C   UNL     2      -8.271  13.871  70.086  1.00  0.00     2.016 A  
HETATM   26  C   UNL     2      -6.851  10.820  67.683  1.00  0.00    -0.073 A  
HETATM   27  C   UNL     2      -6.934  13.519  69.998  1.00  0.00     0.469 A  
HETATM   28  C   UNL     2      -9.542  11.305  67.655  1.00  0.00    -0.180 A  
HETATM   29  C   UNL     2      -9.227  13.154  69.349  1.00  0.00     1.151 A  
HETATM   30  C   UNL     2      -7.352  11.825  68.505  1.00  0.00    -0.103 A  
HETATM   31  N   UNL     2      -6.470  12.512  69.238  1.00  0.00    -0.104 NA 
BRANCH  29  32
HETATM   32  C   UNL     2     -10.705  13.591  69.393  1.00  0.00     0.095 C  
HETATM   33  H   UNL     2     -12.413  13.089  68.520  1.00  0.00     0.000 HD 
HETATM   34  O   UNL     2     -11.503  12.820  68.493  1.00  0.00    -0.263 OA 
BRANCH  32  35
HETATM   35  C   UNL     2     -11.423  13.541  70.792  1.00  0.00     0.597 C  
HETATM   36  C   UNL     2     -13.756  14.155  71.546  1.00  0.00    -0.394 C  
HETATM   37  C   UNL     2     -13.199  14.043  72.976  1.00  0.00    -0.354 C  
HETATM   38  C   UNL     2     -11.729  14.491  72.995  1.00  0.00     0.376 C  
HETATM   39  C   UNL     2     -12.930  13.197  70.668  1.00  0.00     0.010 C  
HETATM   40  N   UNL     2     -11.232  14.777  71.629  1.00  0.00    -0.024 NA 
HETATM   41  C   UNL     2     -12.026  15.927  71.118  1.00  0.00    -0.427 C  
HETATM   42  C   UNL     2     -13.533  15.586  70.992  1.00  0.00    -0.436 C  
BRANCH  42  43
HETATM   43  C   UNL     2     -14.394  16.612  71.692  1.00  0.00     4.349 C  
HETATM   44  C   UNL     2     -14.389  16.833  73.014  1.00  0.00     1.976 C  
ENDBRANCH  42  43
ENDBRANCH  32  35
ENDBRANCH  29  32
ENDBRANCH   4  22
TORSDOF 6
ENDMDL
MODEL      292
REMARK 921   NORMALIZED FREE ENERGY PREDICTED BY IDOCK:    8.78 KCAL/MOL
REMARK 922        TOTAL FREE ENERGY PREDICTED BY IDOCK:    8.79 KCAL/MOL
REMARK 923 INTER-LIGAND FREE ENERGY PREDICTED BY IDOCK:    3.22 KCAL/MOL
REMARK 924 INTRA-LIGAND FREE ENERGY PREDICTED BY IDOCK:    5.57 KCAL/MOL
REMARK 927      BINDING AFFINITY PREDICTED BY RF-SCORE:    0.00 PKD
ROOT
HETATM    1  C   UNL     1     -13.085   7.617  70.001  1.00  0.00     1.928 C  
HETATM    2  C   UNL     1     -12.298   8.903  70.243  1.00  0.00     0.518 C  
HETATM    3  C   UNL     2     -11.630   5.408  72.245  1.00  0.00    -0.034 C  
HETATM    4  O   UNL     2     -11.366   6.794  72.391  1.00  0.00    -0.257 OA 
ENDROOT
BRANCH   2   5
HETATM    5  C   UNL     1     -11.147   9.234  69.234  1.00  0.00    -0.031 C  
HETATM    6  O   UNL     1      -9.240   8.937  70.769  1.00  0.00    -0.183 OA 
HETATM    7  C   UNL     1     -11.703  10.427  68.438  1.00  0.00     0.082 C  
HETATM    8  C   UNL     1      -9.892   9.677  70.027  1.00  0.00    -0.246 C  
HETATM    9  H   UNL     1      -8.497  11.180  70.060  1.00  0.00     0.000 HD 
HETATM   10  N   UNL     1     -11.497  11.658  68.996  1.00  0.00    -0.265 N  
HETATM   11  O   UNL     1     -12.371  10.330  67.415  1.00  0.00     2.074 OA 
HETATM   12  O   UNL     1      -9.829  13.138  69.299  1.00  0.00     0.328 OA 
HETATM   13  N   UNL     1      -9.470  10.968  69.840  1.00  0.00     0.690 N  
HETATM   14  C   UNL     1     -10.244  11.985  69.388  1.00  0.00     0.445 C  
HETATM   15  H   UNL     1     -12.268  12.314  69.115  1.00  0.00     0.000 HD 
BRANCH   5  16
HETATM   16  C   UNL     1     -10.832   8.027  68.325  1.00  0.00     0.026 A  
HETATM   17  C   UNL     1     -11.012   5.642  67.845  1.00  0.00    -0.017 A  
HETATM   18  C   UNL     1     -11.031   6.702  68.756  1.00  0.00    -0.322 A  
HETATM   19  C   UNL     1     -10.440   8.221  66.989  1.00  0.00    -0.384 A  
HETATM   20  C   UNL     1     -10.760   5.882  66.499  1.00  0.00    -0.251 A  
HETATM   21  C   UNL     1     -10.441   7.167  66.077  1.00  0.00     1.035 A  
ENDBRANCH   5  16
ENDBRANCH   2   5
BRANCH   4  22
HETATM   22  C   UNL     2     -10.081   7.145  72.667  1.00  0.00    -0.186 A  
HETATM   23  C   UNL     2      -9.651   7.960  73.694  1.00  0.00    -0.198 A  
HETATM   24  C   UNL     2      -7.755   6.808  71.922  1.00  0.00    -0.096 A  
HETATM   25  C   UNL     2      -5.422   6.615  71.308  1.00  0.00    -0.027 A  
HETATM   26  C   UNL     2      -8.283   8.204  73.836  1.00  0.00    -0.311 A  
HETATM   27  C   UNL     2      -5.132   7.473  72.355  1.00  0.00    -0.036 A  
HETATM   28  C   UNL     2      -9.138   6.529  71.851  1.00  0.00    -0.148 A  
HETATM   29  C   UNL     2      -6.757   6.266  71.046  1.00  0.00    -0.058 A  
HETATM   30  C   UNL     2      -7.338   7.680  72.958  1.00  0.00    -0.086 A  
HETATM   31  N   UNL     2      -6.060   8.012  73.165  1.00  0.00    -0.066 NA 
BRANCH  29  32
HETATM   32  C   UNL     2      -7.072   5.257  69.923  1.00  0.00    -0.062 C  
HETATM   33  H   UNL     2      -8.624   4.745  68.800  1.00  0.00     0.000 HD 
HETATM   34  O   UNL     2      -8.430   5.367  69.491  1.00  0.00    -0.098 OA 
BRANCH  32  35
HETATM   35  C   UNL     2      -6.178   5.324  68.631  1.00  0.00    -0.030 C  
HETATM   36  C   UNL     2      -6.008   6.999  66.746  1.00  0.00    -0.033 C  
HETATM   37  C   UNL     2      -5.187   5.922  66.017  1.00  0.00    -0.009 C  
HETATM   38  C   UNL     2      -5.711   4.528  66.395  1.00  0.00    -0.022 C  
HETATM   39  C   UNL     2      -5.794   6.779  68.255  1.00  0.00    -0.017 C  
HETATM   40  N   UNL     2      -6.757   4.608  67.441  1.00  0.00    -0.050 NA 
HETATM   41  C   UNL     2      -7.901   5.349  66.845  1.00  0.00    -0.101 C  
HETATM   42  C   UNL     2      -7.521   6.805  66.468  1.00  0.00    -0.078 C  
BRANCH  42  43
HETATM   43  C   UNL     2      -7.885   7.120  65.036  1.00  0.00    -0.125 C  
HETATM   44  C   UNL     2      -7.309   6.559  63.964  1.00  0.00    -0.077 C  
ENDBRANCH  42  43
ENDBRANCH  32  35
ENDBRANCH  29  32
ENDBRANCH   4  22
TORSDOF 6
ENDMDL
MODEL      293
REMARK 921   NORMALIZED FREE ENERGY PREDICTED BY IDOCK:    9.51 KCAL/MOL
REMARK 922        TOTAL FREE ENERGY PREDICTED BY IDOCK:    9.77 KCAL/MOL
REMARK 923 INTER-LIGAND FREE ENERGY PREDICTED BY IDOCK:    6.73 KCAL/MOL
REMARK 924 INTRA-LIGAND FREE ENERGY PREDICTED BY IDOCK:    3.03 KCAL/MOL
REMARK 927      BINDING AFFINITY PREDICTED BY RF-SCORE:    0.00 PKD
ROOT
HETATM    1  C   UNL     1      -7.605  16.861  71.457  1.00  0.00     7.714 C  
HETATM    2  C   UNL     1      -7.193  17.262  70.043  1.00  0.00     1.072 C  
HETATM    3  C   UNL     2      -6.313  13.655  71.741  1.00  0.00     1.287 C  
HETATM    4  O   UNL     2      -5.869  14.471  70.670  1.00  0.00    -0.155 OA 
ENDROOT
BRANCH   2   5
HETATM    5  C   UNL     1      -8.280  17.137  68.922  1.00  0.00    -0.192 C  
HETATM    6  O   UNL     1     -10.262  17.646  70.297  1.00  0.00     0.674 OA 
HETATM    7  C   UNL     1      -7.823  15.906  68.119  1.00  0.00    -0.133 C  
HETATM    8  C   UNL     1      -9.653  16.849  69.579  1.00  0.00     0.157 C  
HETATM    9  H   UNL     1     -11.240  15.560  69.415  1.00  0.00     0.000 HD 
HETATM   10  N   UNL     1      -8.250  14.698  68.595  1.00  0.00    -0.155 N  
HETATM   11  O   UNL     1      -7.055  15.945  67.164  1.00  0.00    -0.195 OA 
HETATM   12  O   UNL     1     -10.129  13.462  68.676  1.00  0.00    -0.225 OA 
HETATM   13  N   UNL     1     -10.231  15.639  69.292  1.00  0.00    -0.232 N  
HETATM   14  C   UNL     1      -9.567  14.539  68.858  1.00  0.00    -0.158 C  
HETATM   15  H   UNL     1      -7.592  13.934  68.747  1.00  0.00     0.000 HD 
BRANCH   5  16
HETATM   16  C   UNL     1      -8.338  18.410  68.051  1.00  0.00    -0.287 A  
HETATM   17  C   UNL     1      -7.578  19.676  66.110  1.00  0.00    -0.326 A  
HETATM   18  C   UNL     1      -7.367  18.682  67.070  1.00  0.00    -0.221 A  
HETATM   19  C   UNL     1      -9.436  19.283  68.136  1.00  0.00    -0.410 A  
HETATM   20  C   UNL     1      -8.742  20.435  66.133  1.00  0.00    -0.059 A  
HETATM   21  C   UNL     1      -9.656  20.261  67.166  1.00  0.00    -0.580 A  
ENDBRANCH   5  16
ENDBRANCH   2   5
BRANCH   4  22
HETATM   22  C   UNL     2      -5.757  13.875  69.452  1.00  0.00    -0.089 A  
HETATM   23  C   UNL     2      -5.205  14.423  68.313  1.00  0.00    -0.113 A  
HETATM   24  C   UNL     2      -6.219  11.771  68.252  1.00  0.00    -0.050 A  
HETATM   25  C   UNL     2      -6.629   9.796  66.915  1.00  0.00    -0.067 A  
HETATM   26  C   UNL     2      -5.162  13.655  67.146  1.00  0.00     0.703 A  
HETATM   27  C   UNL     2      -6.081  10.477  65.841  1.00  0.00    -0.128 A  
HETATM   28  C   UNL     2      -6.183  12.551  69.430  1.00  0.00    -0.113 A  
HETATM   29  C   UNL     2      -6.731  10.435  68.162  1.00  0.00    -0.061 A  
HETATM   30  C   UNL     2      -5.685  12.367  67.083  1.00  0.00    -0.062 A  
HETATM   31  N   UNL     2      -5.626  11.740  65.904  1.00  0.00     0.078 NA 
BRANCH  29  32
HETATM   32  C   UNL     2      -7.277   9.653  69.373  1.00  0.00    -0.071 C  
HETATM   33  H   UNL     2      -8.369  10.018  70.988  1.00  0.00     0.000 HD 
HETATM   34  O   UNL     2      -8.033  10.500  70.242  1.00  0.00     0.034 OA 
BRANCH  32  35
HETATM   35  C   UNL     2      -8.176   8.398  69.068  1.00  0.00    -0.118 C  
HETATM   36  C   UNL     2      -8.523   6.202  70.270  1.00  0.00    -0.126 C  
HETATM   37  C   UNL     2      -9.230   5.742  68.983  1.00  0.00    -0.133 C  
HETATM   38  C   UNL     2      -8.563   6.398  67.764  1.00  0.00    -0.116 C  
HETATM   39  C   UNL     2      -8.710   7.728  70.361  1.00  0.00    -0.139 C  
HETATM   40  N   UNL     2      -7.528   7.377  68.174  1.00  0.00    -0.103 NA 
HETATM   41  C   UNL     2      -6.469   6.607  68.881  1.00  0.00    -0.039 C  
HETATM   42  C   UNL     2      -6.999   5.935  70.174  1.00  0.00    -0.069 C  
BRANCH  42  43
HETATM   43  C   UNL     2      -6.673   4.460  70.207  1.00  0.00    -0.033 C  
HETATM   44  C   UNL     2      -6.345   3.730  69.132  1.00  0.00    -0.029 C  
ENDBRANCH  42  43
ENDBRANCH  32  35
ENDBRANCH  29  32
ENDBRANCH   4  22
TORSDOF 6
ENDMDL
MODEL      294
REMARK 921   NORMALIZED FREE ENERGY PREDICTED BY IDOCK:    9.97 KCAL/MOL
REMARK 922        TOTAL FREE ENERGY PREDICTED BY IDOCK:   10.39 KCAL/MOL
REMARK 923 INTER-LIGAND FREE ENERGY PREDICTED BY IDOCK:   11.20 KCAL/MOL
REMARK 924 INTRA-LIGAND FREE ENERGY PREDICTED BY IDOCK:   -0.81 KCAL/MOL
REMARK 927      BINDING AFFINITY PREDICTED BY RF-SCORE:    0.00 PKD
ROOT
HETATM    1  C   UNL     1      -6.539   8.722  67.551  1.00  0.00    -0.062 C  
HETATM    2  C   UNL     1      -7.675   7.714  67.708  1.00  0.00    -0.122 C  
HETATM    3  C   UNL     2      -7.103  10.913  70.180  1.00  0.00     0.189 C  
HETATM    4  O   UNL     2      -7.780   9.667  70.179  1.00  0.00    -0.135 OA 
ENDROOT
BRANCH   2   5
HETATM    5  C   UNL     1      -8.926   7.900  66.783  1.00  0.00    -0.169 C  
HETATM    6  O   UNL     1      -8.231   6.403  64.951  1.00  0.00    -0.140 OA 
HETATM    7  C   UNL     1      -9.219   9.407  66.879  1.00  0.00    -0.140 C  
HETATM    8  C   UNL     1      -8.535   7.537  65.328  1.00  0.00    -0.063 C  
HETATM    9  H   UNL     1      -8.672   8.290  63.425  1.00  0.00     0.000 HD 
HETATM   10  N   UNL     1      -8.524  10.201  66.011  1.00  0.00    -0.128 N  
HETATM   11  O   UNL     1      -9.948   9.920  67.719  1.00  0.00    -0.154 OA 
HETATM   12  O   UNL     1      -8.511  10.740  63.826  1.00  0.00    -0.113 OA 
HETATM   13  N   UNL     1      -8.584   8.552  64.407  1.00  0.00    -0.076 N  
HETATM   14  C   UNL     1      -8.525   9.874  64.698  1.00  0.00    -0.172 C  
HETATM   15  H   UNL     1      -8.015  11.020  66.344  1.00  0.00     0.000 HD 
BRANCH   5  16
HETATM   16  C   UNL     1     -10.115   7.044  67.268  1.00  0.00    -0.265 A  
HETATM   17  C   UNL     1     -12.516   6.624  67.354  1.00  0.00     5.894 A  
HETATM   18  C   UNL     1     -11.443   7.501  67.178  1.00  0.00     1.038 A  
HETATM   19  C   UNL     1      -9.913   5.726  67.711  1.00  0.00    -0.166 A  
HETATM   20  C   UNL     1     -12.283   5.287  67.656  1.00  0.00     7.226 A  
HETATM   21  C   UNL     1     -10.983   4.845  67.868  1.00  0.00     0.990 A  
ENDBRANCH   5  16
ENDBRANCH   2   5
BRANCH   4  22
HETATM   22  C   UNL     2      -9.094   9.685  70.534  1.00  0.00    -0.139 A  
HETATM   23  C   UNL     2     -10.028  10.641  70.189  1.00  0.00     0.414 A  
HETATM   24  C   UNL     2     -10.806   8.415  71.772  1.00  0.00    -0.353 A  
HETATM   25  C   UNL     2     -12.600   7.318  72.968  1.00  0.00     1.117 A  
HETATM   26  C   UNL     2     -11.343  10.490  70.634  1.00  0.00    -0.363 A  
HETATM   27  C   UNL     2     -13.424   8.360  72.580  1.00  0.00    -0.128 A  
HETATM   28  C   UNL     2      -9.503   8.563  71.247  1.00  0.00    -0.265 A  
HETATM   29  C   UNL     2     -11.249   7.321  72.587  1.00  0.00    -0.355 A  
HETATM   30  C   UNL     2     -11.740   9.428  71.441  1.00  0.00    -0.378 A  
HETATM   31  N   UNL     2     -13.015   9.407  71.842  1.00  0.00    -0.383 NA 
BRANCH  29  32
HETATM   32  C   UNL     2     -10.350   6.126  72.961  1.00  0.00    -0.206 C  
HETATM   33  H   UNL     2     -10.451   4.514  74.113  1.00  0.00     0.000 HD 
HETATM   34  O   UNL     2     -11.005   5.251  73.883  1.00  0.00    -0.275 OA 
BRANCH  32  35
HETATM   35  C   UNL     2      -9.825   5.230  71.780  1.00  0.00    -0.170 C  
HETATM   36  C   UNL     2      -8.926   2.869  71.685  1.00  0.00    -0.140 C  
HETATM   37  C   UNL     2      -8.465   3.225  70.261  1.00  0.00    -0.095 C  
HETATM   38  C   UNL     2      -8.068   4.709  70.201  1.00  0.00    -0.068 C  
HETATM   39  C   UNL     2     -10.168   3.730  71.981  1.00  0.00    -0.157 C  
HETATM   40  N   UNL     2      -8.361   5.399  71.479  1.00  0.00    -0.121 NA 
HETATM   41  C   UNL     2      -7.500   4.765  72.514  1.00  0.00    -0.085 C  
HETATM   42  C   UNL     2      -7.840   3.266  72.718  1.00  0.00    -0.067 C  
BRANCH  42  43
HETATM   43  C   UNL     2      -6.607   2.399  72.616  1.00  0.00    -0.018 C  
HETATM   44  C   UNL     2      -5.367   2.863  72.409  1.00  0.00     0.000 C  
ENDBRANCH  42  43
ENDBRANCH  32  35
ENDBRANCH  29  32
ENDBRANCH   4  22
TORSDOF 6
ENDMDL
MODEL      295
REMARK 921   NORMALIZED FREE ENERGY PREDICTED BY IDOCK:   10.23 KCAL/MOL
REMARK 922        TOTAL FREE ENERGY PREDICTED BY IDOCK:   10.74 KCAL/MOL
REMARK 923 INTER-LIGAND FREE ENERGY PREDICTED BY IDOCK:    7.29 KCAL/MOL
REMARK 924 INTRA-LIGAND FREE ENERGY PREDICTED BY IDOCK:    3.44 KCAL/MOL
REMARK 927      BINDING AFFINITY PREDICTED BY RF-SCORE:    0.00 PKD
ROOT
HETATM    1  C   UNL     1      -9.559  12.590  70.453  1.00  0.00     5.143 C  
HETATM    2  C   UNL     1     -10.053  14.006  70.739  1.00  0.00     2.927 C  
HETATM    3  C   UNL     2      -7.549  13.042  67.662  1.00  0.00    -0.160 C  
HETATM    4  O   UNL     2      -7.944  14.184  68.404  1.00  0.00    -0.129 OA 
ENDROOT
BRANCH   2   5
HETATM    5  C   UNL     1     -11.490  14.374  70.237  1.00  0.00    -0.255 C  
HETATM    6  O   UNL     1     -11.353  13.346  68.000  1.00  0.00    -0.257 OA 
HETATM    7  C   UNL     1     -11.686  15.814  70.742  1.00  0.00    -0.399 C  
HETATM    8  C   UNL     1     -11.503  14.359  68.688  1.00  0.00    -0.287 C  
HETATM    9  H   UNL     1     -12.092  15.523  67.105  1.00  0.00     0.000 HD 
HETATM   10  N   UNL     1     -11.205  16.797  69.923  1.00  0.00    -0.354 N  
HETATM   11  O   UNL     1     -12.153  16.109  71.835  1.00  0.00    -0.476 OA 
HETATM   12  O   UNL     1     -11.732  17.819  67.989  1.00  0.00     0.778 OA 
HETATM   13  N   UNL     1     -11.745  15.556  68.063  1.00  0.00    -0.271 N  
HETATM   14  C   UNL     1     -11.558  16.778  68.618  1.00  0.00     0.222 C  
HETATM   15  H   UNL     1     -10.595  17.529  70.288  1.00  0.00     0.000 HD 
BRANCH   5  16
HETATM   16  C   UNL     1     -12.550  13.408  70.809  1.00  0.00    -0.369 A  
HETATM   17  C   UNL     1     -13.301  11.136  71.277  1.00  0.00    -0.044 A  
HETATM   18  C   UNL     1     -12.519  12.028  70.539  1.00  0.00    -0.292 A  
HETATM   19  C   UNL     1     -13.518  13.869  71.719  1.00  0.00    -0.464 A  
HETATM   20  C   UNL     1     -14.151  11.608  72.271  1.00  0.00     0.718 A  
HETATM   21  C   UNL     1     -14.284  12.977  72.469  1.00  0.00    -0.078 A  
ENDBRANCH   5  16
ENDBRANCH   2   5
BRANCH   4  22
HETATM   22  C   UNL     2      -8.331  15.274  67.688  1.00  0.00    -0.164 A  
HETATM   23  C   UNL     2      -7.773  16.536  67.740  1.00  0.00    -0.165 A  
HETATM   24  C   UNL     2      -9.938  16.022  65.974  1.00  0.00    -0.365 A  
HETATM   25  C   UNL     2     -11.460  16.932  64.328  1.00  0.00     0.893 A  
HETATM   26  C   UNL     2      -8.294  17.538  66.918  1.00  0.00    -0.255 A  
HETATM   27  C   UNL     2     -10.832  18.153  64.503  1.00  0.00     3.038 A  
HETATM   28  C   UNL     2      -9.341  15.017  66.768  1.00  0.00    -0.271 A  
HETATM   29  C   UNL     2     -11.040  15.822  65.078  1.00  0.00    -0.380 A  
HETATM   30  C   UNL     2      -9.378  17.320  66.072  1.00  0.00    -0.097 A  
HETATM   31  N   UNL     2      -9.819  18.362  65.361  1.00  0.00     0.137 NA 
BRANCH  29  32
HETATM   32  C   UNL     2     -11.693  14.447  64.833  1.00  0.00    -0.408 C  
HETATM   33  H   UNL     2     -13.355  13.733  64.019  1.00  0.00     0.000 HD 
HETATM   34  O   UNL     2     -12.952  14.580  64.170  1.00  0.00    -0.470 OA 
BRANCH  32  35
HETATM   35  C   UNL     2     -10.858  13.395  64.014  1.00  0.00    -0.184 C  
HETATM   36  C   UNL     2     -10.967  10.876  63.843  1.00  0.00     0.101 C  
HETATM   37  C   UNL     2      -9.602  10.980  63.140  1.00  0.00    -0.384 C  
HETATM   38  C   UNL     2      -8.803  12.151  63.733  1.00  0.00     1.193 C  
HETATM   39  C   UNL     2     -11.718  12.189  63.555  1.00  0.00    -0.579 C  
HETATM   40  N   UNL     2      -9.612  12.919  64.709  1.00  0.00     0.158 NA 
HETATM   41  C   UNL     2      -9.917  11.994  65.833  1.00  0.00    -0.236 C  
HETATM   42  C   UNL     2     -10.778  10.786  65.378  1.00  0.00    -0.149 C  
BRANCH  42  43
HETATM   43  C   UNL     2     -10.161   9.474  65.805  1.00  0.00    -0.107 C  
HETATM   44  C   UNL     2     -10.735   8.602  66.645  1.00  0.00     0.033 C  
ENDBRANCH  42  43
ENDBRANCH  32  35
ENDBRANCH  29  32
ENDBRANCH   4  22
TORSDOF 6
ENDMDL
MODEL      296
REMARK 921   NORMALIZED FREE ENERGY PREDICTED BY IDOCK:   12.02 KCAL/MOL
REMARK 922        TOTAL FREE ENERGY PREDICTED BY IDOCK:   13.16 KCAL/MOL
REMARK 923 INTER-LIGAND FREE ENERGY PREDICTED BY IDOCK:    6.09 KCAL/MOL
REMARK 924 INTRA-LIGAND FREE ENERGY PREDICTED BY IDOCK:    7.08 KCAL/MOL
REMARK 927      BINDING AFFINITY PREDICTED BY RF-SCORE:    0.00 PKD
ROOT
HETATM    1  C   UNL     1      -7.416  13.449  68.883  1.00  0.00    -0.010 C  
HETATM    2  C   UNL     1      -8.698  13.131  68.118  1.00  0.00    -0.193 C  
HETATM    3  C   UNL     2      -5.912  10.335  69.160  1.00  0.00    -0.037 C  
HETATM    4  O   UNL     2      -6.983  10.491  68.243  1.00  0.00    -0.071 OA 
ENDROOT
BRANCH   2   5
HETATM    5  C   UNL     1     -10.014  12.995  68.958  1.00  0.00     0.214 C  
HETATM    6  O   UNL     1     -11.612  12.858  67.086  1.00  0.00    -0.322 OA 
HETATM    7  C   UNL     1      -9.802  13.990  70.113  1.00  0.00     1.705 C  
HETATM    8  C   UNL     1     -11.215  13.450  68.093  1.00  0.00    -0.273 C  
HETATM    9  H   UNL     1     -12.854  14.680  68.192  1.00  0.00     0.000 HD 
HETATM   10  N   UNL     1     -10.164  15.282  69.854  1.00  0.00    -0.418 N  
HETATM   11  O   UNL     1      -9.267  13.712  71.180  1.00  0.00     6.193 OA 
HETATM   12  O   UNL     1     -12.029  16.525  69.642  1.00  0.00     0.162 OA 
HETATM   13  N   UNL     1     -11.895  14.562  68.519  1.00  0.00    -0.330 N  
HETATM   14  C   UNL     1     -11.394  15.516  69.342  1.00  0.00    -0.316 C  
HETATM   15  H   UNL     1      -9.522  16.052  70.041  1.00  0.00     0.000 HD 
BRANCH   5  16
HETATM   16  C   UNL     1     -10.210  11.551  69.464  1.00  0.00     0.293 A  
HETATM   17  C   UNL     1      -9.776   9.819  71.126  1.00  0.00     0.311 A  
HETATM   18  C   UNL     1      -9.413  11.009  70.490  1.00  0.00     2.710 A  
HETATM   19  C   UNL     1     -11.275  10.766  68.989  1.00  0.00    -0.322 A  
HETATM   20  C   UNL     1     -10.918   9.133  70.727  1.00  0.00    -0.332 A  
HETATM   21  C   UNL     1     -11.648   9.589  69.636  1.00  0.00     0.100 A  
ENDBRANCH   5  16
ENDBRANCH   2   5
BRANCH   4  22
HETATM   22  C   UNL     2      -7.905   9.492  68.205  1.00  0.00    -0.083 A  
HETATM   23  C   UNL     2      -8.810   9.243  67.193  1.00  0.00    -0.137 A  
HETATM   24  C   UNL     2      -8.742   7.550  69.472  1.00  0.00    -0.137 A  
HETATM   25  C   UNL     2      -9.708   5.636  70.595  1.00  0.00    -0.232 A  
HETATM   26  C   UNL     2      -9.680   8.157  67.318  1.00  0.00    -0.233 A  
HETATM   27  C   UNL     2     -10.582   5.520  69.527  1.00  0.00    -0.296 A  
HETATM   28  C   UNL     2      -7.833   8.614  69.281  1.00  0.00    -0.101 A  
HETATM   29  C   UNL     2      -8.763   6.675  70.608  1.00  0.00    -0.143 A  
HETATM   30  C   UNL     2      -9.691   7.336  68.441  1.00  0.00    -0.148 A  
HETATM   31  N   UNL     2     -10.594   6.351  68.471  1.00  0.00    -0.223 NA 
BRANCH  29  32
HETATM   32  C   UNL     2      -7.745   6.761  71.763  1.00  0.00    -0.096 C  
HETATM   33  H   UNL     2      -7.142   8.102  73.094  1.00  0.00     0.000 HD 
HETATM   34  O   UNL     2      -7.770   8.049  72.383  1.00  0.00    -0.098 OA 
BRANCH  32  35
HETATM   35  C   UNL     2      -7.881   5.700  72.916  1.00  0.00    -0.098 C  
HETATM   36  C   UNL     2      -7.575   3.191  72.984  1.00  0.00    -0.055 C  
HETATM   37  C   UNL     2      -8.259   3.262  74.361  1.00  0.00    -0.069 C  
HETATM   38  C   UNL     2      -9.307   4.386  74.361  1.00  0.00    -0.110 C  
HETATM   39  C   UNL     2      -6.862   4.539  72.771  1.00  0.00    -0.057 C  
HETATM   40  N   UNL     2      -9.272   5.159  73.097  1.00  0.00    -0.126 NA 
HETATM   41  C   UNL     2      -9.653   4.217  72.010  1.00  0.00    -0.152 C  
HETATM   42  C   UNL     2      -8.636   3.055  71.861  1.00  0.00    -0.098 C  
BRANCH  42  43
HETATM   43  C   UNL     2      -9.324   1.710  71.883  1.00  0.00    -0.154 C  
HETATM   44  C   UNL     2     -10.637   1.531  72.083  1.00  0.00    -0.131 C  
ENDBRANCH  42  43
ENDBRANCH  32  35
ENDBRANCH  29  32
ENDBRANCH   4  22
TORSDOF 6
ENDMDL
MODEL      297
REMARK 921   NORMALIZED FREE ENERGY PREDICTED BY IDOCK:   15.67 KCAL/MOL
REMARK 922        TOTAL FREE ENERGY PREDICTED BY IDOCK:   18.08 KCAL/MOL
REMARK 923 INTER-LIGAND FREE ENERGY PREDICTED BY IDOCK:    4.69 KCAL/MOL
REMARK 924 INTRA-LIGAND FREE ENERGY PREDICTED BY IDOCK:   13.40 KCAL/MOL
REMARK 927      BINDING AFFINITY PREDICTED BY RF-SCORE:    0.00 PKD
ROOT
HETATM    1  C   UNL     1      -7.124   9.713  70.600  1.00  0.00    -0.117 C  
HETATM    2  C   UNL     1      -8.627   9.720  70.332  1.00  0.00    -0.099 C  
HETATM    3  C   UNL     2      -5.833   8.456  67.636  1.00  0.00    -0.043 C  
HETATM    4  O   UNL     2      -7.182   8.894  67.656  1.00  0.00    -0.079 OA 
ENDROOT
BRANCH   2   5
HETATM    5  C   UNL     1      -9.461   8.531  70.918  1.00  0.00    -0.221 C  
HETATM    6  O   UNL     1      -9.170   9.047  73.312  1.00  0.00     0.210 OA 
HETATM    7  C   UNL     1      -9.064   7.343  70.025  1.00  0.00    -0.148 C  
HETATM    8  C   UNL     1      -9.003   8.263  72.374  1.00  0.00    -0.228 C  
HETATM    9  H   UNL     1      -8.423   6.712  73.584  1.00  0.00     0.000 HD 
HETATM   10  N   UNL     1      -7.936   6.670  70.403  1.00  0.00    -0.113 N  
HETATM   11  O   UNL     1      -9.634   7.035  68.984  1.00  0.00    -0.142 OA 
HETATM   12  O   UNL     1      -7.267   5.206  71.977  1.00  0.00    -0.079 OA 
HETATM   13  N   UNL     1      -8.418   7.048  72.622  1.00  0.00    -0.112 N  
HETATM   14  C   UNL     1      -7.833   6.258  71.688  1.00  0.00    -0.102 C  
HETATM   15  H   UNL     1      -7.190   6.482  69.734  1.00  0.00     0.000 HD 
BRANCH   5  16
HETATM   16  C   UNL     1     -10.975   8.823  70.857  1.00  0.00    -0.315 A  
HETATM   17  C   UNL     1     -12.947   9.484  69.584  1.00  0.00     1.851 A  
HETATM   18  C   UNL     1     -11.561   9.476  69.757  1.00  0.00     0.035 A  
HETATM   19  C   UNL     1     -11.837   8.339  71.857  1.00  0.00    -0.380 A  
HETATM   20  C   UNL     1     -13.773   8.873  70.522  1.00  0.00     0.827 A  
HETATM   21  C   UNL     1     -13.219   8.330  71.675  1.00  0.00    -0.349 A  
ENDBRANCH   5  16
ENDBRANCH   2   5
BRANCH   4  22
HETATM   22  C   UNL     2      -8.089   8.107  67.017  1.00  0.00    -0.108 A  
HETATM   23  C   UNL     2      -8.615   8.310  65.757  1.00  0.00    -0.182 A  
HETATM   24  C   UNL     2      -9.401   6.033  67.262  1.00  0.00    -0.115 A  
HETATM   25  C   UNL     2     -10.783   4.049  67.348  1.00  0.00     1.765 A  
HETATM   26  C   UNL     2      -9.532   7.385  65.251  1.00  0.00     0.932 A  
HETATM   27  C   UNL     2     -11.255   4.390  66.092  1.00  0.00     1.619 A  
HETATM   28  C   UNL     2      -8.426   6.951  67.713  1.00  0.00    -0.123 A  
HETATM   29  C   UNL     2      -9.845   4.877  67.985  1.00  0.00    -0.197 A  
HETATM   30  C   UNL     2      -9.960   6.283  65.984  1.00  0.00     0.237 A  
HETATM   31  N   UNL     2     -10.871   5.486  65.416  1.00  0.00     0.776 NA 
BRANCH  29  32
HETATM   32  C   UNL     2      -9.268   4.461  69.353  1.00  0.00    -0.135 C  
HETATM   33  H   UNL     2      -9.719   3.201  70.817  1.00  0.00     0.000 HD 
HETATM   34  O   UNL     2     -10.075   3.457  69.974  1.00  0.00     0.175 OA 
BRANCH  32  35
HETATM   35  C   UNL     2      -7.788   3.929  69.372  1.00  0.00    -0.052 C  
HETATM   36  C   UNL     2      -5.786   4.370  67.893  1.00  0.00    -0.022 C  
HETATM   37  C   UNL     2      -5.145   3.161  68.597  1.00  0.00    -0.011 C  
HETATM   38  C   UNL     2      -6.230   2.129  68.943  1.00  0.00    -0.025 C  
HETATM   39  C   UNL     2      -6.771   5.000  68.896  1.00  0.00    -0.050 C  
HETATM   40  N   UNL     2      -7.584   2.640  68.625  1.00  0.00    -0.047 NA 
HETATM   41  C   UNL     2      -7.631   2.835  67.151  1.00  0.00    -0.070 C  
HETATM   42  C   UNL     2      -6.617   3.905  66.670  1.00  0.00    -0.045 C  
BRANCH  42  43
HETATM   43  C   UNL     2      -5.746   3.380  65.552  1.00  0.00    -0.018 C  
HETATM   44  C   UNL     2      -5.801   3.806  64.283  1.00  0.00    -0.014 C  
ENDBRANCH  42  43
ENDBRANCH  32  35
ENDBRANCH  29  32
ENDBRANCH   4  22
TORSDOF 6
ENDMDL
MODEL      298
REMARK 921   NORMALIZED FREE ENERGY PREDICTED BY IDOCK:   15.80 KCAL/MOL
REMARK 922        TOTAL FREE ENERGY PREDICTED BY IDOCK:   18.27 KCAL/MOL
REMARK 923 INTER-LIGAND FREE ENERGY PREDICTED BY IDOCK:   16.55 KCAL/MOL
REMARK 924 INTRA-LIGAND FREE ENERGY PREDICTED BY IDOCK:    1.71 KCAL/MOL
REMARK 927      BINDING AFFINITY PREDICTED BY RF-SCORE:    0.00 PKD
ROOT
HETATM    1  C   UNL     1     -10.291   5.627  65.662  1.00  0.00     0.407 C  
HETATM    2  C   UNL     1      -8.951   5.880  66.348  1.00  0.00    -0.143 C  
HETATM    3  C   UNL     2     -11.911   8.673  66.020  1.00  0.00     7.466 C  
HETATM    4  O   UNL     2     -10.516   8.615  66.268  1.00  0.00    -0.122 OA 
ENDROOT
BRANCH   2   5
HETATM    5  C   UNL     1      -8.793   5.358  67.817  1.00  0.00    -0.105 C  
HETATM    6  O   UNL     1      -6.935   6.822  68.511  1.00  0.00    -0.071 OA 
HETATM    7  C   UNL     1      -8.959   3.836  67.673  1.00  0.00    -0.134 C  
HETATM    8  C   UNL     1      -7.363   5.682  68.317  1.00  0.00    -0.076 C  
HETATM    9  H   UNL     1      -5.769   4.771  69.232  1.00  0.00     0.000 HD 
HETATM   10  N   UNL     1      -7.821   3.145  67.361  1.00  0.00    -0.076 N  
HETATM   11  O   UNL     1     -10.030   3.244  67.734  1.00  0.00     0.088 OA 
HETATM   12  O   UNL     1      -5.919   2.453  68.344  1.00  0.00    -0.023 OA 
HETATM   13  N   UNL     1      -6.553   4.612  68.600  1.00  0.00    -0.044 N  
HETATM   14  C   UNL     1      -6.712   3.360  68.105  1.00  0.00    -0.045 C  
HETATM   15  H   UNL     1      -7.808   2.482  66.585  1.00  0.00     0.000 HD 
BRANCH   5  16
HETATM   16  C   UNL     1      -9.859   5.972  68.749  1.00  0.00    -0.170 A  
HETATM   17  C   UNL     1     -12.085   6.913  69.079  1.00  0.00     1.263 A  
HETATM   18  C   UNL     1     -11.005   6.615  68.244  1.00  0.00    -0.321 A  
HETATM   19  C   UNL     1      -9.771   5.805  70.142  1.00  0.00    -0.219 A  
HETATM   20  C   UNL     1     -12.027   6.608  70.434  1.00  0.00    -0.342 A  
HETATM   21  C   UNL     1     -10.857   6.085  70.971  1.00  0.00    -0.345 A  
ENDBRANCH   5  16
ENDBRANCH   2   5
BRANCH   4  22
HETATM   22  C   UNL     2     -10.060   9.291  67.357  1.00  0.00    -0.223 A  
HETATM   23  C   UNL     2      -9.198   8.814  68.323  1.00  0.00    -0.143 A  
HETATM   24  C   UNL     2     -10.169  11.478  68.491  1.00  0.00    -0.219 A  
HETATM   25  C   UNL     2     -10.189  13.544  69.751  1.00  0.00     0.995 A  
HETATM   26  C   UNL     2      -8.824   9.659  69.371  1.00  0.00    -0.183 A  
HETATM   27  C   UNL     2      -9.349  12.931  70.665  1.00  0.00     7.287 A  
HETATM   28  C   UNL     2     -10.470  10.619  67.411  1.00  0.00    -0.280 A  
HETATM   29  C   UNL     2     -10.642  12.824  68.634  1.00  0.00    -0.256 A  
HETATM   30  C   UNL     2      -9.316  10.955  69.495  1.00  0.00     0.223 A  
HETATM   31  N   UNL     2      -8.922  11.660  70.560  1.00  0.00     3.980 NA 
BRANCH  29  32
HETATM   32  C   UNL     2     -11.521  13.529  67.581  1.00  0.00    -0.318 C  
HETATM   33  H   UNL     2     -13.238  14.521  67.524  1.00  0.00     0.000 HD 
HETATM   34  O   UNL     2     -12.697  14.086  68.173  1.00  0.00     0.322 OA 
BRANCH  32  35
HETATM   35  C   UNL     2     -10.848  14.676  66.742  1.00  0.00    -0.312 C  
HETATM   36  C   UNL     2      -8.888  16.208  67.191  1.00  0.00    -0.218 C  
HETATM   37  C   UNL     2      -9.387  17.012  65.978  1.00  0.00    -0.187 C  
HETATM   38  C   UNL     2     -10.921  16.946  65.909  1.00  0.00     0.109 C  
HETATM   39  C   UNL     2      -9.314  14.746  66.962  1.00  0.00    -0.245 C  
HETATM   40  N   UNL     2     -11.470  16.032  66.938  1.00  0.00     0.201 NA 
HETATM   41  C   UNL     2     -11.124  16.620  68.260  1.00  0.00    -0.295 C  
HETATM   42  C   UNL     2      -9.591  16.690  68.485  1.00  0.00    -0.241 C  
BRANCH  42  43
HETATM   43  C   UNL     2      -9.153  18.079  68.891  1.00  0.00    -0.139 C  
HETATM   44  C   UNL     2      -7.919  18.569  68.713  1.00  0.00    -0.294 C  
ENDBRANCH  42  43
ENDBRANCH  32  35
ENDBRANCH  29  32
ENDBRANCH   4  22
TORSDOF 6
ENDMDL
MODEL      299
REMARK 921   NORMALIZED FREE ENERGY PREDICTED BY IDOCK:   16.22 KCAL/MOL
REMARK 922        TOTAL FREE ENERGY PREDICTED BY IDOCK:   18.83 KCAL/MOL
REMARK 923 INTER-LIGAND FREE ENERGY PREDICTED BY IDOCK:   12.65 KCAL/MOL
REMARK 924 INTRA-LIGAND FREE ENERGY PREDICTED BY IDOCK:    6.18 KCAL/MOL
REMARK 927      BINDING AFFINITY PREDICTED BY RF-SCORE:    0.00 PKD
ROOT
HETATM    1  C   UNL     1      -7.402  11.401  66.900  1.00  0.00    -0.147 C  
HETATM    2  C   UNL     1      -8.663  10.711  67.415  1.00  0.00    -0.125 C  
HETATM    3  C   UNL     2      -7.343  14.338  68.744  1.00  0.00    -0.131 C  
HETATM    4  O   UNL     2      -8.207  13.294  69.162  1.00  0.00     0.253 OA 
ENDROOT
BRANCH   2   5
HETATM    5  C   UNL     1      -9.954  10.838  66.537  1.00  0.00    -0.260 C  
HETATM    6  O   UNL     1      -9.819   8.656  65.398  1.00  0.00     0.198 OA 
HETATM    7  C   UNL     1      -9.915  12.299  66.057  1.00  0.00    -0.252 C  
HETATM    8  C   UNL     1      -9.833   9.887  65.320  1.00  0.00    -0.303 C  
HETATM    9  H   UNL     1     -10.049   9.901  63.281  1.00  0.00     0.000 HD 
HETATM   10  N   UNL     1      -9.185  12.529  64.924  1.00  0.00    -0.106 N  
HETATM   11  O   UNL     1     -10.411  13.243  66.661  1.00  0.00    -0.273 OA 
HETATM   12  O   UNL     1      -9.336  12.212  62.701  1.00  0.00     0.063 OA 
HETATM   13  N   UNL     1      -9.787  10.474  64.082  1.00  0.00    -0.329 N  
HETATM   14  C   UNL     1      -9.419  11.756  63.839  1.00  0.00    -0.031 C  
HETATM   15  H   UNL     1      -8.481  13.267  64.897  1.00  0.00     0.000 HD 
BRANCH   5  16
HETATM   16  C   UNL     1     -11.224  10.530  67.358  1.00  0.00    -0.249 A  
HETATM   17  C   UNL     1     -12.490   9.028  68.803  1.00  0.00     4.018 A  
HETATM   18  C   UNL     1     -11.502   9.237  67.839  1.00  0.00     0.883 A  
HETATM   19  C   UNL     1     -12.089  11.566  67.750  1.00  0.00     0.113 A  
HETATM   20  C   UNL     1     -13.241  10.099  69.279  1.00  0.00     2.448 A  
HETATM   21  C   UNL     1     -13.063  11.362  68.727  1.00  0.00     2.754 A  
ENDBRANCH   5  16
ENDBRANCH   2   5
BRANCH   4  22
HETATM   22  C   UNL     2      -9.458  13.656  69.554  1.00  0.00     1.049 A  
HETATM   23  C   UNL     2     -10.097  14.848  69.277  1.00  0.00    -0.201 A  
HETATM   24  C   UNL     2     -11.436  12.848  70.784  1.00  0.00     0.927 A  
HETATM   25  C   UNL     2     -13.445  12.230  71.983  1.00  0.00    -0.418 A  
HETATM   26  C   UNL     2     -11.396  15.044  69.752  1.00  0.00    -0.310 A  
HETATM   27  C   UNL     2     -13.954  13.477  71.663  1.00  0.00    -0.002 A  
HETATM   28  C   UNL     2     -10.151  12.657  70.229  1.00  0.00     3.340 A  
HETATM   29  C   UNL     2     -12.152  11.880  71.564  1.00  0.00     0.495 A  
HETATM   30  C   UNL     2     -12.058  14.094  70.524  1.00  0.00    -0.350 A  
HETATM   31  N   UNL     2     -13.283  14.406  70.959  1.00  0.00    -0.356 NA 
BRANCH  29  32
HETATM   32  C   UNL     2     -11.613  10.466  71.861  1.00  0.00     0.966 C  
HETATM   33  H   UNL     2     -12.328   8.622  72.014  1.00  0.00     0.000 HD 
HETATM   34  O   UNL     2     -12.660   9.493  71.831  1.00  0.00    -0.364 OA 
BRANCH  32  35
HETATM   35  C   UNL     2     -10.467   9.928  70.927  1.00  0.00    -0.122 C  
HETATM   36  C   UNL     2      -9.671   7.598  70.357  1.00  0.00    -0.179 C  
HETATM   37  C   UNL     2      -8.441   8.292  69.745  1.00  0.00    -0.128 C  
HETATM   38  C   UNL     2      -8.106   9.556  70.553  1.00  0.00    -0.166 C  
HETATM   39  C   UNL     2     -10.845   8.588  70.244  1.00  0.00    -0.249 C  
HETATM   40  N   UNL     2      -9.125   9.817  71.598  1.00  0.00     0.681 NA 
HETATM   41  C   UNL     2      -9.066   8.672  72.546  1.00  0.00    -0.117 C  
HETATM   42  C   UNL     2      -9.444   7.330  71.866  1.00  0.00    -0.163 C  
BRANCH  42  43
HETATM   43  C   UNL     2      -8.395   6.271  72.110  1.00  0.00    -0.109 C  
HETATM   44  C   UNL     2      -7.321   6.431  72.894  1.00  0.00    -0.094 C  
ENDBRANCH  42  43
ENDBRANCH  32  35
ENDBRANCH  29  32
ENDBRANCH   4  22
TORSDOF 6
ENDMDL
MODEL      300
REMARK 921   NORMALIZED FREE ENERGY PREDICTED BY IDOCK:   16.79 KCAL/MOL
REMARK 922        TOTAL FREE ENERGY PREDICTED BY IDOCK:   19.60 KCAL/MOL
REMARK 923 INTER-LIGAND FREE ENERGY PREDICTED BY IDOCK:   -0.88 KCAL/MOL
REMARK 924 INTRA-LIGAND FREE ENERGY PREDICTED BY IDOCK:   20.47 KCAL/MOL
REMARK 927      BINDING AFFINITY PREDICTED BY RF-SCORE:    0.00 PKD
ROOT
HETATM    1  C   UNL     1     -12.449   8.166  71.451  1.00  0.00    -0.313 C  
HETATM    2  C   UNL     1     -12.257   7.742  69.997  1.00  0.00     0.729 C  
HETATM    3  C   UNL     2     -11.952  11.596  71.308  1.00  0.00     0.392 C  
HETATM    4  O   UNL     2     -12.154  10.890  70.095  1.00  0.00    -0.293 OA 
ENDROOT
BRANCH   2   5
HETATM    5  C   UNL     1     -10.864   7.139  69.609  1.00  0.00    -0.254 C  
HETATM    6  O   UNL     1     -10.166   8.875  68.004  1.00  0.00    -0.193 OA 
HETATM    7  C   UNL     1     -11.148   5.631  69.497  1.00  0.00    -0.054 C  
HETATM    8  C   UNL     1     -10.442   7.693  68.226  1.00  0.00    -0.174 C  
HETATM    9  H   UNL     1      -9.743   7.038  66.412  1.00  0.00     0.000 HD 
HETATM   10  N   UNL     1     -11.611   5.205  68.284  1.00  0.00     2.251 N  
HETATM   11  O   UNL     1     -11.067   4.838  70.428  1.00  0.00     0.627 OA 
HETATM   12  O   UNL     1     -10.846   4.819  66.203  1.00  0.00    -0.258 OA 
HETATM   13  N   UNL     1     -10.328   6.783  67.206  1.00  0.00    -0.212 N  
HETATM   14  C   UNL     1     -10.933   5.570  67.172  1.00  0.00     0.099 C  
HETATM   15  H   UNL     1     -12.449   4.626  68.218  1.00  0.00     0.000 HD 
BRANCH   5  16
HETATM   16  C   UNL     1      -9.799   7.451  70.681  1.00  0.00    -0.179 A  
HETATM   17  C   UNL     1      -9.027   8.803  72.558  1.00  0.00    -0.000 A  
HETATM   18  C   UNL     1      -9.813   8.653  71.413  1.00  0.00    -0.327 A  
HETATM   19  C   UNL     1      -8.843   6.485  71.040  1.00  0.00    -0.139 A  
HETATM   20  C   UNL     1      -8.189   7.773  72.972  1.00  0.00    -0.181 A  
HETATM   21  C   UNL     1      -8.072   6.628  72.194  1.00  0.00    -0.105 A  
ENDBRANCH   5  16
ENDBRANCH   2   5
BRANCH   4  22
HETATM   22  C   UNL     2     -11.352  11.229  69.050  1.00  0.00    -0.278 A  
HETATM   23  C   UNL     2     -11.583  12.225  68.122  1.00  0.00    -0.396 A  
HETATM   24  C   UNL     2      -9.209  10.673  67.963  1.00  0.00    -0.148 A  
HETATM   25  C   UNL     2      -7.159  10.238  66.754  1.00  0.00    -0.094 A  
HETATM   26  C   UNL     2     -10.637  12.444  67.117  1.00  0.00    -0.247 A  
HETATM   27  C   UNL     2      -7.529  11.241  65.874  1.00  0.00     0.193 A  
HETATM   28  C   UNL     2     -10.153  10.526  69.005  1.00  0.00    -0.230 A  
HETATM   29  C   UNL     2      -8.004   9.909  67.826  1.00  0.00    -0.105 A  
HETATM   30  C   UNL     2      -9.485  11.673  66.997  1.00  0.00    -0.182 A  
HETATM   31  N   UNL     2      -8.671  11.945  65.973  1.00  0.00    -0.025 NA 
BRANCH  29  32
HETATM   32  C   UNL     2      -7.558   8.840  68.844  1.00  0.00    -0.091 C  
HETATM   33  H   UNL     2      -8.401   7.454  69.985  1.00  0.00     0.000 HD 
HETATM   34  O   UNL     2      -8.676   8.112  69.358  1.00  0.00    -0.140 OA 
BRANCH  32  35
HETATM   35  C   UNL     2      -6.511   7.775  68.350  1.00  0.00    -0.053 C  
HETATM   36  C   UNL     2      -6.682   5.802  66.780  1.00  0.00    -0.058 C  
HETATM   37  C   UNL     2      -5.305   5.392  67.331  1.00  0.00    -0.008 C  
HETATM   38  C   UNL     2      -5.198   5.796  68.810  1.00  0.00    -0.003 C  
HETATM   39  C   UNL     2      -6.765   7.336  66.884  1.00  0.00    -0.064 C  
HETATM   40  N   UNL     2      -6.383   6.573  69.245  1.00  0.00    -0.034 NA 
HETATM   41  C   UNL     2      -7.555   5.664  69.132  1.00  0.00    -0.088 C  
HETATM   42  C   UNL     2      -7.813   5.223  67.668  1.00  0.00    -0.096 C  
BRANCH  42  43
HETATM   43  C   UNL     2      -7.919   3.719  67.552  1.00  0.00    -0.089 C  
HETATM   44  C   UNL     2      -7.731   2.864  68.566  1.00  0.00    -0.054 C  
ENDBRANCH  42  43
ENDBRANCH  32  35
ENDBRANCH  29  32
ENDBRANCH   4  22
TORSDOF 6
ENDMDL
MODEL      301
REMARK 921   NORMALIZED FREE ENERGY PREDICTED BY IDOCK:   20.60 KCAL/MOL
REMARK 922        TOTAL FREE ENERGY PREDICTED BY IDOCK:   24.75 KCAL/MOL
REMARK 923 INTER-LIGAND FREE ENERGY PREDICTED BY IDOCK:   18.16 KCAL/MOL
REMARK 924 INTRA-LIGAND FREE ENERGY PREDICTED BY IDOCK:    6.59 KCAL/MOL
REMARK 927      BINDING AFFINITY PREDICTED BY RF-SCORE:    0.00 PKD
ROOT
HETATM    1  C   UNL     1     -13.136  16.930  67.099  1.00  0.00     6.479 C  
HETATM    2  C   UNL     1     -11.706  16.550  67.475  1.00  0.00     0.618 C  
HETATM    3  C   UNL     2     -14.335  14.015  65.652  1.00  0.00     5.357 C  
HETATM    4  O   UNL     2     -13.133  13.954  66.401  1.00  0.00    -0.033 OA 
ENDROOT
BRANCH   2   5
HETATM    5  C   UNL     1     -10.566  17.015  66.506  1.00  0.00    -0.172 C  
HETATM    6  O   UNL     1     -11.967  17.539  64.545  1.00  0.00     1.256 OA 
HETATM    7  C   UNL     1      -9.437  16.006  66.774  1.00  0.00    -0.231 C  
HETATM    8  C   UNL     1     -11.057  16.871  65.044  1.00  0.00     0.009 C  
HETATM    9  H   UNL     1     -10.450  16.091  63.247  1.00  0.00     0.000 HD 
HETATM   10  N   UNL     1      -9.501  14.844  66.057  1.00  0.00    -0.400 N  
HETATM   11  O   UNL     1      -8.568  16.146  67.626  1.00  0.00    -0.170 OA 
HETATM   12  O   UNL     1      -9.133  14.106  63.963  1.00  0.00     3.293 OA 
HETATM   13  N   UNL     1     -10.390  15.967  64.257  1.00  0.00     1.215 N  
HETATM   14  C   UNL     1      -9.659  14.922  64.716  1.00  0.00     0.943 C  
HETATM   15  H   UNL     1      -9.431  13.938  66.522  1.00  0.00     0.000 HD 
BRANCH   5  16
HETATM   16  C   UNL     1     -10.132  18.466  66.805  1.00  0.00    -0.391 A  
HETATM   17  C   UNL     1      -8.383  20.074  67.356  1.00  0.00    -0.382 A  
HETATM   18  C   UNL     1      -8.870  18.764  67.352  1.00  0.00    -0.285 A  
HETATM   19  C   UNL     1     -10.948  19.547  66.431  1.00  0.00    -0.317 A  
HETATM   20  C   UNL     1      -9.159  21.110  66.848  1.00  0.00     0.285 A  
HETATM   21  C   UNL     1     -10.455  20.851  66.417  1.00  0.00     1.050 A  
ENDBRANCH   5  16
ENDBRANCH   2   5
BRANCH   4  22
HETATM   22  C   UNL     2     -12.122  13.212  65.874  1.00  0.00    -0.444 A  
HETATM   23  C   UNL     2     -11.762  13.134  64.544  1.00  0.00    -0.417 A  
HETATM   24  C   UNL     2     -10.301  11.667  66.488  1.00  0.00    -0.259 A  
HETATM   25  C   UNL     2      -8.492  10.115  66.906  1.00  0.00    -0.126 A  
HETATM   26  C   UNL     2     -10.681  12.326  64.183  1.00  0.00    -0.412 A  
HETATM   27  C   UNL     2      -8.260  10.103  65.541  1.00  0.00    -0.156 A  
HETATM   28  C   UNL     2     -11.354  12.547  66.824  1.00  0.00    -0.390 A  
HETATM   29  C   UNL     2      -9.540  10.892  67.424  1.00  0.00    -0.181 A  
HETATM   30  C   UNL     2      -9.974  11.569  65.112  1.00  0.00    -0.262 A  
HETATM   31  N   UNL     2      -8.984  10.800  64.648  1.00  0.00    -0.193 NA 
BRANCH  29  32
HETATM   32  C   UNL     2      -9.754  10.959  68.950  1.00  0.00    -0.187 C  
HETATM   33  H   UNL     2     -10.918  10.107  70.311  1.00  0.00     0.000 HD 
HETATM   34  O   UNL     2     -10.787  10.065  69.371  1.00  0.00    -0.217 OA 
BRANCH  32  35
HETATM   35  C   UNL     2      -8.504  10.669  69.860  1.00  0.00     0.420 C  
HETATM   36  C   UNL     2      -6.883   8.733  69.984  1.00  0.00    -0.042 C  
HETATM   37  C   UNL     2      -6.425   9.353  71.315  1.00  0.00    -0.037 C  
HETATM   38  C   UNL     2      -7.620  10.018  72.015  1.00  0.00     2.829 C  
HETATM   39  C   UNL     2      -7.394   9.891  69.106  1.00  0.00    -0.083 C  
HETATM   40  N   UNL     2      -8.831   9.991  71.161  1.00  0.00     0.664 NA 
HETATM   41  C   UNL     2      -9.187   8.559  70.972  1.00  0.00    -0.182 C  
HETATM   42  C   UNL     2      -8.080   7.777  70.217  1.00  0.00    -0.113 C  
BRANCH  42  43
HETATM   43  C   UNL     2      -7.677   6.526  70.965  1.00  0.00    -0.094 C  
HETATM   44  C   UNL     2      -7.726   5.288  70.455  1.00  0.00    -0.079 C  
ENDBRANCH  42  43
ENDBRANCH  32  35
ENDBRANCH  29  32
ENDBRANCH   4  22
TORSDOF 6
ENDMDL
MODEL      302
REMARK 921   NORMALIZED FREE ENERGY PREDICTED BY IDOCK:   24.46 KCAL/MOL
REMARK 922        TOTAL FREE ENERGY PREDICTED BY IDOCK:   29.97 KCAL/MOL
REMARK 923 INTER-LIGAND FREE ENERGY PREDICTED BY IDOCK:   24.30 KCAL/MOL
REMARK 924 INTRA-LIGAND FREE ENERGY PREDICTED BY IDOCK:    5.67 KCAL/MOL
REMARK 927      BINDING AFFINITY PREDICTED BY RF-SCORE:    0.00 PKD
ROOT
HETATM    1  C   UNL     1     -12.488  12.134  66.438  1.00  0.00     0.964 C  
HETATM    2  C   UNL     1     -12.757  12.341  67.927  1.00  0.00     2.021 C  
HETATM    3  C   UNL     2     -11.316   8.871  66.330  1.00  0.00     2.841 C  
HETATM    4  O   UNL     2     -11.958   9.321  67.512  1.00  0.00     2.078 OA 
ENDROOT
BRANCH   2   5
HETATM    5  C   UNL     1     -11.666  13.110  68.747  1.00  0.00    -0.363 C  
HETATM    6  O   UNL     1     -13.154  14.162  70.409  1.00  0.00    -0.218 OA 
HETATM    7  C   UNL     1     -10.723  13.655  67.661  1.00  0.00    -0.245 C  
HETATM    8  C   UNL     1     -12.335  14.291  69.495  1.00  0.00    -0.230 C  
HETATM    9  H   UNL     1     -12.089  16.303  69.805  1.00  0.00     0.000 HD 
HETATM   10  N   UNL     1     -11.082  14.855  67.114  1.00  0.00    -0.324 N  
HETATM   11  O   UNL     1      -9.752  13.052  67.217  1.00  0.00    -0.216 OA 
HETATM   12  O   UNL     1     -11.095  17.041  67.648  1.00  0.00    -0.224 OA 
HETATM   13  N   UNL     1     -11.942  15.553  69.131  1.00  0.00    -0.339 N  
HETATM   14  C   UNL     1     -11.371  15.882  67.946  1.00  0.00    -0.252 C  
HETATM   15  H   UNL     1     -11.131  14.974  66.102  1.00  0.00     0.000 HD 
BRANCH   5  16
HETATM   16  C   UNL     1     -10.938  12.171  69.732  1.00  0.00     0.176 A  
HETATM   17  C   UNL     1      -8.868  11.210  70.592  1.00  0.00     4.084 A  
HETATM   18  C   UNL     1      -9.586  11.821  69.561  1.00  0.00     0.936 A  
HETATM   19  C   UNL     1     -11.579  11.727  70.901  1.00  0.00     0.621 A  
HETATM   20  C   UNL     1      -9.494  10.907  71.795  1.00  0.00     8.831 A  
HETATM   21  C   UNL     1     -10.858  11.135  71.938  1.00  0.00     5.592 A  
ENDBRANCH   5  16
ENDBRANCH   2   5
BRANCH   4  22
HETATM   22  C   UNL     2     -11.385   8.963  68.692  1.00  0.00     0.601 A  
HETATM   23  C   UNL     2     -11.913   9.146  69.954  1.00  0.00     0.456 A  
HETATM   24  C   UNL     2      -9.391   7.873  69.651  1.00  0.00    -0.153 A  
HETATM   25  C   UNL     2      -7.493   6.863  70.761  1.00  0.00    -0.082 A  
HETATM   26  C   UNL     2     -11.186   8.700  71.061  1.00  0.00    -0.321 A  
HETATM   27  C   UNL     2      -8.120   7.137  71.964  1.00  0.00    -0.099 A  
HETATM   28  C   UNL     2     -10.185   8.274  68.553  1.00  0.00    -0.234 A  
HETATM   29  C   UNL     2      -8.108   7.242  69.556  1.00  0.00    -0.129 A  
HETATM   30  C   UNL     2      -9.932   8.107  70.940  1.00  0.00    -0.187 A  
HETATM   31  N   UNL     2      -9.309   7.756  72.069  1.00  0.00    -0.145 NA 
BRANCH  29  32
HETATM   32  C   UNL     2      -7.441   6.874  68.215  1.00  0.00    -0.099 C  
HETATM   33  H   UNL     2      -7.868   5.789  66.610  1.00  0.00     0.000 HD 
HETATM   34  O   UNL     2      -8.278   6.016  67.436  1.00  0.00    -0.106 OA 
BRANCH  32  35
HETATM   35  C   UNL     2      -7.016   8.064  67.279  1.00  0.00    -0.075 C  
HETATM   36  C   UNL     2      -8.085   9.114  65.243  1.00  0.00    -0.124 C  
HETATM   37  C   UNL     2      -6.732   9.817  65.038  1.00  0.00    -0.107 C  
HETATM   38  C   UNL     2      -5.595   8.898  65.508  1.00  0.00    -0.046 C  
HETATM   39  C   UNL     2      -8.235   8.868  66.756  1.00  0.00    -0.111 C  
HETATM   40  N   UNL     2      -6.121   7.664  66.138  1.00  0.00    -0.038 NA 
HETATM   41  C   UNL     2      -6.861   6.926  65.079  1.00  0.00    -0.051 C  
HETATM   42  C   UNL     2      -8.081   7.725  64.554  1.00  0.00    -0.108 C  
BRANCH  42  43
HETATM   43  C   UNL     2      -8.066   7.834  63.047  1.00  0.00    -0.086 C  
HETATM   44  C   UNL     2      -8.627   8.832  62.351  1.00  0.00    -0.188 C  
ENDBRANCH  42  43
ENDBRANCH  32  35
ENDBRANCH  29  32
ENDBRANCH   4  22
TORSDOF 6
ENDMDL
MODEL      303
REMARK 921   NORMALIZED FREE ENERGY PREDICTED BY IDOCK:   29.04 KCAL/MOL
REMARK 922        TOTAL FREE ENERGY PREDICTED BY IDOCK:   36.15 KCAL/MOL
REMARK 923 INTER-LIGAND FREE ENERGY PREDICTED BY IDOCK:   37.60 KCAL/MOL
REMARK 924 INTRA-LIGAND FREE ENERGY PREDICTED BY IDOCK:   -1.45 KCAL/MOL
REMARK 927      BINDING AFFINITY PREDICTED BY RF-SCORE:    0.00 PKD
ROOT
HETATM    1  C   UNL     1      -7.185   9.559  66.981  1.00  0.00    -0.087 C  
HETATM    2  C   UNL     1      -8.560   8.949  67.242  1.00  0.00    -0.119 C  
HETATM    3  C   UNL     2      -6.967  12.008  69.428  1.00  0.00     0.024 C  
HETATM    4  O   UNL     2      -7.981  11.022  69.544  1.00  0.00    -0.029 OA 
ENDROOT
BRANCH   2   5
HETATM    5  C   UNL     1      -9.738   9.429  66.328  1.00  0.00    -0.330 C  
HETATM    6  O   UNL     1     -10.515   7.215  65.568  1.00  0.00     1.845 OA 
HETATM    7  C   UNL     1      -9.155  10.660  65.614  1.00  0.00    -0.183 C  
HETATM    8  C   UNL     1     -10.052   8.324  65.288  1.00  0.00     1.960 C  
HETATM    9  H   UNL     1     -10.338   8.094  63.270  1.00  0.00     0.000 HD 
HETATM   10  N   UNL     1      -8.446  10.402  64.474  1.00  0.00    -0.179 N  
HETATM   11  O   UNL     1      -9.217  11.806  66.043  1.00  0.00    -0.223 OA 
HETATM   12  O   UNL     1      -8.809   9.816  62.332  1.00  0.00    -0.203 OA 
HETATM   13  N   UNL     1      -9.837   8.639  63.971  1.00  0.00     2.428 N  
HETATM   14  C   UNL     1      -9.011   9.619  63.527  1.00  0.00    -0.217 C  
HETATM   15  H   UNL     1      -7.512  10.790  64.341  1.00  0.00     0.000 HD 
BRANCH   5  16
HETATM   16  C   UNL     1     -10.989   9.778  67.161  1.00  0.00    -0.103 A  
HETATM   17  C   UNL     1     -12.776  11.336  67.733  1.00  0.00     3.021 A  
HETATM   18  C   UNL     1     -11.503  11.087  67.215  1.00  0.00    -0.164 A  
HETATM   19  C   UNL     1     -11.724   8.767  67.805  1.00  0.00     2.405 A  
HETATM   20  C   UNL     1     -13.542  10.291  68.238  1.00  0.00     9.468 A  
HETATM   21  C   UNL     1     -13.003   9.012  68.305  1.00  0.00     9.544 A  
ENDBRANCH   5  16
ENDBRANCH   2   5
BRANCH   4  22
HETATM   22  C   UNL     2      -9.214  11.456  69.920  1.00  0.00     1.660 A  
HETATM   23  C   UNL     2      -9.857  12.595  69.479  1.00  0.00     1.186 A  
HETATM   24  C   UNL     2     -11.146  10.877  71.338  1.00  0.00     1.752 A  
HETATM   25  C   UNL     2     -13.110  10.481  72.696  1.00  0.00     0.719 A  
HETATM   26  C   UNL     2     -11.136  12.879  69.966  1.00  0.00     0.396 A  
HETATM   27  C   UNL     2     -13.625  11.666  72.199  1.00  0.00    -0.019 A  
HETATM   28  C   UNL     2      -9.884  10.586  70.773  1.00  0.00     1.505 A  
HETATM   29  C   UNL     2     -11.835  10.055  72.289  1.00  0.00     0.823 A  
HETATM   30  C   UNL     2     -11.772  12.072  70.905  1.00  0.00     0.582 A  
HETATM   31  N   UNL     2     -12.978  12.462  71.330  1.00  0.00    -0.321 NA 
BRANCH  29  32
HETATM   32  C   UNL     2     -11.292   8.701  72.789  1.00  0.00     0.136 C  
HETATM   33  H   UNL     2     -11.763   7.340  74.153  1.00  0.00     0.000 HD 
HETATM   34  O   UNL     2     -12.098   8.174  73.845  1.00  0.00     2.033 OA 
BRANCH  32  35
HETATM   35  C   UNL     2     -11.137   7.555  71.722  1.00  0.00    -0.241 C  
HETATM   36  C   UNL     2     -10.979   5.040  71.915  1.00  0.00    -0.044 C  
HETATM   37  C   UNL     2     -10.535   5.071  70.442  1.00  0.00    -0.237 C  
HETATM   38  C   UNL     2      -9.726   6.348  70.172  1.00  0.00    -0.166 C  
HETATM   39  C   UNL     2     -11.890   6.263  72.132  1.00  0.00    -0.365 C  
HETATM   40  N   UNL     2      -9.712   7.241  71.355  1.00  0.00    -0.165 NA 
HETATM   41  C   UNL     2      -9.005   6.505  72.437  1.00  0.00    -0.133 C  
HETATM   42  C   UNL     2      -9.756   5.212  72.851  1.00  0.00    -0.169 C  
BRANCH  42  43
HETATM   43  C   UNL     2      -8.842   4.008  72.826  1.00  0.00    -0.111 C  
HETATM   44  C   UNL     2      -8.682   3.155  73.846  1.00  0.00    -0.076 C  
ENDBRANCH  42  43
ENDBRANCH  32  35
ENDBRANCH  29  32
ENDBRANCH   4  22
TORSDOF 6
ENDMDL
MODEL      304
REMARK 921   NORMALIZED FREE ENERGY PREDICTED BY IDOCK:   30.57 KCAL/MOL
REMARK 922        TOTAL FREE ENERGY PREDICTED BY IDOCK:   38.22 KCAL/MOL
REMARK 923 INTER-LIGAND FREE ENERGY PREDICTED BY IDOCK:   20.76 KCAL/MOL
REMARK 924 INTRA-LIGAND FREE ENERGY PREDICTED BY IDOCK:   17.46 KCAL/MOL
REMARK 927      BINDING AFFINITY PREDICTED BY RF-SCORE:    0.00 PKD
ROOT
HETATM    1  C   UNL     1     -10.079  15.253  71.905  1.00  0.00     2.333 C  
HETATM    2  C   UNL     1      -9.190  14.407  70.996  1.00  0.00     3.841 C  
HETATM    3  C   UNL     2     -13.270  14.278  70.958  1.00  0.00    -0.303 C  
HETATM    4  O   UNL     2     -12.169  13.485  70.545  1.00  0.00    -0.345 OA 
ENDROOT
BRANCH   2   5
HETATM    5  C   UNL     1      -8.610  15.103  69.718  1.00  0.00     0.052 C  
HETATM    6  O   UNL     1     -10.180  14.165  68.065  1.00  0.00    -0.224 OA 
HETATM    7  C   UNL     1      -7.088  15.007  69.921  1.00  0.00    -0.121 C  
HETATM    8  C   UNL     1      -9.020  14.286  68.468  1.00  0.00    -0.185 C  
HETATM    9  H   UNL     1      -8.195  13.469  66.777  1.00  0.00     0.000 HD 
HETATM   10  N   UNL     1      -6.506  13.848  69.490  1.00  0.00    -0.116 N  
HETATM   11  O   UNL     1      -6.410  15.846  70.505  1.00  0.00     0.073 OA 
HETATM   12  O   UNL     1      -5.919  12.846  67.562  1.00  0.00    -0.146 OA 
HETATM   13  N   UNL     1      -8.005  13.706  67.750  1.00  0.00    -0.156 N  
HETATM   14  C   UNL     1      -6.771  13.423  68.233  1.00  0.00    -0.105 C  
HETATM   15  H   UNL     1      -5.886  13.316  70.100  1.00  0.00     0.000 HD 
BRANCH   5  16
HETATM   16  C   UNL     1      -9.090  16.565  69.608  1.00  0.00     0.377 A  
HETATM   17  C   UNL     1      -8.610  18.919  69.188  1.00  0.00    -0.048 A  
HETATM   18  C   UNL     1      -8.186  17.642  69.566  1.00  0.00     0.654 A  
HETATM   19  C   UNL     1     -10.454  16.857  69.431  1.00  0.00    -0.283 A  
HETATM   20  C   UNL     1      -9.946  19.149  68.880  1.00  0.00    -0.481 A  
HETATM   21  C   UNL     1     -10.874  18.126  69.034  1.00  0.00     0.637 A  
ENDBRANCH   5  16
ENDBRANCH   2   5
BRANCH   4  22
HETATM   22  C   UNL     2     -12.188  13.037  69.261  1.00  0.00    -0.089 A  
HETATM   23  C   UNL     2     -12.358  11.731  68.846  1.00  0.00     0.131 A  
HETATM   24  C   UNL     2     -12.037  13.793  66.919  1.00  0.00    -0.454 A  
HETATM   25  C   UNL     2     -11.876  14.355  64.571  1.00  0.00    -0.463 A  
HETATM   26  C   UNL     2     -12.364  11.454  67.476  1.00  0.00     1.214 A  
HETATM   27  C   UNL     2     -12.022  13.006  64.294  1.00  0.00    -0.402 A  
HETATM   28  C   UNL     2     -12.106  14.046  68.307  1.00  0.00    -0.312 A  
HETATM   29  C   UNL     2     -11.862  14.792  65.905  1.00  0.00    -0.204 A  
HETATM   30  C   UNL     2     -12.171  12.441  66.515  1.00  0.00     0.110 A  
HETATM   31  N   UNL     2     -12.156  12.055  65.235  1.00  0.00    -0.392 NA 
BRANCH  29  32
HETATM   32  C   UNL     2     -11.770  16.301  66.209  1.00  0.00     1.079 C  
HETATM   33  H   UNL     2     -11.215  17.466  67.715  1.00  0.00     0.000 HD 
HETATM   34  O   UNL     2     -11.272  16.536  67.528  1.00  0.00    -0.152 OA 
BRANCH  32  35
HETATM   35  C   UNL     2     -10.899  17.174  65.233  1.00  0.00    -0.036 C  
HETATM   36  C   UNL     2      -8.583  18.167  65.422  1.00  0.00     1.428 C  
HETATM   37  C   UNL     2      -8.960  18.992  64.179  1.00  0.00     8.913 C  
HETATM   38  C   UNL     2     -10.460  19.324  64.214  1.00  0.00     5.788 C  
HETATM   39  C   UNL     2      -9.385  16.856  65.348  1.00  0.00     0.761 C  
HETATM   40  N   UNL     2     -11.136  18.655  65.351  1.00  0.00    -0.192 NA 
HETATM   41  C   UNL     2     -10.542  19.219  66.592  1.00  0.00    -0.438 C  
HETATM   42  C   UNL     2      -9.028  18.902  66.712  1.00  0.00    -0.320 C  
BRANCH  42  43
HETATM   43  C   UNL     2      -8.219  20.152  66.969  1.00  0.00    -0.374 C  
HETATM   44  C   UNL     2      -6.918  20.288  66.676  1.00  0.00    -0.287 C  
ENDBRANCH  42  43
ENDBRANCH  32  35
ENDBRANCH  29  32
ENDBRANCH   4  22
TORSDOF 6
ENDMDL
MODEL      305
REMARK 921   NORMALIZED FREE ENERGY PREDICTED BY IDOCK:   31.00 KCAL/MOL
REMARK 922        TOTAL FREE ENERGY PREDICTED BY IDOCK:   38.79 KCAL/MOL
REMARK 923 INTER-LIGAND FREE ENERGY PREDICTED BY IDOCK:   30.33 KCAL/MOL
REMARK 924 INTRA-LIGAND FREE ENERGY PREDICTED BY IDOCK:    8.47 KCAL/MOL
REMARK 927      BINDING AFFINITY PREDICTED BY RF-SCORE:    0.00 PKD
ROOT
HETATM    1  C   UNL     1      -8.602  16.245  70.612  1.00  0.00     3.111 C  
HETATM    2  C   UNL     1      -8.119  16.369  69.169  1.00  0.00    -0.198 C  
HETATM    3  C   UNL     2      -7.118  13.287  71.652  1.00  0.00     4.969 C  
HETATM    4  O   UNL     2      -6.656  13.892  70.455  1.00  0.00    -0.021 OA 
ENDROOT
BRANCH   2   5
HETATM    5  C   UNL     1      -9.114  15.921  68.044  1.00  0.00    -0.184 C  
HETATM    6  O   UNL     1      -9.405  13.576  68.748  1.00  0.00    -0.086 OA 
HETATM    7  C   UNL     1      -8.551  16.597  66.782  1.00  0.00    -0.236 C  
HETATM    8  C   UNL     1      -9.039  14.382  67.888  1.00  0.00    -0.187 C  
HETATM    9  H   UNL     1      -8.830  12.953  66.431  1.00  0.00     0.000 HD 
HETATM   10  N   UNL     1      -7.576  15.900  66.124  1.00  0.00     0.178 N  
HETATM   11  O   UNL     1      -8.857  17.720  66.399  1.00  0.00    -0.305 OA 
HETATM   12  O   UNL     1      -7.368  14.105  64.782  1.00  0.00    10.899 OA 
HETATM   13  N   UNL     1      -8.576  13.906  66.688  1.00  0.00    -0.033 N  
HETATM   14  C   UNL     1      -7.807  14.603  65.816  1.00  0.00     3.828 C  
HETATM   15  H   UNL     1      -6.695  16.348  65.870  1.00  0.00     0.000 HD 
BRANCH   5  16
HETATM   16  C   UNL     1     -10.555  16.378  68.354  1.00  0.00    -0.311 A  
HETATM   17  C   UNL     1     -12.284  18.096  68.288  1.00  0.00     4.229 A  
HETATM   18  C   UNL     1     -10.936  17.731  68.282  1.00  0.00    -0.006 A  
HETATM   19  C   UNL     1     -11.565  15.434  68.607  1.00  0.00    -0.373 A  
HETATM   20  C   UNL     1     -13.272  17.124  68.400  1.00  0.00     6.162 A  
HETATM   21  C   UNL     1     -12.911  15.796  68.594  1.00  0.00     1.529 A  
ENDBRANCH   5  16
ENDBRANCH   2   5
BRANCH   4  22
HETATM   22  C   UNL     2      -6.418  13.063  69.404  1.00  0.00    -0.094 A  
HETATM   23  C   UNL     2      -5.186  12.633  68.954  1.00  0.00    -0.062 A  
HETATM   24  C   UNL     2      -7.549  11.741  67.656  1.00  0.00    -0.132 A  
HETATM   25  C   UNL     2      -8.490  10.417  65.863  1.00  0.00    -0.160 A  
HETATM   26  C   UNL     2      -5.131  11.766  67.861  1.00  0.00    -0.051 A  
HETATM   27  C   UNL     2      -7.195  10.091  65.497  1.00  0.00    -0.133 A  
HETATM   28  C   UNL     2      -7.569  12.562  68.806  1.00  0.00    -0.024 A  
HETATM   29  C   UNL     2      -8.708  11.273  66.954  1.00  0.00    -0.157 A  
HETATM   30  C   UNL     2      -6.273  11.344  67.185  1.00  0.00    -0.106 A  
HETATM   31  N   UNL     2      -6.099  10.547  66.127  1.00  0.00    -0.098 NA 
BRANCH  29  32
HETATM   32  C   UNL     2     -10.151  11.580  67.403  1.00  0.00    -0.191 C  
HETATM   33  H   UNL     2     -11.914  11.919  66.558  1.00  0.00     0.000 HD 
HETATM   34  O   UNL     2     -11.025  11.730  66.281  1.00  0.00    -0.278 OA 
BRANCH  32  35
HETATM   35  C   UNL     2     -10.833  10.545  68.372  1.00  0.00    -0.240 C  
HETATM   36  C   UNL     2     -10.547  10.054  70.835  1.00  0.00    -0.125 C  
HETATM   37  C   UNL     2     -11.359   8.777  70.557  1.00  0.00    -0.255 C  
HETATM   38  C   UNL     2     -11.045   8.262  69.144  1.00  0.00     0.214 C  
HETATM   39  C   UNL     2     -11.004  11.106  69.808  1.00  0.00    -0.216 C  
HETATM   40  N   UNL     2     -10.162   9.199  68.410  1.00  0.00    -0.194 NA 
HETATM   41  C   UNL     2      -8.872   9.237  69.150  1.00  0.00    -0.141 C  
HETATM   42  C   UNL     2      -9.038   9.799  70.586  1.00  0.00     0.038 C  
BRANCH  42  43
HETATM   43  C   UNL     2      -8.435   8.874  71.617  1.00  0.00    -0.137 C  
HETATM   44  C   UNL     2      -7.940   7.658  71.348  1.00  0.00    -0.094 C  
ENDBRANCH  42  43
ENDBRANCH  32  35
ENDBRANCH  29  32
ENDBRANCH   4  22
TORSDOF 6
ENDMDL
MODEL      306
REMARK 921   NORMALIZED FREE ENERGY PREDICTED BY IDOCK:   32.87 KCAL/MOL
REMARK 922        TOTAL FREE ENERGY PREDICTED BY IDOCK:   41.32 KCAL/MOL
REMARK 923 INTER-LIGAND FREE ENERGY PREDICTED BY IDOCK:   35.93 KCAL/MOL
REMARK 924 INTRA-LIGAND FREE ENERGY PREDICTED BY IDOCK:    5.39 KCAL/MOL
REMARK 927      BINDING AFFINITY PREDICTED BY RF-SCORE:    0.00 PKD
ROOT
HETATM    1  C   UNL     1      -7.555  10.834  63.796  1.00  0.00     0.304 C  
HETATM    2  C   UNL     1      -8.929  10.743  64.454  1.00  0.00    -0.176 C  
HETATM    3  C   UNL     2      -5.571   8.948  65.927  1.00  0.00    -0.045 C  
HETATM    4  O   UNL     2      -6.981   8.845  66.046  1.00  0.00    -0.081 OA 
ENDROOT
BRANCH   2   5
HETATM    5  C   UNL     1      -9.381  11.960  65.331  1.00  0.00    -0.048 C  
HETATM    6  O   UNL     1     -10.025  13.488  63.506  1.00  0.00     0.819 OA 
HETATM    7  C   UNL     1      -8.319  12.010  66.443  1.00  0.00     0.054 C  
HETATM    8  C   UNL     1      -9.305  13.252  64.480  1.00  0.00     1.234 C  
HETATM    9  H   UNL     1      -8.561  15.161  64.575  1.00  0.00     0.000 HD 
HETATM   10  N   UNL     1      -7.185  12.713  66.146  1.00  0.00     1.055 N  
HETATM   11  O   UNL     1      -8.397  11.405  67.506  1.00  0.00    -0.130 OA 
HETATM   12  O   UNL     1      -6.504  14.848  65.937  1.00  0.00     4.363 OA 
HETATM   13  N   UNL     1      -8.402  14.202  64.883  1.00  0.00     5.308 N  
HETATM   14  C   UNL     1      -7.314  13.968  65.658  1.00  0.00     6.810 C  
HETATM   15  H   UNL     1      -6.263  12.301  66.289  1.00  0.00     0.000 HD 
BRANCH   5  16
HETATM   16  C   UNL     1     -10.802  11.749  65.895  1.00  0.00    -0.339 A  
HETATM   17  C   UNL     1     -13.154  11.207  65.541  1.00  0.00     6.156 A  
HETATM   18  C   UNL     1     -11.929  11.672  65.055  1.00  0.00     0.129 A  
HETATM   19  C   UNL     1     -10.999  11.512  67.266  1.00  0.00    -0.323 A  
HETATM   20  C   UNL     1     -13.284  10.844  66.877  1.00  0.00    10.056 A  
HETATM   21  C   UNL     1     -12.216  11.029  67.747  1.00  0.00     0.892 A  
ENDBRANCH   5  16
ENDBRANCH   2   5
BRANCH   4  22
HETATM   22  C   UNL     2      -7.488   8.830  67.308  1.00  0.00    -0.089 A  
HETATM   23  C   UNL     2      -7.564   9.897  68.179  1.00  0.00    -0.081 A  
HETATM   24  C   UNL     2      -8.564   7.359  68.968  1.00  0.00    -0.133 A  
HETATM   25  C   UNL     2      -9.596   6.052  70.725  1.00  0.00    -0.197 A  
HETATM   26  C   UNL     2      -8.133   9.700  69.440  1.00  0.00    -0.118 A  
HETATM   27  C   UNL     2      -9.580   7.194  71.508  1.00  0.00    -0.157 A  
HETATM   28  C   UNL     2      -8.047   7.611  67.678  1.00  0.00    -0.121 A  
HETATM   29  C   UNL     2      -9.068   6.096  69.424  1.00  0.00    -0.135 A  
HETATM   30  C   UNL     2      -8.595   8.457  69.863  1.00  0.00    -0.131 A  
HETATM   31  N   UNL     2      -9.083   8.376  71.105  1.00  0.00    -0.160 NA 
BRANCH  29  32
HETATM   32  C   UNL     2      -9.149   4.843  68.529  1.00  0.00    -0.114 C  
HETATM   33  H   UNL     2      -9.984   3.045  68.588  1.00  0.00     0.000 HD 
HETATM   34  O   UNL     2      -9.934   3.817  69.140  1.00  0.00    -0.004 OA 
BRANCH  32  35
HETATM   35  C   UNL     2      -9.714   5.041  67.074  1.00  0.00    -0.165 C  
HETATM   36  C   UNL     2      -9.618   3.618  64.987  1.00  0.00    -0.171 C  
HETATM   37  C   UNL     2     -10.120   4.871  64.249  1.00  0.00     0.566 C  
HETATM   38  C   UNL     2      -9.550   6.130  64.920  1.00  0.00     1.210 C  
HETATM   39  C   UNL     2     -10.157   3.702  66.427  1.00  0.00     0.338 C  
HETATM   40  N   UNL     2      -8.795   5.793  66.151  1.00  0.00    -0.141 NA 
HETATM   41  C   UNL     2      -7.632   4.969  65.726  1.00  0.00    -0.086 C  
HETATM   42  C   UNL     2      -8.070   3.629  65.079  1.00  0.00    -0.090 C  
BRANCH  42  43
HETATM   43  C   UNL     2      -7.415   3.423  63.733  1.00  0.00    -0.062 C  
HETATM   44  C   UNL     2      -7.815   2.525  62.823  1.00  0.00    -0.067 C  
ENDBRANCH  42  43
ENDBRANCH  32  35
ENDBRANCH  29  32
ENDBRANCH   4  22
TORSDOF 6
ENDMDL
MODEL      307
REMARK 921   NORMALIZED FREE ENERGY PREDICTED BY IDOCK:   33.23 KCAL/MOL
REMARK 922        TOTAL FREE ENERGY PREDICTED BY IDOCK:   41.81 KCAL/MOL
REMARK 923 INTER-LIGAND FREE ENERGY PREDICTED BY IDOCK:   36.42 KCAL/MOL
REMARK 924 INTRA-LIGAND FREE ENERGY PREDICTED BY IDOCK:    5.39 KCAL/MOL
REMARK 927      BINDING AFFINITY PREDICTED BY RF-SCORE:    0.00 PKD
ROOT
HETATM    1  C   UNL     1     -10.825   7.426  65.525  1.00  0.00     4.319 C  
HETATM    2  C   UNL     1      -9.316   7.287  65.709  1.00  0.00     0.159 C  
HETATM    3  C   UNL     2     -11.080  10.180  63.432  1.00  0.00     3.151 C  
HETATM    4  O   UNL     2      -9.814   9.559  63.584  1.00  0.00     0.527 OA 
ENDROOT
BRANCH   2   5
HETATM    5  C   UNL     1      -8.703   7.867  67.029  1.00  0.00    -0.132 C  
HETATM    6  O   UNL     1      -9.638  10.143  66.879  1.00  0.00    -0.167 OA 
HETATM    7  C   UNL     1      -7.274   7.296  67.039  1.00  0.00    -0.092 C  
HETATM    8  C   UNL     1      -8.646   9.411  66.923  1.00  0.00    -0.127 C  
HETATM    9  H   UNL     1      -7.334  10.964  67.201  1.00  0.00     0.000 HD 
HETATM   10  N   UNL     1      -6.343   8.023  66.350  1.00  0.00    -0.046 N  
HETATM   11  O   UNL     1      -6.958   6.223  67.538  1.00  0.00    -0.064 OA 
HETATM   12  O   UNL     1      -5.165   9.929  66.560  1.00  0.00    -0.042 OA 
HETATM   13  N   UNL     1      -7.400   9.983  66.928  1.00  0.00    -0.091 N  
HETATM   14  C   UNL     1      -6.248   9.349  66.599  1.00  0.00    -0.065 C  
HETATM   15  H   UNL     1      -5.735   7.576  65.664  1.00  0.00     0.000 HD 
BRANCH   5  16
HETATM   16  C   UNL     1      -9.513   7.425  68.266  1.00  0.00    -0.143 A  
HETATM   17  C   UNL     1     -10.621   5.670  69.546  1.00  0.00    -0.384 A  
HETATM   18  C   UNL     1     -10.137   6.165  68.333  1.00  0.00    -0.186 A  
HETATM   19  C   UNL     1      -9.555   8.230  69.418  1.00  0.00    -0.171 A  
HETATM   20  C   UNL     1     -10.523   6.435  70.704  1.00  0.00    -0.269 A  
HETATM   21  C   UNL     1     -10.020   7.728  70.632  1.00  0.00    -0.186 A  
ENDBRANCH   5  16
ENDBRANCH   2   5
BRANCH   4  22
HETATM   22  C   UNL     2      -8.741  10.385  63.721  1.00  0.00    -0.193 A  
HETATM   23  C   UNL     2      -7.670  10.496  62.858  1.00  0.00    -0.096 A  
HETATM   24  C   UNL     2      -7.784  12.126  65.181  1.00  0.00     2.777 A  
HETATM   25  C   UNL     2      -6.685  13.820  66.515  1.00  0.00     2.705 A  
HETATM   26  C   UNL     2      -6.658  11.413  63.153  1.00  0.00     1.345 A  
HETATM   27  C   UNL     2      -5.658  13.807  65.586  1.00  0.00     9.187 A  
HETATM   28  C   UNL     2      -8.821  11.239  64.816  1.00  0.00     0.128 A  
HETATM   29  C   UNL     2      -7.782  12.959  66.348  1.00  0.00     1.045 A  
HETATM   30  C   UNL     2      -6.673  12.195  64.304  1.00  0.00     6.032 A  
HETATM   31  N   UNL     2      -5.632  13.008  64.505  1.00  0.00     9.961 NA 
BRANCH  29  32
HETATM   32  C   UNL     2      -8.957  13.024  67.344  1.00  0.00    -0.204 C  
HETATM   33  H   UNL     2      -9.722  11.904  68.791  1.00  0.00     0.000 HD 
HETATM   34  O   UNL     2      -8.998  11.864  68.177  1.00  0.00    -0.174 OA 
BRANCH  32  35
HETATM   35  C   UNL     2      -9.014  14.272  68.301  1.00  0.00    -0.187 C  
HETATM   36  C   UNL     2     -10.704  16.126  68.604  1.00  0.00    -0.295 C  
HETATM   37  C   UNL     2      -9.614  16.828  69.432  1.00  0.00    -0.010 C  
HETATM   38  C   UNL     2      -8.230  16.492  68.855  1.00  0.00    -0.241 C  
HETATM   39  C   UNL     2     -10.462  14.612  68.740  1.00  0.00    -0.246 C  
HETATM   40  N   UNL     2      -8.326  15.496  67.762  1.00  0.00    -0.142 NA 
HETATM   41  C   UNL     2      -9.103  16.138  66.668  1.00  0.00    -0.252 C  
HETATM   42  C   UNL     2     -10.553  16.479  67.103  1.00  0.00    -0.270 C  
BRANCH  42  43
HETATM   43  C   UNL     2     -10.892  17.923  66.816  1.00  0.00    -0.025 C  
HETATM   44  C   UNL     2      -9.988  18.896  66.643  1.00  0.00    -0.416 C  
ENDBRANCH  42  43
ENDBRANCH  32  35
ENDBRANCH  29  32
ENDBRANCH   4  22
TORSDOF 6
ENDMDL
MODEL      308
REMARK 921   NORMALIZED FREE ENERGY PREDICTED BY IDOCK:   34.51 KCAL/MOL
REMARK 922        TOTAL FREE ENERGY PREDICTED BY IDOCK:   43.53 KCAL/MOL
REMARK 923 INTER-LIGAND FREE ENERGY PREDICTED BY IDOCK:   39.77 KCAL/MOL
REMARK 924 INTRA-LIGAND FREE ENERGY PREDICTED BY IDOCK:    3.76 KCAL/MOL
REMARK 927      BINDING AFFINITY PREDICTED BY RF-SCORE:    0.00 PKD
ROOT
HETATM    1  C   UNL     1      -5.856  10.565  70.913  1.00  0.00    -0.057 C  
HETATM    2  C   UNL     1      -7.304  11.008  71.114  1.00  0.00     3.405 C  
HETATM    3  C   UNL     2      -5.342  11.170  67.537  1.00  0.00    -0.043 C  
HETATM    4  O   UNL     2      -6.481  11.741  68.162  1.00  0.00    -0.049 OA 
ENDROOT
BRANCH   2   5
HETATM    5  C   UNL     1      -8.395   9.884  71.138  1.00  0.00     1.147 C  
HETATM    6  O   UNL     1      -9.885  10.878  72.832  1.00  0.00    11.082 OA 
HETATM    7  C   UNL     1      -7.571   8.587  71.067  1.00  0.00    -0.090 C  
HETATM    8  C   UNL     1      -9.154   9.946  72.487  1.00  0.00     4.953 C  
HETATM    9  H   UNL     1      -9.754   8.718  74.016  1.00  0.00     0.000 HD 
HETATM   10  N   UNL     1      -7.124   8.105  72.266  1.00  0.00    -0.085 N  
HETATM   11  O   UNL     1      -7.235   8.033  70.028  1.00  0.00    -0.059 OA 
HETATM   12  O   UNL     1      -7.919   7.041  74.083  1.00  0.00    -0.107 OA 
HETATM   13  N   UNL     1      -9.028   8.860  73.315  1.00  0.00     0.516 N  
HETATM   14  C   UNL     1      -8.014   7.961  73.275  1.00  0.00    -0.161 C  
HETATM   15  H   UNL     1      -6.143   7.859  72.397  1.00  0.00     0.000 HD 
BRANCH   5  16
HETATM   16  C   UNL     1      -9.367  10.020  69.947  1.00  0.00    -0.207 A  
HETATM   17  C   UNL     1     -10.510   9.032  68.032  1.00  0.00    -0.270 A  
HETATM   18  C   UNL     1      -9.447   9.041  68.939  1.00  0.00    -0.151 A  
HETATM   19  C   UNL     1     -10.290  11.079  69.896  1.00  0.00     0.250 A  
HETATM   20  C   UNL     1     -11.489  10.018  68.093  1.00  0.00     0.055 A  
HETATM   21  C   UNL     1     -11.361  11.060  69.003  1.00  0.00    -0.345 A  
ENDBRANCH   5  16
ENDBRANCH   2   5
BRANCH   4  22
HETATM   22  C   UNL     2      -7.649  11.688  67.467  1.00  0.00    -0.128 A  
HETATM   23  C   UNL     2      -8.136  10.613  66.751  1.00  0.00    -0.131 A  
HETATM   24  C   UNL     2      -9.649  13.012  66.895  1.00  0.00    -0.243 A  
HETATM   25  C   UNL     2     -11.656  14.178  66.209  1.00  0.00    -0.379 A  
HETATM   26  C   UNL     2      -9.369  10.734  66.107  1.00  0.00    -0.209 A  
HETATM   27  C   UNL     2     -12.009  13.040  65.503  1.00  0.00    -0.424 A  
HETATM   28  C   UNL     2      -8.432  12.831  67.590  1.00  0.00    -0.178 A  
HETATM   29  C   UNL     2     -10.445  14.205  66.920  1.00  0.00    -0.272 A  
HETATM   30  C   UNL     2     -10.111  11.911  66.132  1.00  0.00    -0.228 A  
HETATM   31  N   UNL     2     -11.258  11.927  65.446  1.00  0.00    -0.314 NA 
BRANCH  29  32
HETATM   32  C   UNL     2     -10.086  15.445  67.762  1.00  0.00    -0.227 C  
HETATM   33  H   UNL     2      -9.644  17.354  67.454  1.00  0.00     0.000 HD 
HETATM   34  O   UNL     2      -9.865  16.590  66.935  1.00  0.00    -0.242 OA 
BRANCH  32  35
HETATM   35  C   UNL     2     -11.114  15.878  68.871  1.00  0.00    -0.316 C  
HETATM   36  C   UNL     2     -10.908  16.208  71.368  1.00  0.00     0.453 C  
HETATM   37  C   UNL     2     -12.447  16.249  71.373  1.00  0.00     0.125 C  
HETATM   38  C   UNL     2     -12.993  15.312  70.285  1.00  0.00    -0.191 C  
HETATM   39  C   UNL     2     -10.453  16.723  69.991  1.00  0.00     0.046 C  
HETATM   40  N   UNL     2     -11.899  14.741  69.464  1.00  0.00    -0.309 NA 
HETATM   41  C   UNL     2     -11.072  13.906  70.376  1.00  0.00     0.431 C  
HETATM   42  C   UNL     2     -10.408  14.747  71.496  1.00  0.00     1.736 C  
BRANCH  42  43
HETATM   43  C   UNL     2     -10.683  14.164  72.864  1.00  0.00     4.442 C  
HETATM   44  C   UNL     2     -10.389  12.909  73.228  1.00  0.00    16.546 C  
ENDBRANCH  42  43
ENDBRANCH  32  35
ENDBRANCH  29  32
ENDBRANCH   4  22
TORSDOF 6
ENDMDL
MODEL      309
REMARK 921   NORMALIZED FREE ENERGY PREDICTED BY IDOCK:   34.77 KCAL/MOL
REMARK 922        TOTAL FREE ENERGY PREDICTED BY IDOCK:   43.89 KCAL/MOL
REMARK 923 INTER-LIGAND FREE ENERGY PREDICTED BY IDOCK:   32.12 KCAL/MOL
REMARK 924 INTRA-LIGAND FREE ENERGY PREDICTED BY IDOCK:   11.77 KCAL/MOL
REMARK 927      BINDING AFFINITY PREDICTED BY RF-SCORE:    0.00 PKD
ROOT
HETATM    1  C   UNL     1      -8.602  16.245  70.612  1.00  0.00     3.111 C  
HETATM    2  C   UNL     1      -8.119  16.369  69.169  1.00  0.00    -0.198 C  
HETATM    3  C   UNL     2      -7.118  13.287  71.652  1.00  0.00     4.969 C  
HETATM    4  O   UNL     2      -6.656  13.892  70.455  1.00  0.00    -0.021 OA 
ENDROOT
BRANCH   2   5
HETATM    5  C   UNL     1      -9.114  15.921  68.044  1.00  0.00    -0.184 C  
HETATM    6  O   UNL     1     -10.882  17.590  68.455  1.00  0.00    -0.284 OA 
HETATM    7  C   UNL     1      -9.057  14.385  68.110  1.00  0.00    -0.194 C  
HETATM    8  C   UNL     1     -10.539  16.405  68.408  1.00  0.00    -0.311 C  
HETATM    9  H   UNL     1     -12.459  15.695  68.547  1.00  0.00     0.000 HD 
HETATM   10  N   UNL     1      -9.899  13.801  69.014  1.00  0.00    -0.425 N  
HETATM   11  O   UNL     1      -8.266  13.691  67.482  1.00  0.00    -0.160 OA 
HETATM   12  O   UNL     1     -12.088  13.341  69.261  1.00  0.00    -0.301 OA 
HETATM   13  N   UNL     1     -11.478  15.434  68.645  1.00  0.00    -0.329 N  
HETATM   14  C   UNL     1     -11.205  14.154  69.000  1.00  0.00    -0.271 C  
HETATM   15  H   UNL     1      -9.552  13.115  69.685  1.00  0.00     0.000 HD 
BRANCH   5  16
HETATM   16  C   UNL     1      -8.680  16.460  66.664  1.00  0.00    -0.291 A  
HETATM   17  C   UNL     1      -7.330  16.246  64.644  1.00  0.00     9.476 A  
HETATM   18  C   UNL     1      -7.549  15.958  65.994  1.00  0.00     1.204 A  
HETATM   19  C   UNL     1      -9.477  17.394  65.980  1.00  0.00    -0.122 A  
HETATM   20  C   UNL     1      -8.215  17.065  63.951  1.00  0.00    13.806 A  
HETATM   21  C   UNL     1      -9.270  17.666  64.628  1.00  0.00     5.279 A  
ENDBRANCH   5  16
ENDBRANCH   2   5
BRANCH   4  22
HETATM   22  C   UNL     2      -6.418  13.063  69.404  1.00  0.00    -0.094 A  
HETATM   23  C   UNL     2      -5.186  12.633  68.954  1.00  0.00    -0.062 A  
HETATM   24  C   UNL     2      -7.549  11.741  67.656  1.00  0.00    -0.132 A  
HETATM   25  C   UNL     2      -8.490  10.417  65.863  1.00  0.00    -0.160 A  
HETATM   26  C   UNL     2      -5.131  11.766  67.861  1.00  0.00    -0.051 A  
HETATM   27  C   UNL     2      -7.195  10.091  65.497  1.00  0.00    -0.133 A  
HETATM   28  C   UNL     2      -7.569  12.562  68.806  1.00  0.00    -0.024 A  
HETATM   29  C   UNL     2      -8.708  11.273  66.954  1.00  0.00    -0.157 A  
HETATM   30  C   UNL     2      -6.273  11.344  67.185  1.00  0.00    -0.106 A  
HETATM   31  N   UNL     2      -6.099  10.547  66.127  1.00  0.00    -0.098 NA 
BRANCH  29  32
HETATM   32  C   UNL     2     -10.151  11.580  67.403  1.00  0.00    -0.191 C  
HETATM   33  H   UNL     2     -11.914  11.919  66.558  1.00  0.00     0.000 HD 
HETATM   34  O   UNL     2     -11.025  11.730  66.281  1.00  0.00    -0.278 OA 
BRANCH  32  35
HETATM   35  C   UNL     2     -10.833  10.545  68.372  1.00  0.00    -0.240 C  
HETATM   36  C   UNL     2     -10.547  10.054  70.835  1.00  0.00    -0.125 C  
HETATM   37  C   UNL     2     -11.359   8.777  70.557  1.00  0.00    -0.255 C  
HETATM   38  C   UNL     2     -11.045   8.262  69.144  1.00  0.00     0.214 C  
HETATM   39  C   UNL     2     -11.004  11.106  69.808  1.00  0.00    -0.216 C  
HETATM   40  N   UNL     2     -10.162   9.199  68.410  1.00  0.00    -0.194 NA 
HETATM   41  C   UNL     2      -8.872   9.237  69.150  1.00  0.00    -0.141 C  
HETATM   42  C   UNL     2      -9.038   9.799  70.586  1.00  0.00     0.038 C  
BRANCH  42  43
HETATM   43  C   UNL     2      -8.435   8.874  71.617  1.00  0.00    -0.137 C  
HETATM   44  C   UNL     2      -7.940   7.658  71.348  1.00  0.00    -0.094 C  
ENDBRANCH  42  43
ENDBRANCH  32  35
ENDBRANCH  29  32
ENDBRANCH   4  22
TORSDOF 6
ENDMDL
MODEL      310
REMARK 921   NORMALIZED FREE ENERGY PREDICTED BY IDOCK:   41.09 KCAL/MOL
REMARK 922        TOTAL FREE ENERGY PREDICTED BY IDOCK:   52.42 KCAL/MOL
REMARK 923 INTER-LIGAND FREE ENERGY PREDICTED BY IDOCK:   47.72 KCAL/MOL
REMARK 924 INTRA-LIGAND FREE ENERGY PREDICTED BY IDOCK:    4.70 KCAL/MOL
REMARK 927      BINDING AFFINITY PREDICTED BY RF-SCORE:    0.00 PKD
ROOT
HETATM    1  C   UNL     1     -11.142  16.526  69.647  1.00  0.00    -0.235 C  
HETATM    2  C   UNL     1     -10.498  15.755  70.797  1.00  0.00     0.159 C  
HETATM    3  C   UNL     2     -13.515  14.285  68.473  1.00  0.00     4.566 C  
HETATM    4  O   UNL     2     -12.920  14.041  69.737  1.00  0.00     0.057 OA 
ENDROOT
BRANCH   2   5
HETATM    5  C   UNL     1      -9.130  15.050  70.504  1.00  0.00     1.299 C  
HETATM    6  O   UNL     1      -9.432  14.693  68.083  1.00  0.00    -0.200 OA 
HETATM    7  C   UNL     1      -8.949  14.111  71.709  1.00  0.00     8.015 C  
HETATM    8  C   UNL     1      -9.261  14.213  69.207  1.00  0.00     0.345 C  
HETATM    9  H   UNL     1      -8.871  12.328  68.500  1.00  0.00     0.000 HD 
HETATM   10  N   UNL     1      -9.545  12.885  71.597  1.00  0.00    13.005 N  
HETATM   11  O   UNL     1      -8.395  14.423  72.756  1.00  0.00     5.484 OA 
HETATM   12  O   UNL     1      -9.244  10.930  70.524  1.00  0.00     1.433 OA 
HETATM   13  N   UNL     1      -9.129  12.854  69.334  1.00  0.00     1.034 N  
HETATM   14  C   UNL     1      -9.315  12.156  70.482  1.00  0.00     6.138 C  
HETATM   15  H   UNL     1     -10.149  12.529  72.338  1.00  0.00     0.000 HD 
BRANCH   5  16
HETATM   16  C   UNL     1      -7.982  16.075  70.389  1.00  0.00     1.738 A  
HETATM   17  C   UNL     1      -6.070  17.222  71.377  1.00  0.00     1.784 A  
HETATM   18  C   UNL     1      -7.271  16.522  71.518  1.00  0.00     5.647 A  
HETATM   19  C   UNL     1      -7.536  16.509  69.129  1.00  0.00    -0.218 A  
HETATM   20  C   UNL     1      -5.577  17.517  70.111  1.00  0.00    -0.249 A  
HETATM   21  C   UNL     1      -6.327  17.191  68.988  1.00  0.00    -0.204 A  
ENDBRANCH   5  16
ENDBRANCH   2   5
BRANCH   4  22
HETATM   22  C   UNL     2     -12.562  12.757  70.005  1.00  0.00     0.141 A  
HETATM   23  C   UNL     2     -12.717  12.091  71.204  1.00  0.00    -0.365 A  
HETATM   24  C   UNL     2     -11.575  10.743  68.980  1.00  0.00    -0.370 A  
HETATM   25  C   UNL     2     -10.597   8.693  68.146  1.00  0.00    -0.189 A  
HETATM   26  C   UNL     2     -12.301  10.760  71.296  1.00  0.00    -0.470 A  
HETATM   27  C   UNL     2     -10.779   8.157  69.409  1.00  0.00    -0.156 A  
HETATM   28  C   UNL     2     -12.069  12.064  68.904  1.00  0.00    -0.201 A  
HETATM   29  C   UNL     2     -10.977  10.021  67.895  1.00  0.00    -0.311 A  
HETATM   30  C   UNL     2     -11.705  10.090  70.231  1.00  0.00    -0.251 A  
HETATM   31  N   UNL     2     -11.310   8.831  70.444  1.00  0.00    -0.233 NA 
BRANCH  29  32
HETATM   32  C   UNL     2     -10.838  10.595  66.470  1.00  0.00    -0.099 C  
HETATM   33  H   UNL     2     -11.185  12.309  65.535  1.00  0.00     0.000 HD 
HETATM   34  O   UNL     2     -11.270  11.956  66.413  1.00  0.00    -0.307 OA 
BRANCH  32  35
HETATM   35  C   UNL     2      -9.408  10.546  65.817  1.00  0.00    -0.188 C  
HETATM   36  C   UNL     2      -8.603   9.975  63.490  1.00  0.00    -0.209 C  
HETATM   37  C   UNL     2      -7.197   9.925  64.114  1.00  0.00    -0.134 C  
HETATM   38  C   UNL     2      -7.290   9.406  65.557  1.00  0.00    -0.088 C  
HETATM   39  C   UNL     2      -9.426  10.972  64.326  1.00  0.00    -0.270 C  
HETATM   40  N   UNL     2      -8.699   9.229  65.979  1.00  0.00    -0.146 NA 
HETATM   41  C   UNL     2      -9.276   8.172  65.105  1.00  0.00     0.452 C  
HETATM   42  C   UNL     2      -9.297   8.595  63.613  1.00  0.00     1.328 C  
BRANCH  42  43
HETATM   43  C   UNL     2      -8.655   7.549  62.732  1.00  0.00     0.281 C  
HETATM   44  C   UNL     2      -7.334   7.416  62.550  1.00  0.00    -0.092 C  
ENDBRANCH  42  43
ENDBRANCH  32  35
ENDBRANCH  29  32
ENDBRANCH   4  22
TORSDOF 6
ENDMDL
MODEL      311
REMARK 921   NORMALIZED FREE ENERGY PREDICTED BY IDOCK:   41.33 KCAL/MOL
REMARK 922        TOTAL FREE ENERGY PREDICTED BY IDOCK:   52.75 KCAL/MOL
REMARK 923 INTER-LIGAND FREE ENERGY PREDICTED BY IDOCK:   21.02 KCAL/MOL
REMARK 924 INTRA-LIGAND FREE ENERGY PREDICTED BY IDOCK:   31.73 KCAL/MOL
REMARK 927      BINDING AFFINITY PREDICTED BY RF-SCORE:    0.00 PKD
ROOT
HETATM    1  C   UNL     1      -6.938  10.721  66.276  1.00  0.00    -0.134 C  
HETATM    2  C   UNL     1      -8.274  10.437  66.957  1.00  0.00    -0.123 C  
HETATM    3  C   UNL     2      -5.780  13.492  68.011  1.00  0.00    -0.124 C  
HETATM    4  O   UNL     2      -6.858  12.752  68.559  1.00  0.00    -0.081 OA 
ENDROOT
BRANCH   2   5
HETATM    5  C   UNL     1      -9.565  10.952  66.235  1.00  0.00    -0.234 C  
HETATM    6  O   UNL     1     -11.163   9.323  67.170  1.00  0.00     0.137 OA 
HETATM    7  C   UNL     1      -9.074  11.272  64.813  1.00  0.00    -0.019 C  
HETATM    8  C   UNL     1     -10.605   9.805  66.180  1.00  0.00     0.052 C  
HETATM    9  H   UNL     1     -11.840   8.858  64.844  1.00  0.00     0.000 HD 
HETATM   10  N   UNL     1      -9.069  10.221  63.939  1.00  0.00    -0.231 N  
HETATM   11  O   UNL     1      -8.623  12.356  64.460  1.00  0.00     1.544 OA 
HETATM   12  O   UNL     1     -10.520   8.988  62.740  1.00  0.00     3.958 OA 
HETATM   13  N   UNL     1     -10.947   9.342  64.936  1.00  0.00     3.424 N  
HETATM   14  C   UNL     1     -10.193   9.478  63.818  1.00  0.00     2.265 C  
HETATM   15  H   UNL     1      -8.237  10.001  63.391  1.00  0.00     0.000 HD 
BRANCH   5  16
HETATM   16  C   UNL     1     -10.146  12.195  66.942  1.00  0.00    -0.222 A  
HETATM   17  C   UNL     1     -10.594  13.441  68.990  1.00  0.00    -0.106 A  
HETATM   18  C   UNL     1     -10.338  12.234  68.335  1.00  0.00    -0.231 A  
HETATM   19  C   UNL     1     -10.396  13.375  66.221  1.00  0.00    -0.291 A  
HETATM   20  C   UNL     1     -10.697  14.622  68.263  1.00  0.00    -0.240 A  
HETATM   21  C   UNL     1     -10.632  14.584  66.875  1.00  0.00    -0.279 A  
ENDBRANCH   5  16
ENDBRANCH   2   5
BRANCH   4  22
HETATM   22  C   UNL     2      -7.887  13.470  69.086  1.00  0.00     0.276 A  
HETATM   23  C   UNL     2      -8.086  14.831  68.972  1.00  0.00    -0.145 A  
HETATM   24  C   UNL     2      -9.961  13.246  70.400  1.00  0.00     3.689 A  
HETATM   25  C   UNL     2     -12.000  13.214  71.702  1.00  0.00     0.901 A  
HETATM   26  C   UNL     2      -9.212  15.400  69.571  1.00  0.00    -0.240 A  
HETATM   27  C   UNL     2     -12.061  14.587  71.540  1.00  0.00    -0.331 A  
HETATM   28  C   UNL     2      -8.849  12.695  69.724  1.00  0.00     2.483 A  
HETATM   29  C   UNL     2     -10.929  12.496  71.146  1.00  0.00     3.929 A  
HETATM   30  C   UNL     2     -10.125  14.650  70.307  1.00  0.00     0.593 A  
HETATM   31  N   UNL     2     -11.144  15.307  70.869  1.00  0.00    -0.321 NA 
BRANCH  29  32
HETATM   32  C   UNL     2     -10.900  10.959  71.268  1.00  0.00     2.152 C  
HETATM   33  H   UNL     2     -12.162   9.443  71.062  1.00  0.00     0.000 HD 
HETATM   34  O   UNL     2     -12.180  10.390  70.987  1.00  0.00    -0.326 OA 
BRANCH  32  35
HETATM   35  C   UNL     2      -9.856  10.192  70.375  1.00  0.00     0.137 C  
HETATM   36  C   UNL     2      -9.489   7.739  69.889  1.00  0.00    -0.160 C  
HETATM   37  C   UNL     2      -8.144   8.179  69.284  1.00  0.00    -0.117 C  
HETATM   38  C   UNL     2      -7.597   9.386  70.062  1.00  0.00    -0.113 C  
HETATM   39  C   UNL     2     -10.461   8.921  69.722  1.00  0.00    -0.217 C  
HETATM   40  N   UNL     2      -8.568   9.861  71.077  1.00  0.00     0.224 NA 
HETATM   41  C   UNL     2      -8.733   8.756  72.059  1.00  0.00    -0.090 C  
HETATM   42  C   UNL     2      -9.338   7.484  71.410  1.00  0.00    -0.151 C  
BRANCH  42  43
HETATM   43  C   UNL     2      -8.503   6.259  71.707  1.00  0.00    -0.129 C  
HETATM   44  C   UNL     2      -7.432   6.247  72.511  1.00  0.00    -0.093 C  
ENDBRANCH  42  43
ENDBRANCH  32  35
ENDBRANCH  29  32
ENDBRANCH   4  22
TORSDOF 6
ENDMDL
MODEL      312
REMARK 921   NORMALIZED FREE ENERGY PREDICTED BY IDOCK:   42.57 KCAL/MOL
REMARK 922        TOTAL FREE ENERGY PREDICTED BY IDOCK:   54.43 KCAL/MOL
REMARK 923 INTER-LIGAND FREE ENERGY PREDICTED BY IDOCK:   26.59 KCAL/MOL
REMARK 924 INTRA-LIGAND FREE ENERGY PREDICTED BY IDOCK:   27.84 KCAL/MOL
REMARK 927      BINDING AFFINITY PREDICTED BY RF-SCORE:    0.00 PKD
ROOT
HETATM    1  C   UNL     1     -11.803  15.316  66.664  1.00  0.00     0.153 C  
HETATM    2  C   UNL     1     -11.295  14.390  67.767  1.00  0.00    -0.331 C  
HETATM    3  C   UNL     2     -12.792  13.084  64.200  1.00  0.00     0.006 C  
HETATM    4  O   UNL     2     -12.545  12.587  65.505  1.00  0.00    -0.642 OA 
ENDROOT
BRANCH   2   5
HETATM    5  C   UNL     1      -9.745  14.184  67.867  1.00  0.00    -0.224 C  
HETATM    6  O   UNL     1      -9.752  12.120  69.216  1.00  0.00     0.304 OA 
HETATM    7  C   UNL     1      -9.212  15.609  68.095  1.00  0.00    -0.185 C  
HETATM    8  C   UNL     1      -9.431  13.306  69.104  1.00  0.00     0.560 C  
HETATM    9  H   UNL     1      -8.204  13.279  70.747  1.00  0.00     0.000 HD 
HETATM   10  N   UNL     1      -9.186  16.029  69.395  1.00  0.00    -0.239 N  
HETATM   11  O   UNL     1      -8.902  16.386  67.200  1.00  0.00    -0.186 OA 
HETATM   12  O   UNL     1      -7.992  15.701  71.274  1.00  0.00     2.905 OA 
HETATM   13  N   UNL     1      -8.707  13.895  70.108  1.00  0.00     2.113 N  
HETATM   14  C   UNL     1      -8.606  15.230  70.319  1.00  0.00     0.855 C  
HETATM   15  H   UNL     1      -9.596  16.925  69.663  1.00  0.00     0.000 HD 
BRANCH   5  16
HETATM   16  C   UNL     1      -9.179  13.551  66.578  1.00  0.00    -0.187 A  
HETATM   17  C   UNL     1      -7.310  12.579  65.350  1.00  0.00     4.195 A  
HETATM   18  C   UNL     1      -7.795  13.395  66.374  1.00  0.00     1.267 A  
HETATM   19  C   UNL     1     -10.041  13.002  65.614  1.00  0.00    -0.276 A  
HETATM   20  C   UNL     1      -8.193  11.933  64.492  1.00  0.00     1.885 A  
HETATM   21  C   UNL     1      -9.558  12.171  64.603  1.00  0.00     0.042 A  
ENDBRANCH   5  16
ENDBRANCH   2   5
BRANCH   4  22
HETATM   22  C   UNL     2     -11.856  11.417  65.592  1.00  0.00     0.642 A  
HETATM   23  C   UNL     2     -11.691  10.480  64.592  1.00  0.00     2.555 A  
HETATM   24  C   UNL     2     -10.491  10.058  67.131  1.00  0.00    -0.305 A  
HETATM   25  C   UNL     2      -9.163   8.584  68.516  1.00  0.00    -0.135 A  
HETATM   26  C   UNL     2     -10.935   9.336  64.857  1.00  0.00     4.678 A  
HETATM   27  C   UNL     2      -9.105   7.715  67.440  1.00  0.00    -0.126 A  
HETATM   28  C   UNL     2     -11.203  11.234  66.806  1.00  0.00    -0.265 A  
HETATM   29  C   UNL     2      -9.879   9.786  68.399  1.00  0.00    -0.168 A  
HETATM   30  C   UNL     2     -10.369   9.089  66.104  1.00  0.00     0.071 A  
HETATM   31  N   UNL     2      -9.700   7.942  66.256  1.00  0.00    -0.153 NA 
BRANCH  29  32
HETATM   32  C   UNL     2      -9.885  10.785  69.574  1.00  0.00    -0.016 C  
HETATM   33  H   UNL     2     -10.274  12.707  69.868  1.00  0.00     0.000 HD 
HETATM   34  O   UNL     2     -10.271  12.092  69.144  1.00  0.00    -0.012 OA 
BRANCH  32  35
HETATM   35  C   UNL     2     -10.790  10.428  70.810  1.00  0.00     0.109 C  
HETATM   36  C   UNL     2     -11.579   8.233  71.783  1.00  0.00    -0.356 C  
HETATM   37  C   UNL     2     -12.559   9.084  72.610  1.00  0.00    -0.244 C  
HETATM   38  C   UNL     2     -12.997  10.309  71.793  1.00  0.00    -0.469 C  
HETATM   39  C   UNL     2     -10.347   9.114  71.505  1.00  0.00    -0.414 C  
HETATM   40  N   UNL     2     -12.263  10.394  70.508  1.00  0.00    -0.305 NA 
HETATM   41  C   UNL     2     -12.644   9.192  69.719  1.00  0.00     1.577 C  
HETATM   42  C   UNL     2     -12.203   7.875  70.409  1.00  0.00     0.312 C  
BRANCH  42  43
HETATM   43  C   UNL     2     -13.353   6.904  70.538  1.00  0.00     0.874 C  
HETATM   44  C   UNL     2     -13.284   5.600  70.236  1.00  0.00     6.731 C  
ENDBRANCH  42  43
ENDBRANCH  32  35
ENDBRANCH  29  32
ENDBRANCH   4  22
TORSDOF 6
ENDMDL
MODEL      313
REMARK 921   NORMALIZED FREE ENERGY PREDICTED BY IDOCK:   45.83 KCAL/MOL
REMARK 922        TOTAL FREE ENERGY PREDICTED BY IDOCK:   58.83 KCAL/MOL
REMARK 923 INTER-LIGAND FREE ENERGY PREDICTED BY IDOCK:   53.04 KCAL/MOL
REMARK 924 INTRA-LIGAND FREE ENERGY PREDICTED BY IDOCK:    5.79 KCAL/MOL
REMARK 927      BINDING AFFINITY PREDICTED BY RF-SCORE:    0.00 PKD
ROOT
HETATM    1  C   UNL     1      -6.491   6.332  67.143  1.00  0.00    -0.053 C  
HETATM    2  C   UNL     1      -7.086   7.017  68.371  1.00  0.00    -0.082 C  
HETATM    3  C   UNL     2      -7.984   8.046  64.523  1.00  0.00    -0.151 C  
HETATM    4  O   UNL     2      -8.060   8.601  65.827  1.00  0.00    -0.104 OA 
ENDROOT
BRANCH   2   5
HETATM    5  C   UNL     1      -8.280   6.292  69.081  1.00  0.00    -0.114 C  
HETATM    6  O   UNL     1      -8.322   4.249  67.701  1.00  0.00    -0.098 OA 
HETATM    7  C   UNL     1      -9.284   7.430  69.338  1.00  0.00    -0.145 C  
HETATM    8  C   UNL     1      -8.900   5.262  68.104  1.00  0.00    -0.105 C  
HETATM    9  H   UNL     1     -10.726   4.689  67.366  1.00  0.00     0.000 HD 
HETATM   10  N   UNL     1     -10.136   7.710  68.307  1.00  0.00    -0.180 N  
HETATM   11  O   UNL     1      -9.300   8.127  70.346  1.00  0.00    -0.157 OA 
HETATM   12  O   UNL     1     -11.964   6.845  67.319  1.00  0.00     1.147 OA 
HETATM   13  N   UNL     1     -10.194   5.488  67.711  1.00  0.00    -0.182 N  
HETATM   14  C   UNL     1     -10.822   6.689  67.743  1.00  0.00    -0.294 C  
HETATM   15  H   UNL     1     -10.253   8.666  67.971  1.00  0.00     0.000 HD 
BRANCH   5  16
HETATM   16  C   UNL     1      -7.825   5.612  70.390  1.00  0.00    -0.102 A  
HETATM   17  C   UNL     1      -8.353   4.710  72.593  1.00  0.00    -0.114 A  
HETATM   18  C   UNL     1      -8.654   5.559  71.525  1.00  0.00    -0.132 A  
HETATM   19  C   UNL     1      -6.604   4.919  70.447  1.00  0.00    -0.035 A  
HETATM   20  C   UNL     1      -7.204   3.928  72.562  1.00  0.00    -0.057 A  
HETATM   21  C   UNL     1      -6.312   4.058  71.504  1.00  0.00    -0.015 A  
ENDBRANCH   5  16
ENDBRANCH   2   5
BRANCH   4  22
HETATM   22  C   UNL     2      -9.260   9.123  66.199  1.00  0.00    -0.205 A  
HETATM   23  C   UNL     2     -10.509   8.636  65.872  1.00  0.00     1.015 A  
HETATM   24  C   UNL     2     -10.281  10.945  67.511  1.00  0.00    -0.224 A  
HETATM   25  C   UNL     2     -11.448  12.684  68.722  1.00  0.00    -0.349 A  
HETATM   26  C   UNL     2     -11.640   9.298  66.357  1.00  0.00     3.381 A  
HETATM   27  C   UNL     2     -12.633  12.111  68.294  1.00  0.00     1.379 A  
HETATM   28  C   UNL     2      -9.161  10.210  67.060  1.00  0.00    -0.155 A  
HETATM   29  C   UNL     2     -10.223  12.123  68.326  1.00  0.00    -0.209 A  
HETATM   30  C   UNL     2     -11.554  10.452  67.130  1.00  0.00     0.788 A  
HETATM   31  N   UNL     2     -12.702  11.025  67.505  1.00  0.00     2.670 NA 
BRANCH  29  32
HETATM   32  C   UNL     2      -8.905  12.720  68.859  1.00  0.00     0.343 C  
HETATM   33  H   UNL     2      -6.972  12.279  68.828  1.00  0.00     0.000 HD 
HETATM   34  O   UNL     2      -7.784  11.911  68.499  1.00  0.00    -0.127 OA 
BRANCH  32  35
HETATM   35  C   UNL     2      -8.561  14.192  68.425  1.00  0.00    -0.176 C  
HETATM   36  C   UNL     2      -8.387  15.320  66.169  1.00  0.00     0.406 C  
HETATM   37  C   UNL     2      -7.715  16.478  66.929  1.00  0.00    -0.266 C  
HETATM   38  C   UNL     2      -6.898  15.920  68.105  1.00  0.00    -0.121 C  
HETATM   39  C   UNL     2      -9.344  14.632  67.160  1.00  0.00    -0.231 C  
HETATM   40  N   UNL     2      -7.091  14.458  68.252  1.00  0.00    -0.100 NA 
HETATM   41  C   UNL     2      -6.550  13.830  67.017  1.00  0.00     0.896 C  
HETATM   42  C   UNL     2      -7.331  14.266  65.750  1.00  0.00     5.926 C  
BRANCH  42  43
HETATM   43  C   UNL     2      -6.401  14.782  64.676  1.00  0.00    19.754 C  
HETATM   44  C   UNL     2      -5.377  14.088  64.160  1.00  0.00    19.617 C  
ENDBRANCH  42  43
ENDBRANCH  32  35
ENDBRANCH  29  32
ENDBRANCH   4  22
TORSDOF 6
ENDMDL
MODEL      314
REMARK 921   NORMALIZED FREE ENERGY PREDICTED BY IDOCK:   47.85 KCAL/MOL
REMARK 922        TOTAL FREE ENERGY PREDICTED BY IDOCK:   61.56 KCAL/MOL
REMARK 923 INTER-LIGAND FREE ENERGY PREDICTED BY IDOCK:   48.71 KCAL/MOL
REMARK 924 INTRA-LIGAND FREE ENERGY PREDICTED BY IDOCK:   12.85 KCAL/MOL
REMARK 927      BINDING AFFINITY PREDICTED BY RF-SCORE:    0.00 PKD
ROOT
HETATM    1  C   UNL     1     -11.153  16.524  69.685  1.00  0.00    -0.235 C  
HETATM    2  C   UNL     1     -10.594  15.841  70.931  1.00  0.00     0.110 C  
HETATM    3  C   UNL     2     -13.491  14.227  68.551  1.00  0.00     4.566 C  
HETATM    4  O   UNL     2     -12.978  14.078  69.865  1.00  0.00    -0.020 OA 
ENDROOT
BRANCH   2   5
HETATM    5  C   UNL     1      -9.224  15.096  70.781  1.00  0.00     1.726 C  
HETATM    6  O   UNL     1      -9.163  14.025  73.001  1.00  0.00     7.646 OA 
HETATM    7  C   UNL     1      -8.334  16.127  70.067  1.00  0.00     0.978 C  
HETATM    8  C   UNL     1      -8.652  14.802  72.190  1.00  0.00     6.513 C  
HETATM    9  H   UNL     1      -6.913  15.003  73.260  1.00  0.00     0.000 HD 
HETATM   10  N   UNL     1      -7.698  17.023  70.880  1.00  0.00     4.445 N  
HETATM   11  O   UNL     1      -8.239  16.239  68.850  1.00  0.00    -0.209 OA 
HETATM   12  O   UNL     1      -5.963  17.097  72.312  1.00  0.00     1.648 OA 
HETATM   13  N   UNL     1      -7.474  15.422  72.518  1.00  0.00     5.619 N  
HETATM   14  C   UNL     1      -6.996  16.549  71.935  1.00  0.00     6.065 C  
HETATM   15  H   UNL     1      -7.751  18.025  70.696  1.00  0.00     0.000 HD 
BRANCH   5  16
HETATM   16  C   UNL     1      -9.379  13.796  69.963  1.00  0.00     2.242 A  
HETATM   17  C   UNL     1      -9.167  12.594  67.852  1.00  0.00    -0.201 A  
HETATM   18  C   UNL     1      -9.306  13.791  68.557  1.00  0.00    -0.144 A  
HETATM   19  C   UNL     1      -9.483  12.553  70.610  1.00  0.00     7.205 A  
HETATM   20  C   UNL     1      -9.132  11.381  68.532  1.00  0.00    -0.169 A  
HETATM   21  C   UNL     1      -9.324  11.359  69.908  1.00  0.00     1.556 A  
ENDBRANCH   5  16
ENDBRANCH   2   5
BRANCH   4  22
HETATM   22  C   UNL     2     -12.661  12.815  70.258  1.00  0.00     0.010 A  
HETATM   23  C   UNL     2     -12.853  12.268  71.510  1.00  0.00    -0.384 A  
HETATM   24  C   UNL     2     -11.715  10.690  69.441  1.00  0.00    -0.344 A  
HETATM   25  C   UNL     2     -10.782   8.546  68.819  1.00  0.00    -0.089 A  
HETATM   26  C   UNL     2     -12.477  10.941  71.732  1.00  0.00    -0.238 A  
HETATM   27  C   UNL     2     -10.999   8.134  70.123  1.00  0.00    -0.223 A  
HETATM   28  C   UNL     2     -12.171  12.011  69.234  1.00  0.00    -0.135 A  
HETATM   29  C   UNL     2     -11.121   9.854  68.439  1.00  0.00    -0.193 A  
HETATM   30  C   UNL     2     -11.883  10.160  70.745  1.00  0.00    -0.351 A  
HETATM   31  N   UNL     2     -11.526   8.916  71.081  1.00  0.00    -0.284 NA 
BRANCH  29  32
HETATM   32  C   UNL     2     -10.943  10.289  66.970  1.00  0.00    -0.119 C  
HETATM   33  H   UNL     2     -11.199  11.926  65.880  1.00  0.00     0.000 HD 
HETATM   34  O   UNL     2     -11.308  11.658  66.785  1.00  0.00    -0.326 OA 
BRANCH  32  35
HETATM   35  C   UNL     2      -9.512  10.112  66.341  1.00  0.00    -0.176 C  
HETATM   36  C   UNL     2      -8.719   9.304  64.081  1.00  0.00    -0.201 C  
HETATM   37  C   UNL     2      -7.323   9.237  64.724  1.00  0.00    -0.103 C  
HETATM   38  C   UNL     2      -7.453   8.850  66.206  1.00  0.00    -0.091 C  
HETATM   39  C   UNL     2      -9.497  10.409  64.818  1.00  0.00    -0.329 C  
HETATM   40  N   UNL     2      -8.873   8.780  66.624  1.00  0.00    -0.127 NA 
HETATM   41  C   UNL     2      -9.496   7.682  65.836  1.00  0.00     0.134 C  
HETATM   42  C   UNL     2      -9.484   7.976  64.314  1.00  0.00     2.117 C  
BRANCH  42  43
HETATM   43  C   UNL     2      -8.889   6.827  63.533  1.00  0.00     0.910 C  
HETATM   44  C   UNL     2      -7.575   6.613  63.379  1.00  0.00    -0.085 C  
ENDBRANCH  42  43
ENDBRANCH  32  35
ENDBRANCH  29  32
ENDBRANCH   4  22
TORSDOF 6
ENDMDL
MODEL      315
REMARK 921   NORMALIZED FREE ENERGY PREDICTED BY IDOCK:   50.55 KCAL/MOL
REMARK 922        TOTAL FREE ENERGY PREDICTED BY IDOCK:   65.21 KCAL/MOL
REMARK 923 INTER-LIGAND FREE ENERGY PREDICTED BY IDOCK:   25.16 KCAL/MOL
REMARK 924 INTRA-LIGAND FREE ENERGY PREDICTED BY IDOCK:   40.05 KCAL/MOL
REMARK 927      BINDING AFFINITY PREDICTED BY RF-SCORE:    0.00 PKD
ROOT
HETATM    1  C   UNL     1      -9.101  10.287  68.789  1.00  0.00    -0.159 C  
HETATM    2  C   UNL     1     -10.054  11.266  69.470  1.00  0.00     0.195 C  
HETATM    3  C   UNL     2      -7.793  12.185  66.197  1.00  0.00     0.661 C  
HETATM    4  O   UNL     2      -8.493  12.849  67.236  1.00  0.00    -0.183 OA 
ENDROOT
BRANCH   2   5
HETATM    5  C   UNL     1     -11.575  11.140  69.119  1.00  0.00    -0.393 C  
HETATM    6  O   UNL     1     -12.491  11.600  71.362  1.00  0.00    -0.304 OA 
HETATM    7  C   UNL     1     -11.623   9.928  68.173  1.00  0.00     0.485 C  
HETATM    8  C   UNL     1     -12.367  10.822  70.413  1.00  0.00    -0.353 C  
HETATM    9  H   UNL     1     -13.781   9.512  71.114  1.00  0.00     0.000 HD 
HETATM   10  N   UNL     1     -11.715   8.707  68.781  1.00  0.00     0.673 N  
HETATM   11  O   UNL     1     -11.499   9.992  66.956  1.00  0.00     0.058 OA 
HETATM   12  O   UNL     1     -13.240   7.441  69.847  1.00  0.00     1.616 OA 
HETATM   13  N   UNL     1     -13.002   9.608  70.463  1.00  0.00     0.037 N  
HETATM   14  C   UNL     1     -12.676   8.524  69.716  1.00  0.00     2.362 C  
HETATM   15  H   UNL     1     -11.076   7.951  68.535  1.00  0.00     0.000 HD 
BRANCH   5  16
HETATM   16  C   UNL     1     -12.105  12.424  68.446  1.00  0.00    -0.114 A  
HETATM   17  C   UNL     1     -13.750  14.220  68.327  1.00  0.00     6.817 A  
HETATM   18  C   UNL     1     -13.391  12.927  68.716  1.00  0.00     3.969 A  
HETATM   19  C   UNL     1     -11.267  13.196  67.623  1.00  0.00    -0.313 A  
HETATM   20  C   UNL     1     -12.848  15.018  67.633  1.00  0.00     1.817 A  
HETATM   21  C   UNL     1     -11.618  14.494  67.251  1.00  0.00    -0.405 A  
ENDBRANCH   5  16
ENDBRANCH   2   5
BRANCH   4  22
HETATM   22  C   UNL     2      -9.354  13.833  66.862  1.00  0.00    -0.261 A  
HETATM   23  C   UNL     2     -10.641  13.668  66.392  1.00  0.00    -0.284 A  
HETATM   24  C   UNL     2      -9.571  16.283  66.683  1.00  0.00    -0.264 A  
HETATM   25  C   UNL     2      -9.943  18.658  66.411  1.00  0.00    -0.415 A  
HETATM   26  C   UNL     2     -11.391  14.801  66.066  1.00  0.00    -0.332 A  
HETATM   27  C   UNL     2     -11.202  18.350  65.924  1.00  0.00     0.836 A  
HETATM   28  C   UNL     2      -8.868  15.120  67.068  1.00  0.00    -0.258 A  
HETATM   29  C   UNL     2      -9.075  17.623  66.794  1.00  0.00    -0.273 A  
HETATM   30  C   UNL     2     -10.875  16.090  66.164  1.00  0.00    -0.179 A  
HETATM   31  N   UNL     2     -11.669  17.097  65.786  1.00  0.00     1.556 NA 
BRANCH  29  32
HETATM   32  C   UNL     2      -7.700  17.970  67.401  1.00  0.00    -0.208 C  
HETATM   33  H   UNL     2      -6.991  18.991  68.947  1.00  0.00     0.000 HD 
HETATM   34  O   UNL     2      -7.838  18.777  68.573  1.00  0.00    -0.315 OA 
BRANCH  32  35
HETATM   35  C   UNL     2      -6.765  16.766  67.787  1.00  0.00    -0.137 C  
HETATM   36  C   UNL     2      -7.219  14.499  68.809  1.00  0.00    -0.126 C  
HETATM   37  C   UNL     2      -5.697  14.414  69.012  1.00  0.00    -0.088 C  
HETATM   38  C   UNL     2      -5.134  15.814  69.298  1.00  0.00    -0.104 C  
HETATM   39  C   UNL     2      -7.456  15.393  67.577  1.00  0.00    -0.215 C  
HETATM   40  N   UNL     2      -6.181  16.855  69.170  1.00  0.00    -0.183 NA 
HETATM   41  C   UNL     2      -7.192  16.575  70.224  1.00  0.00     1.330 C  
HETATM   42  C   UNL     2      -7.886  15.203  70.018  1.00  0.00     0.227 C  
BRANCH  42  43
HETATM   43  C   UNL     2      -7.834  14.362  71.272  1.00  0.00     3.570 C  
HETATM   44  C   UNL     2      -7.463  14.816  72.477  1.00  0.00     4.814 C  
ENDBRANCH  42  43
ENDBRANCH  32  35
ENDBRANCH  29  32
ENDBRANCH   4  22
TORSDOF 6
ENDMDL
MODEL      316
REMARK 921   NORMALIZED FREE ENERGY PREDICTED BY IDOCK:   50.77 KCAL/MOL
REMARK 922        TOTAL FREE ENERGY PREDICTED BY IDOCK:   65.50 KCAL/MOL
REMARK 923 INTER-LIGAND FREE ENERGY PREDICTED BY IDOCK:   29.48 KCAL/MOL
REMARK 924 INTRA-LIGAND FREE ENERGY PREDICTED BY IDOCK:   36.02 KCAL/MOL
REMARK 927      BINDING AFFINITY PREDICTED BY RF-SCORE:    0.00 PKD
ROOT
HETATM    1  C   UNL     1      -7.333   8.368  64.887  1.00  0.00    -0.087 C  
HETATM    2  C   UNL     1      -7.687   7.299  65.919  1.00  0.00    -0.097 C  
HETATM    3  C   UNL     2      -7.325  11.274  66.781  1.00  0.00    -0.146 C  
HETATM    4  O   UNL     2      -7.315  10.026  67.455  1.00  0.00    -0.088 OA 
ENDROOT
BRANCH   2   5
HETATM    5  C   UNL     1      -9.177   6.819  65.965  1.00  0.00    -0.069 C  
HETATM    6  O   UNL     1      -9.278   5.776  63.733  1.00  0.00     0.538 OA 
HETATM    7  C   UNL     1      -9.910   7.998  66.628  1.00  0.00    -0.252 C  
HETATM    8  C   UNL     1      -9.693   6.634  64.516  1.00  0.00     2.754 C  
HETATM    9  H   UNL     1     -11.285   7.151  63.331  1.00  0.00     0.000 HD 
HETATM   10  N   UNL     1     -10.312   8.994  65.783  1.00  0.00    -0.087 N  
HETATM   11  O   UNL     1     -10.069   8.126  67.837  1.00  0.00    -0.177 OA 
HETATM   12  O   UNL     1     -11.899   9.386  64.236  1.00  0.00     8.642 OA 
HETATM   13  N   UNL     1     -10.711   7.461  64.115  1.00  0.00    10.249 N  
HETATM   14  C   UNL     1     -11.014   8.657  64.677  1.00  0.00     8.338 C  
HETATM   15  H   UNL     1     -10.090   9.970  65.982  1.00  0.00     0.000 HD 
BRANCH   5  16
HETATM   16  C   UNL     1      -9.322   5.514  66.777  1.00  0.00    -0.136 A  
HETATM   17  C   UNL     1     -10.674   4.028  68.159  1.00  0.00     2.003 A  
HETATM   18  C   UNL     1     -10.403   5.301  67.652  1.00  0.00    -0.208 A  
HETATM   19  C   UNL     1      -8.431   4.446  66.575  1.00  0.00    -0.112 A  
HETATM   20  C   UNL     1      -9.853   2.955  67.830  1.00  0.00     0.366 A  
HETATM   21  C   UNL     1      -8.712   3.171  67.065  1.00  0.00    -0.136 A  
ENDBRANCH   5  16
ENDBRANCH   2   5
BRANCH   4  22
HETATM   22  C   UNL     2      -8.129   9.911  68.539  1.00  0.00    -0.101 A  
HETATM   23  C   UNL     2      -9.419  10.387  68.656  1.00  0.00    -0.167 A  
HETATM   24  C   UNL     2      -8.235   8.977  70.819  1.00  0.00    -0.213 A  
HETATM   25  C   UNL     2      -8.498   8.158  73.080  1.00  0.00    -0.279 A  
HETATM   26  C   UNL     2     -10.115  10.165  69.847  1.00  0.00    -0.268 A  
HETATM   27  C   UNL     2      -9.766   8.714  73.076  1.00  0.00     0.208 A  
HETATM   28  C   UNL     2      -7.587   9.160  69.577  1.00  0.00    -0.079 A  
HETATM   29  C   UNL     2      -7.679   8.289  71.947  1.00  0.00    -0.143 A  
HETATM   30  C   UNL     2      -9.543   9.510  70.934  1.00  0.00    -0.146 A  
HETATM   31  N   UNL     2     -10.288   9.389  72.037  1.00  0.00     0.116 NA 
BRANCH  29  32
HETATM   32  C   UNL     2      -6.295   7.610  71.927  1.00  0.00    -0.039 C  
HETATM   33  H   UNL     2      -4.715   7.457  73.116  1.00  0.00     0.000 HD 
HETATM   34  O   UNL     2      -5.567   7.875  73.129  1.00  0.00    -0.044 OA 
BRANCH  32  35
HETATM   35  C   UNL     2      -6.267   6.051  71.716  1.00  0.00    -0.044 C  
HETATM   36  C   UNL     2      -7.065   4.559  69.838  1.00  0.00    -0.049 C  
HETATM   37  C   UNL     2      -6.857   3.399  70.827  1.00  0.00    -0.033 C  
HETATM   38  C   UNL     2      -7.170   3.873  72.254  1.00  0.00    -0.052 C  
HETATM   39  C   UNL     2      -6.064   5.662  70.228  1.00  0.00    -0.026 C  
HETATM   40  N   UNL     2      -7.453   5.328  72.292  1.00  0.00    -0.093 NA 
HETATM   41  C   UNL     2      -8.685   5.544  71.487  1.00  0.00    -0.136 C  
HETATM   42  C   UNL     2      -8.486   5.157  69.998  1.00  0.00    -0.098 C  
BRANCH  42  43
HETATM   43  C   UNL     2      -9.563   4.210  69.523  1.00  0.00    -0.274 C  
HETATM   44  C   UNL     2     -10.056   4.184  68.278  1.00  0.00     0.145 C  
ENDBRANCH  42  43
ENDBRANCH  32  35
ENDBRANCH  29  32
ENDBRANCH   4  22
TORSDOF 6
ENDMDL
MODEL      317
REMARK 921   NORMALIZED FREE ENERGY PREDICTED BY IDOCK:   52.04 KCAL/MOL
REMARK 922        TOTAL FREE ENERGY PREDICTED BY IDOCK:   67.21 KCAL/MOL
REMARK 923 INTER-LIGAND FREE ENERGY PREDICTED BY IDOCK:   59.31 KCAL/MOL
REMARK 924 INTRA-LIGAND FREE ENERGY PREDICTED BY IDOCK:    7.90 KCAL/MOL
REMARK 927      BINDING AFFINITY PREDICTED BY RF-SCORE:    0.00 PKD
ROOT
HETATM    1  C   UNL     1     -12.932  15.569  69.792  1.00  0.00     0.301 C  
HETATM    2  C   UNL     1     -11.989  15.896  70.948  1.00  0.00    -0.432 C  
HETATM    3  C   UNL     2     -11.639  12.586  68.584  1.00  0.00    -0.314 C  
HETATM    4  O   UNL     2     -11.207  13.046  69.855  1.00  0.00    -0.047 OA 
ENDROOT
BRANCH   2   5
HETATM    5  C   UNL     1     -10.857  16.942  70.670  1.00  0.00     0.517 C  
HETATM    6  O   UNL     1     -11.984  18.209  68.879  1.00  0.00     2.813 OA 
HETATM    7  C   UNL     1      -9.571  16.101  70.738  1.00  0.00     2.088 C  
HETATM    8  C   UNL     1     -11.034  17.508  69.239  1.00  0.00     0.515 C  
HETATM    9  H   UNL     1      -9.945  17.857  67.536  1.00  0.00     0.000 HD 
HETATM   10  N   UNL     1      -9.209  15.479  69.576  1.00  0.00    -0.278 N  
HETATM   11  O   UNL     1      -8.927  15.897  71.761  1.00  0.00     5.025 OA 
HETATM   12  O   UNL     1      -8.308  15.984  67.576  1.00  0.00    -0.153 OA 
HETATM   13  N   UNL     1     -10.032  17.239  68.342  1.00  0.00    -0.302 N  
HETATM   14  C   UNL     1      -9.148  16.216  68.443  1.00  0.00    -0.199 C  
HETATM   15  H   UNL     1      -8.991  14.482  69.562  1.00  0.00     0.000 HD 
BRANCH   5  16
HETATM   16  C   UNL     1     -10.868  18.073  71.720  1.00  0.00     2.909 A  
HETATM   17  C   UNL     1     -10.630  18.808  74.033  1.00  0.00     3.375 A  
HETATM   18  C   UNL     1     -10.902  17.804  73.100  1.00  0.00     3.098 A  
HETATM   19  C   UNL     1     -10.726  19.415  71.325  1.00  0.00     3.408 A  
HETATM   20  C   UNL     1     -10.354  20.103  73.606  1.00  0.00     5.960 A  
HETATM   21  C   UNL     1     -10.435  20.413  72.254  1.00  0.00     5.035 A  
ENDBRANCH   5  16
ENDBRANCH   2   5
BRANCH   4  22
HETATM   22  C   UNL     2      -9.879  12.938  70.124  1.00  0.00     3.293 A  
HETATM   23  C   UNL     2      -9.068  13.909  70.678  1.00  0.00     4.310 A  
HETATM   24  C   UNL     2      -7.978  11.370  70.018  1.00  0.00     1.506 A  
HETATM   25  C   UNL     2      -6.001   9.977  69.954  1.00  0.00    -0.048 A  
HETATM   26  C   UNL     2      -7.720  13.617  70.898  1.00  0.00     4.045 A  
HETATM   27  C   UNL     2      -5.298  11.046  70.482  1.00  0.00    -0.100 A  
HETATM   28  C   UNL     2      -9.350  11.677  69.873  1.00  0.00     1.961 A  
HETATM   29  C   UNL     2      -7.373  10.113  69.687  1.00  0.00    -0.138 A  
HETATM   30  C   UNL     2      -7.155  12.394  70.549  1.00  0.00     2.307 A  
HETATM   31  N   UNL     2      -5.845  12.240  70.768  1.00  0.00    -0.309 NA 
BRANCH  29  32
HETATM   32  C   UNL     2      -8.170   8.901  69.165  1.00  0.00    -0.118 C  
HETATM   33  H   UNL     2      -8.308   7.842  67.494  1.00  0.00     0.000 HD 
HETATM   34  O   UNL     2      -7.816   8.588  67.815  1.00  0.00    -0.101 OA 
BRANCH  32  35
HETATM   35  C   UNL     2      -8.055   7.564  69.985  1.00  0.00    -0.127 C  
HETATM   36  C   UNL     2      -8.232   5.128  69.331  1.00  0.00    -0.087 C  
HETATM   37  C   UNL     2      -8.312   4.848  70.842  1.00  0.00    -0.108 C  
HETATM   38  C   UNL     2      -9.045   6.001  71.544  1.00  0.00    -0.143 C  
HETATM   39  C   UNL     2      -7.411   6.419  69.159  1.00  0.00    -0.093 C  
HETATM   40  N   UNL     2      -9.348   7.104  70.601  1.00  0.00    -0.158 NA 
HETATM   41  C   UNL     2     -10.286   6.552  69.587  1.00  0.00    -0.196 C  
HETATM   42  C   UNL     2      -9.645   5.409  68.759  1.00  0.00    -0.182 C  
BRANCH  42  43
HETATM   43  C   UNL     2     -10.516   4.174  68.752  1.00  0.00     0.950 C  
HETATM   44  C   UNL     2     -11.722   4.098  68.173  1.00  0.00     9.530 C  
ENDBRANCH  42  43
ENDBRANCH  32  35
ENDBRANCH  29  32
ENDBRANCH   4  22
TORSDOF 6
ENDMDL
MODEL      318
REMARK 921   NORMALIZED FREE ENERGY PREDICTED BY IDOCK:   55.92 KCAL/MOL
REMARK 922        TOTAL FREE ENERGY PREDICTED BY IDOCK:   72.45 KCAL/MOL
REMARK 923 INTER-LIGAND FREE ENERGY PREDICTED BY IDOCK:    8.44 KCAL/MOL
REMARK 924 INTRA-LIGAND FREE ENERGY PREDICTED BY IDOCK:   64.01 KCAL/MOL
REMARK 927      BINDING AFFINITY PREDICTED BY RF-SCORE:    0.00 PKD
ROOT
HETATM    1  C   UNL     1     -11.108   8.582  71.360  1.00  0.00    -0.328 C  
HETATM    2  C   UNL     1     -11.444   9.032  69.940  1.00  0.00     0.070 C  
HETATM    3  C   UNL     2     -12.583  11.048  73.303  1.00  0.00     6.375 C  
HETATM    4  O   UNL     2     -12.941  10.960  71.933  1.00  0.00    -0.458 OA 
ENDROOT
BRANCH   2   5
HETATM    5  C   UNL     1     -10.324   9.790  69.150  1.00  0.00    -0.225 C  
HETATM    6  O   UNL     1      -9.337  11.028  71.040  1.00  0.00     3.273 OA 
HETATM    7  C   UNL     1     -11.028  10.210  67.848  1.00  0.00    -0.277 C  
HETATM    8  C   UNL     1      -9.908  11.052  69.947  1.00  0.00     0.703 C  
HETATM    9  H   UNL     1      -9.613  13.063  69.673  1.00  0.00     0.000 HD 
HETATM   10  N   UNL     1     -11.715  11.390  67.902  1.00  0.00    -0.267 N  
HETATM   11  O   UNL     1     -11.077   9.526  66.832  1.00  0.00     0.009 OA 
HETATM   12  O   UNL     1     -11.308  13.603  67.936  1.00  0.00    -0.267 OA 
HETATM   13  N   UNL     1     -10.161  12.264  69.357  1.00  0.00     0.456 N  
HETATM   14  C   UNL     1     -11.081  12.483  68.385  1.00  0.00    -0.258 C  
HETATM   15  H   UNL     1     -12.683  11.447  67.585  1.00  0.00     0.000 HD 
BRANCH   5  16
HETATM   16  C   UNL     1      -9.108   8.877  68.884  1.00  0.00    -0.140 A  
HETATM   17  C   UNL     1      -7.968   6.741  69.180  1.00  0.00    -0.112 A  
HETATM   18  C   UNL     1      -8.899   7.690  69.611  1.00  0.00    -0.140 A  
HETATM   19  C   UNL     1      -8.230   9.148  67.820  1.00  0.00    -0.109 A  
HETATM   20  C   UNL     1      -7.208   6.975  68.039  1.00  0.00    -0.095 A  
HETATM   21  C   UNL     1      -7.315   8.193  67.379  1.00  0.00    -0.089 A  
ENDBRANCH   5  16
ENDBRANCH   2   5
BRANCH   4  22
HETATM   22  C   UNL     2     -13.039  12.133  71.252  1.00  0.00    -0.116 A  
HETATM   23  C   UNL     2     -14.040  13.076  71.373  1.00  0.00     1.040 A  
HETATM   24  C   UNL     2     -11.889  13.526  69.573  1.00  0.00    -0.392 A  
HETATM   25  C   UNL     2     -10.916  14.999  67.919  1.00  0.00    -0.291 A  
HETATM   26  C   UNL     2     -13.971  14.236  70.598  1.00  0.00     0.571 A  
HETATM   27  C   UNL     2     -11.996  15.842  68.113  1.00  0.00     0.183 A  
HETATM   28  C   UNL     2     -11.955  12.398  70.422  1.00  0.00    -0.342 A  
HETATM   29  C   UNL     2     -10.837  13.795  68.637  1.00  0.00    -0.280 A  
HETATM   30  C   UNL     2     -12.948  14.462  69.682  1.00  0.00     0.503 A  
HETATM   31  N   UNL     2     -13.005  15.588  68.965  1.00  0.00     0.830 NA 
BRANCH  29  32
HETATM   32  C   UNL     2      -9.599  12.890  68.470  1.00  0.00    -0.111 C  
HETATM   33  H   UNL     2      -8.828  11.694  67.089  1.00  0.00     0.000 HD 
HETATM   34  O   UNL     2      -9.590  12.251  67.192  1.00  0.00    -0.193 OA 
BRANCH  32  35
HETATM   35  C   UNL     2      -8.191  13.567  68.650  1.00  0.00    -0.040 C  
HETATM   36  C   UNL     2      -7.463  15.973  68.916  1.00  0.00    -0.188 C  
HETATM   37  C   UNL     2      -6.040  15.450  68.654  1.00  0.00    -0.096 C  
HETATM   38  C   UNL     2      -6.094  14.271  67.670  1.00  0.00    -0.053 C  
HETATM   39  C   UNL     2      -8.250  14.818  69.564  1.00  0.00     0.050 C  
HETATM   40  N   UNL     2      -7.492  13.891  67.358  1.00  0.00    -0.166 NA 
HETATM   41  C   UNL     2      -8.107  15.056  66.667  1.00  0.00     0.101 C  
HETATM   42  C   UNL     2      -8.169  16.310  67.578  1.00  0.00    -0.165 C  
BRANCH  42  43
HETATM   43  C   UNL     2      -7.565  17.518  66.900  1.00  0.00    -0.245 C  
HETATM   44  C   UNL     2      -6.368  17.533  66.299  1.00  0.00    -0.279 C  
ENDBRANCH  42  43
ENDBRANCH  32  35
ENDBRANCH  29  32
ENDBRANCH   4  22
TORSDOF 6
ENDMDL
MODEL      319
REMARK 921   NORMALIZED FREE ENERGY PREDICTED BY IDOCK:   75.52 KCAL/MOL
REMARK 922        TOTAL FREE ENERGY PREDICTED BY IDOCK:   98.93 KCAL/MOL
REMARK 923 INTER-LIGAND FREE ENERGY PREDICTED BY IDOCK:   91.24 KCAL/MOL
REMARK 924 INTRA-LIGAND FREE ENERGY PREDICTED BY IDOCK:    7.69 KCAL/MOL
REMARK 927      BINDING AFFINITY PREDICTED BY RF-SCORE:    0.00 PKD
ROOT
HETATM    1  C   UNL     1      -8.038  13.982  69.938  1.00  0.00     1.126 C  
HETATM    2  C   UNL     1      -9.558  14.090  70.041  1.00  0.00     1.614 C  
HETATM    3  C   UNL     2      -7.608  10.967  68.276  1.00  0.00    -0.106 C  
HETATM    4  O   UNL     2      -8.898  11.556  68.288  1.00  0.00    -0.155 OA 
ENDROOT
BRANCH   2   5
HETATM    5  C   UNL     1     -10.209  13.683  71.407  1.00  0.00     6.149 C  
HETATM    6  O   UNL     1     -12.535  14.317  70.888  1.00  0.00    -0.308 OA 
HETATM    7  C   UNL     1      -9.179  14.154  72.447  1.00  0.00     9.467 C  
HETATM    8  C   UNL     1     -11.531  14.469  71.590  1.00  0.00     0.246 C  
HETATM    9  H   UNL     1     -12.503  15.616  72.985  1.00  0.00     0.000 HD 
HETATM   10  N   UNL     1      -9.292  15.458  72.842  1.00  0.00     6.708 N  
HETATM   11  O   UNL     1      -8.246  13.475  72.859  1.00  0.00     9.319 OA 
HETATM   12  O   UNL     1     -10.610  16.742  74.139  1.00  0.00     4.505 OA 
HETATM   13  N   UNL     1     -11.582  15.353  72.637  1.00  0.00    -0.459 N  
HETATM   14  C   UNL     1     -10.504  15.906  73.245  1.00  0.00     4.658 C  
HETATM   15  H   UNL     1      -8.483  16.079  72.834  1.00  0.00     0.000 HD 
BRANCH   5  16
HETATM   16  C   UNL     1     -10.454  12.160  71.480  1.00  0.00     8.394 A  
HETATM   17  C   UNL     1      -9.776   9.949  72.253  1.00  0.00     3.737 A  
HETATM   18  C   UNL     1      -9.460  11.270  71.926  1.00  0.00    12.529 A  
HETATM   19  C   UNL     1     -11.726  11.628  71.210  1.00  0.00     0.901 A  
HETATM   20  C   UNL     1     -11.079   9.485  72.108  1.00  0.00     0.426 A  
HETATM   21  C   UNL     1     -12.046  10.315  71.554  1.00  0.00    -0.407 A  
ENDBRANCH   5  16
ENDBRANCH   2   5
BRANCH   4  22
HETATM   22  C   UNL     2      -9.950  10.720  68.501  1.00  0.00    -0.178 A  
HETATM   23  C   UNL     2     -11.267  10.948  68.160  1.00  0.00    -0.363 A  
HETATM   24  C   UNL     2     -10.538   8.507  69.415  1.00  0.00    -0.203 A  
HETATM   25  C   UNL     2     -11.296   6.385  70.296  1.00  0.00    -0.468 A  
HETATM   26  C   UNL     2     -12.218   9.965  68.446  1.00  0.00     2.113 A  
HETATM   27  C   UNL     2     -12.580   6.754  69.932  1.00  0.00     1.160 A  
HETATM   28  C   UNL     2      -9.594   9.492  69.048  1.00  0.00    -0.166 A  
HETATM   29  C   UNL     2     -10.228   7.265  70.062  1.00  0.00    -0.206 A  
HETATM   30  C   UNL     2     -11.891   8.778  69.093  1.00  0.00     1.413 A  
HETATM   31  N   UNL     2     -12.889   7.927  69.352  1.00  0.00     3.368 NA 
BRANCH  29  32
HETATM   32  C   UNL     2      -8.790   6.825  70.404  1.00  0.00    -0.152 C  
HETATM   33  H   UNL     2      -7.233   7.537  71.404  1.00  0.00     0.000 HD 
HETATM   34  O   UNL     2      -8.118   7.809  71.193  1.00  0.00    -0.092 OA 
BRANCH  32  35
HETATM   35  C   UNL     2      -8.624   5.451  71.153  1.00  0.00    -0.125 C  
HETATM   36  C   UNL     2      -9.410   3.106  70.634  1.00  0.00    -0.225 C  
HETATM   37  C   UNL     2      -9.014   2.776  72.084  1.00  0.00    -0.128 C  
HETATM   38  C   UNL     2      -9.263   4.000  72.980  1.00  0.00    -0.110 C  
HETATM   39  C   UNL     2      -8.497   4.256  70.173  1.00  0.00    -0.089 C  
HETATM   40  N   UNL     2      -9.684   5.177  72.184  1.00  0.00    -0.158 NA 
HETATM   41  C   UNL     2     -10.990   4.826  71.563  1.00  0.00     0.322 C  
HETATM   42  C   UNL     2     -10.867   3.632  70.580  1.00  0.00     2.367 C  
BRANCH  42  43
HETATM   43  C   UNL     2     -11.879   2.553  70.891  1.00  0.00     8.125 C  
HETATM   44  C   UNL     2     -12.788   2.624  71.872  1.00  0.00     6.691 C  
ENDBRANCH  42  43
ENDBRANCH  32  35
ENDBRANCH  29  32
ENDBRANCH   4  22
TORSDOF 6
ENDMDL
MODEL      320
REMARK 921   NORMALIZED FREE ENERGY PREDICTED BY IDOCK:   77.54 KCAL/MOL
REMARK 922        TOTAL FREE ENERGY PREDICTED BY IDOCK:  101.66 KCAL/MOL
REMARK 923 INTER-LIGAND FREE ENERGY PREDICTED BY IDOCK:   63.71 KCAL/MOL
REMARK 924 INTRA-LIGAND FREE ENERGY PREDICTED BY IDOCK:   37.95 KCAL/MOL
REMARK 927      BINDING AFFINITY PREDICTED BY RF-SCORE:    0.00 PKD
ROOT
HETATM    1  C   UNL     1     -11.841  15.298  66.662  1.00  0.00     0.153 C  
HETATM    2  C   UNL     1     -11.437  14.214  67.659  1.00  0.00    -0.364 C  
HETATM    3  C   UNL     2     -13.305  13.465  64.107  1.00  0.00     1.483 C  
HETATM    4  O   UNL     2     -13.077  12.827  65.353  1.00  0.00    -0.529 OA 
ENDROOT
BRANCH   2   5
HETATM    5  C   UNL     1      -9.939  13.757  67.646  1.00  0.00    -0.238 C  
HETATM    6  O   UNL     1     -10.311  11.331  67.889  1.00  0.00    -0.174 OA 
HETATM    7  C   UNL     1      -9.234  14.822  68.504  1.00  0.00    -0.194 C  
HETATM    8  C   UNL     1      -9.827  12.374  68.336  1.00  0.00    -0.198 C  
HETATM    9  H   UNL     1      -8.724  11.416  69.776  1.00  0.00     0.000 HD 
HETATM   10  N   UNL     1      -9.237  14.592  69.851  1.00  0.00    -0.004 N  
HETATM   11  O   UNL     1      -8.765  15.866  68.068  1.00  0.00    -0.167 OA 
HETATM   12  O   UNL     1      -8.223  13.266  71.361  1.00  0.00     7.551 OA 
HETATM   13  N   UNL     1      -9.097  12.323  69.496  1.00  0.00     1.249 N  
HETATM   14  C   UNL     1      -8.831  13.382  70.299  1.00  0.00     4.106 C  
HETATM   15  H   UNL     1      -9.539  15.315  70.504  1.00  0.00     0.000 HD 
BRANCH   5  16
HETATM   16  C   UNL     1      -9.380  13.706  66.208  1.00  0.00    -0.153 A  
HETATM   17  C   UNL     1      -7.559  13.196  64.668  1.00  0.00     9.743 A  
HETATM   18  C   UNL     1      -8.009  13.519  65.951  1.00  0.00     2.710 A  
HETATM   19  C   UNL     1     -10.249  13.732  65.103  1.00  0.00    -0.367 A  
HETATM   20  C   UNL     1      -8.462  13.090  63.616  1.00  0.00     6.076 A  
HETATM   21  C   UNL     1      -9.802  13.391  63.827  1.00  0.00     1.655 A  
ENDBRANCH   5  16
ENDBRANCH   2   5
BRANCH   4  22
HETATM   22  C   UNL     2     -12.585  11.560  65.310  1.00  0.00     1.968 A  
HETATM   23  C   UNL     2     -12.937  10.569  64.416  1.00  0.00     6.685 A  
HETATM   24  C   UNL     2     -10.972  10.047  66.400  1.00  0.00     0.175 A  
HETATM   25  C   UNL     2      -9.465   8.421  67.370  1.00  0.00    -0.185 A  
HETATM   26  C   UNL     2     -12.315   9.322  64.512  1.00  0.00    14.735 A  
HETATM   27  C   UNL     2      -9.932   7.512  66.436  1.00  0.00    -0.049 A  
HETATM   28  C   UNL     2     -11.571  11.315  66.229  1.00  0.00     0.250 A  
HETATM   29  C   UNL     2      -9.988   9.724  67.392  1.00  0.00    -0.239 A  
HETATM   30  C   UNL     2     -11.377   9.031  65.499  1.00  0.00     5.298 A  
HETATM   31  N   UNL     2     -10.876   7.791  65.521  1.00  0.00     3.797 NA 
BRANCH  29  32
HETATM   32  C   UNL     2      -9.418  10.755  68.386  1.00  0.00    -0.174 C  
HETATM   33  H   UNL     2      -9.306  10.997  70.352  1.00  0.00     0.000 HD 
HETATM   34  O   UNL     2      -9.657  10.361  69.739  1.00  0.00    -0.165 OA 
BRANCH  32  35
HETATM   35  C   UNL     2      -7.884  11.084  68.273  1.00  0.00    -0.121 C  
HETATM   36  C   UNL     2      -6.273  11.110  66.326  1.00  0.00    -0.102 C  
HETATM   37  C   UNL     2      -5.166  11.195  67.392  1.00  0.00    -0.043 C  
HETATM   38  C   UNL     2      -5.591  10.408  68.642  1.00  0.00    -0.037 C  
HETATM   39  C   UNL     2      -7.526  11.771  66.930  1.00  0.00    -0.106 C  
HETATM   40  N   UNL     2      -6.980   9.907  68.520  1.00  0.00    -0.066 NA 
HETATM   41  C   UNL     2      -6.989   8.947  67.384  1.00  0.00    -0.075 C  
HETATM   42  C   UNL     2      -6.633   9.630  66.038  1.00  0.00    -0.079 C  
BRANCH  42  43
HETATM   43  C   UNL     2      -5.520   8.899  65.323  1.00  0.00    -0.038 C  
HETATM   44  C   UNL     2      -5.534   8.584  64.020  1.00  0.00    -0.060 C  
ENDBRANCH  42  43
ENDBRANCH  32  35
ENDBRANCH  29  32
ENDBRANCH   4  22
TORSDOF 6
ENDMDL
MODEL      321
REMARK 921   NORMALIZED FREE ENERGY PREDICTED BY IDOCK:   78.19 KCAL/MOL
REMARK 922        TOTAL FREE ENERGY PREDICTED BY IDOCK:  102.54 KCAL/MOL
REMARK 923 INTER-LIGAND FREE ENERGY PREDICTED BY IDOCK:   93.78 KCAL/MOL
REMARK 924 INTRA-LIGAND FREE ENERGY PREDICTED BY IDOCK:    8.76 KCAL/MOL
REMARK 927      BINDING AFFINITY PREDICTED BY RF-SCORE:    0.00 PKD
ROOT
HETATM    1  C   UNL     1      -9.997  11.266  65.800  1.00  0.00    -0.281 C  
HETATM    2  C   UNL     1     -10.253  12.536  66.608  1.00  0.00    -0.243 C  
HETATM    3  C   UNL     2      -6.884  11.876  64.398  1.00  0.00     4.276 C  
HETATM    4  O   UNL     2      -7.323  12.706  65.461  1.00  0.00     2.761 OA 
ENDROOT
BRANCH   2   5
HETATM    5  C   UNL     1     -11.182  13.618  65.959  1.00  0.00    -0.302 C  
HETATM    6  O   UNL     1      -9.577  14.516  64.316  1.00  0.00     0.916 OA 
HETATM    7  C   UNL     1     -11.926  14.217  67.164  1.00  0.00    -0.417 C  
HETATM    8  C   UNL     1     -10.301  14.707  65.296  1.00  0.00    -0.399 C  
HETATM    9  H   UNL     1     -10.105  16.748  65.225  1.00  0.00     0.000 HD 
HETATM   10  N   UNL     1     -11.281  15.235  67.810  1.00  0.00    -0.320 N  
HETATM   11  O   UNL     1     -12.984  13.790  67.610  1.00  0.00     0.889 OA 
HETATM   12  O   UNL     1     -10.804  17.415  67.517  1.00  0.00    -0.315 OA 
HETATM   13  N   UNL     1     -10.385  15.971  65.823  1.00  0.00    -0.358 N  
HETATM   14  C   UNL     1     -10.809  16.268  67.076  1.00  0.00    -0.173 C  
HETATM   15  H   UNL     1     -11.159  15.216  68.823  1.00  0.00     0.000 HD 
BRANCH   5  16
HETATM   16  C   UNL     1     -12.148  12.987  64.934  1.00  0.00    -0.459 A  
HETATM   17  C   UNL     1     -12.863  11.066  63.613  1.00  0.00     2.008 A  
HETATM   18  C   UNL     1     -11.870  11.756  64.312  1.00  0.00    -0.307 A  
HETATM   19  C   UNL     1     -13.399  13.574  64.677  1.00  0.00     0.821 A  
HETATM   20  C   UNL     1     -14.138  11.608  63.492  1.00  0.00     2.721 A  
HETATM   21  C   UNL     1     -14.396  12.877  63.996  1.00  0.00     5.612 A  
ENDBRANCH   5  16
ENDBRANCH   2   5
BRANCH   4  22
HETATM   22  C   UNL     2      -7.094  14.041  65.328  1.00  0.00    11.066 A  
HETATM   23  C   UNL     2      -6.470  14.669  64.269  1.00  0.00    23.692 A  
HETATM   24  C   UNL     2      -7.453  16.210  66.443  1.00  0.00     0.037 A  
HETATM   25  C   UNL     2      -7.688  18.416  67.411  1.00  0.00    -0.226 A  
HETATM   26  C   UNL     2      -6.333  16.059  64.295  1.00  0.00    14.609 A  
HETATM   27  C   UNL     2      -7.017  18.912  66.306  1.00  0.00    -0.233 A  
HETATM   28  C   UNL     2      -7.635  14.812  66.351  1.00  0.00     1.466 A  
HETATM   29  C   UNL     2      -7.914  17.034  67.523  1.00  0.00    -0.189 A  
HETATM   30  C   UNL     2      -6.773  16.832  65.366  1.00  0.00     2.586 A  
HETATM   31  N   UNL     2      -6.552  18.148  65.302  1.00  0.00    -0.383 NA 
BRANCH  29  32
HETATM   32  C   UNL     2      -8.721  16.490  68.718  1.00  0.00    -0.259 C  
HETATM   33  H   UNL     2      -8.490  15.148  70.160  1.00  0.00     0.000 HD 
HETATM   34  O   UNL     2      -7.992  15.483  69.424  1.00  0.00    -0.219 OA 
BRANCH  32  35
HETATM   35  C   UNL     2      -9.203  17.536  69.790  1.00  0.00     1.089 C  
HETATM   36  C   UNL     2      -9.902  17.317  72.209  1.00  0.00     8.560 C  
HETATM   37  C   UNL     2     -10.433  18.754  72.066  1.00  0.00     3.656 C  
HETATM   38  C   UNL     2     -10.955  18.973  70.637  1.00  0.00     3.464 C  
HETATM   39  C   UNL     2      -8.729  17.174  71.222  1.00  0.00     8.187 C  
HETATM   40  N   UNL     2     -10.684  17.797  69.776  1.00  0.00     0.549 NA 
HETATM   41  C   UNL     2     -11.458  16.662  70.348  1.00  0.00     0.210 C  
HETATM   42  C   UNL     2     -10.986  16.296  71.779  1.00  0.00     0.628 C  
BRANCH  42  43
HETATM   43  C   UNL     2     -12.145  16.247  72.749  1.00  0.00    -0.637 C  
HETATM   44  C   UNL     2     -12.033  16.415  74.073  1.00  0.00    -0.303 C  
ENDBRANCH  42  43
ENDBRANCH  32  35
ENDBRANCH  29  32
ENDBRANCH   4  22
TORSDOF 6
ENDMDL
MODEL      322
REMARK 921   NORMALIZED FREE ENERGY PREDICTED BY IDOCK:   84.47 KCAL/MOL
REMARK 922        TOTAL FREE ENERGY PREDICTED BY IDOCK:  111.02 KCAL/MOL
REMARK 923 INTER-LIGAND FREE ENERGY PREDICTED BY IDOCK:   15.55 KCAL/MOL
REMARK 924 INTRA-LIGAND FREE ENERGY PREDICTED BY IDOCK:   95.47 KCAL/MOL
REMARK 927      BINDING AFFINITY PREDICTED BY RF-SCORE:    0.00 PKD
ROOT
HETATM    1  C   UNL     1      -6.491   6.332  67.143  1.00  0.00    -0.053 C  
HETATM    2  C   UNL     1      -7.086   7.017  68.371  1.00  0.00    -0.082 C  
HETATM    3  C   UNL     2      -7.984   8.046  64.523  1.00  0.00    -0.151 C  
HETATM    4  O   UNL     2      -8.060   8.601  65.827  1.00  0.00    -0.104 OA 
ENDROOT
BRANCH   2   5
HETATM    5  C   UNL     1      -8.280   6.292  69.081  1.00  0.00    -0.114 C  
HETATM    6  O   UNL     1      -8.322   4.249  67.701  1.00  0.00    -0.098 OA 
HETATM    7  C   UNL     1      -9.284   7.430  69.338  1.00  0.00    -0.145 C  
HETATM    8  C   UNL     1      -8.900   5.262  68.104  1.00  0.00    -0.105 C  
HETATM    9  H   UNL     1     -10.726   4.689  67.366  1.00  0.00     0.000 HD 
HETATM   10  N   UNL     1     -10.136   7.710  68.307  1.00  0.00    -0.180 N  
HETATM   11  O   UNL     1      -9.300   8.127  70.346  1.00  0.00    -0.157 OA 
HETATM   12  O   UNL     1     -11.964   6.845  67.319  1.00  0.00     1.147 OA 
HETATM   13  N   UNL     1     -10.194   5.488  67.711  1.00  0.00    -0.182 N  
HETATM   14  C   UNL     1     -10.822   6.689  67.743  1.00  0.00    -0.294 C  
HETATM   15  H   UNL     1     -10.253   8.666  67.971  1.00  0.00     0.000 HD 
BRANCH   5  16
HETATM   16  C   UNL     1      -7.825   5.612  70.390  1.00  0.00    -0.102 A  
HETATM   17  C   UNL     1      -8.353   4.710  72.593  1.00  0.00    -0.114 A  
HETATM   18  C   UNL     1      -8.654   5.559  71.525  1.00  0.00    -0.132 A  
HETATM   19  C   UNL     1      -6.604   4.919  70.447  1.00  0.00    -0.035 A  
HETATM   20  C   UNL     1      -7.204   3.928  72.562  1.00  0.00    -0.057 A  
HETATM   21  C   UNL     1      -6.312   4.058  71.504  1.00  0.00    -0.015 A  
ENDBRANCH   5  16
ENDBRANCH   2   5
BRANCH   4  22
HETATM   22  C   UNL     2      -9.260   9.123  66.199  1.00  0.00    -0.205 A  
HETATM   23  C   UNL     2     -10.003  10.058  65.506  1.00  0.00    -0.367 A  
HETATM   24  C   UNL     2     -10.983   9.015  67.959  1.00  0.00     0.002 A  
HETATM   25  C   UNL     2     -12.753   9.060  69.608  1.00  0.00     2.203 A  
HETATM   26  C   UNL     2     -11.227  10.474  66.035  1.00  0.00     0.435 A  
HETATM   27  C   UNL     2     -13.377  10.021  68.832  1.00  0.00     4.877 A  
HETATM   28  C   UNL     2      -9.784   8.567  67.360  1.00  0.00    -0.222 A  
HETATM   29  C   UNL     2     -11.516   8.534  69.200  1.00  0.00     0.675 A  
HETATM   30  C   UNL     2     -11.710  10.005  67.253  1.00  0.00     1.688 A  
HETATM   31  N   UNL     2     -12.874  10.502  67.682  1.00  0.00     4.537 NA 
BRANCH  29  32
HETATM   32  C   UNL     2     -10.855   7.415  70.029  1.00  0.00    -0.252 C  
HETATM   33  H   UNL     2      -9.300   6.194  69.876  1.00  0.00     0.000 HD 
HETATM   34  O   UNL     2      -9.706   6.884  69.365  1.00  0.00    -0.157 OA 
BRANCH  32  35
HETATM   35  C   UNL     2     -10.405   7.779  71.492  1.00  0.00    -0.193 C  
HETATM   36  C   UNL     2      -8.935   9.609  72.429  1.00  0.00     2.932 C  
HETATM   37  C   UNL     2      -8.953   8.796  73.735  1.00  0.00     0.867 C  
HETATM   38  C   UNL     2      -9.012   7.296  73.409  1.00  0.00    -0.162 C  
HETATM   39  C   UNL     2     -10.257   9.310  71.698  1.00  0.00    -0.271 C  
HETATM   40  N   UNL     2      -9.166   7.063  71.954  1.00  0.00    -0.141 NA 
HETATM   41  C   UNL     2      -7.938   7.595  71.305  1.00  0.00    -0.094 C  
HETATM   42  C   UNL     2      -7.786   9.125  71.508  1.00  0.00     0.066 C  
BRANCH  42  43
HETATM   43  C   UNL     2      -6.423   9.479  72.058  1.00  0.00     0.350 C  
HETATM   44  C   UNL     2      -5.261   9.147  71.479  1.00  0.00    -0.046 C  
ENDBRANCH  42  43
ENDBRANCH  32  35
ENDBRANCH  29  32
ENDBRANCH   4  22
TORSDOF 6
ENDMDL
MODEL      323
REMARK 921   NORMALIZED FREE ENERGY PREDICTED BY IDOCK:  110.99 KCAL/MOL
REMARK 922        TOTAL FREE ENERGY PREDICTED BY IDOCK:  146.85 KCAL/MOL
REMARK 923 INTER-LIGAND FREE ENERGY PREDICTED BY IDOCK:  133.41 KCAL/MOL
REMARK 924 INTRA-LIGAND FREE ENERGY PREDICTED BY IDOCK:   13.44 KCAL/MOL
REMARK 927      BINDING AFFINITY PREDICTED BY RF-SCORE:    0.00 PKD
ROOT
HETATM    1  C   UNL     1      -9.997  11.266  65.800  1.00  0.00    -0.281 C  
HETATM    2  C   UNL     1     -10.248  12.541  66.601  1.00  0.00    -0.243 C  
HETATM    3  C   UNL     2      -6.868  11.843  64.419  1.00  0.00     4.276 C  
HETATM    4  O   UNL     2      -7.308  12.681  65.476  1.00  0.00     2.761 OA 
ENDROOT
BRANCH   2   5
HETATM    5  C   UNL     1     -11.162  13.629  65.941  1.00  0.00    -0.311 C  
HETATM    6  O   UNL     1      -9.537  14.507  64.307  1.00  0.00     0.916 OA 
HETATM    7  C   UNL     1     -11.910  14.239  67.139  1.00  0.00    -0.425 C  
HETATM    8  C   UNL     1     -10.267  14.708  65.281  1.00  0.00    -0.391 C  
HETATM    9  H   UNL     1     -10.052  16.746  65.204  1.00  0.00     0.000 HD 
HETATM   10  N   UNL     1     -11.261  15.253  67.786  1.00  0.00    -0.320 N  
HETATM   11  O   UNL     1     -12.975  13.823  67.578  1.00  0.00     0.787 OA 
HETATM   12  O   UNL     1     -10.762  17.428  67.488  1.00  0.00    -0.347 OA 
HETATM   13  N   UNL     1     -10.343  15.974  65.803  1.00  0.00    -0.358 N  
HETATM   14  C   UNL     1     -10.774  16.280  67.051  1.00  0.00    -0.233 C  
HETATM   15  H   UNL     1     -11.146  15.237  68.800  1.00  0.00     0.000 HD 
BRANCH   5  16
HETATM   16  C   UNL     1     -12.126  13.003  64.912  1.00  0.00    -0.459 A  
HETATM   17  C   UNL     1     -13.653  11.214  64.267  1.00  0.00     3.673 A  
HETATM   18  C   UNL     1     -12.578  11.675  65.031  1.00  0.00     1.115 A  
HETATM   19  C   UNL     1     -12.675  13.784  63.880  1.00  0.00     0.107 A  
HETATM   20  C   UNL     1     -14.271  12.056  63.348  1.00  0.00     3.416 A  
HETATM   21  C   UNL     1     -13.760  13.330  63.131  1.00  0.00     4.143 A  
ENDBRANCH   5  16
ENDBRANCH   2   5
BRANCH   4  22
HETATM   22  C   UNL     2      -7.066  14.013  65.340  1.00  0.00     9.916 A  
HETATM   23  C   UNL     2      -6.429  14.632  64.283  1.00  0.00    23.692 A  
HETATM   24  C   UNL     2      -7.414  16.190  66.444  1.00  0.00     0.037 A  
HETATM   25  C   UNL     2      -7.637  18.401  67.402  1.00  0.00    -0.222 A  
HETATM   26  C   UNL     2      -6.279  16.021  64.305  1.00  0.00    14.329 A  
HETATM   27  C   UNL     2      -6.953  18.887  66.301  1.00  0.00    -0.233 A  
HETATM   28  C   UNL     2      -7.608  14.793  66.355  1.00  0.00     1.466 A  
HETATM   29  C   UNL     2      -7.875  17.022  67.517  1.00  0.00    -0.186 A  
HETATM   30  C   UNL     2      -6.720  16.801  65.370  1.00  0.00     2.586 A  
HETATM   31  N   UNL     2      -6.488  18.116  65.303  1.00  0.00    -0.350 NA 
BRANCH  29  32
HETATM   32  C   UNL     2      -8.697  16.490  68.708  1.00  0.00    -0.259 C  
HETATM   33  H   UNL     2     -10.234  15.272  69.008  1.00  0.00     0.000 HD 
HETATM   34  O   UNL     2      -9.728  15.600  68.274  1.00  0.00    -0.199 OA 
BRANCH  32  35
HETATM   35  C   UNL     2      -7.905  15.745  69.846  1.00  0.00     0.272 C  
HETATM   36  C   UNL     2      -8.020  13.391  70.759  1.00  0.00     5.032 C  
HETATM   37  C   UNL     2      -7.158  13.922  71.918  1.00  0.00     3.780 C  
HETATM   38  C   UNL     2      -7.525  15.386  72.208  1.00  0.00     5.710 C  
HETATM   39  C   UNL     2      -7.681  14.245  69.523  1.00  0.00     0.203 C  
HETATM   40  N   UNL     2      -8.499  15.905  71.218  1.00  0.00     4.212 NA 
HETATM   41  C   UNL     2      -9.744  15.108  71.386  1.00  0.00     2.434 C  
HETATM   42  C   UNL     2      -9.525  13.608  71.063  1.00  0.00     6.899 C  
BRANCH  42  43
HETATM   43  C   UNL     2     -10.016  12.722  72.185  1.00  0.00    15.722 C  
HETATM   44  C   UNL     2      -9.628  12.829  73.463  1.00  0.00    20.744 C  
ENDBRANCH  42  43
ENDBRANCH  32  35
ENDBRANCH  29  32
ENDBRANCH   4  22
TORSDOF 6
ENDMDL
