MODEL        1
REMARK 921   NORMALIZED FREE ENERGY PREDICTED BY IDOCK:   -7.62 KCAL/MOL
REMARK 922        TOTAL FREE ENERGY PREDICTED BY IDOCK:   -9.33 KCAL/MOL
REMARK 923 INTER-LIGAND FREE ENERGY PREDICTED BY IDOCK:   -8.96 KCAL/MOL
REMARK 924 INTRA-LIGAND FREE ENERGY PREDICTED BY IDOCK:   -0.38 KCAL/MOL
REMARK 927      BINDING AFFINITY PREDICTED BY RF-SCORE:    0.00 PKD
ROOT
HETATM    1  C   UNL     1      -9.546  18.453  65.956  1.00  0.00    -0.067 C  
HETATM    2  C   UNL     1     -10.734  19.144  65.616  1.00  0.00    -0.297 C  
HETATM    3  C   UNL     1     -10.486  18.969  67.072  1.00  0.00    -0.514 C  
HETATM    4  C   UNL     1      -8.625  18.233  67.552  1.00  0.00    -0.250 C  
HETATM    5  C   UNL     1      -9.025  19.541  67.489  1.00  0.00    -0.367 C  
HETATM    6  C   UNL     1     -11.422  14.656  69.543  1.00  0.00    -0.334 A  
HETATM    7  O   UNL     1      -7.981  18.102  68.819  1.00  0.00    -0.300 OA 
HETATM    8  C   UNL     1      -9.883  19.229  69.129  1.00  0.00    -0.398 C  
HETATM    9  C   UNL     1      -8.263  20.818  67.304  1.00  0.00    -0.239 C  
HETATM   10  C   UNL     1     -10.017  16.750  66.488  1.00  0.00    -0.308 C  
HETATM   11  H   UNL     1      -7.122  17.762  69.041  1.00  0.00     0.000 HD 
HETATM   12  C   UNL     1     -10.373  17.539  69.281  1.00  0.00    -0.160 C  
HETATM   13  C   UNL     1     -10.810  16.584  67.969  1.00  0.00    -0.337 C  
HETATM   14  C   UNL     1     -11.087  15.104  68.253  1.00  0.00    -0.295 A  
HETATM   15  C   UNL     1     -11.228  14.198  67.177  1.00  0.00    -0.330 A  
HETATM   16  C   UNL     1     -11.620  12.872  67.428  1.00  0.00    -0.414 A  
HETATM   17  C   UNL     1     -10.956  14.560  65.733  1.00  0.00    -0.319 C  
HETATM   18  C   UNL     1     -10.884  16.054  65.437  1.00  0.00    -0.340 C  
HETATM   19  C   UNL     1     -11.893  12.429  68.718  1.00  0.00    -0.311 A  
HETATM   20  C   UNL     1     -11.826  13.335  69.770  1.00  0.00    -0.394 A  
ENDROOT
BRANCH   4  21
HETATM   21  C   UNL     1      -7.359  18.133  66.648  1.00  0.00    -0.252 C  
HETATM   22  C   UNL     1      -6.406  18.023  65.920  1.00  0.00    -0.294 C  
ENDBRANCH   4  21
BRANCH  19  23
HETATM   23  O   UNL     1     -12.242  11.145  69.044  1.00  0.00    -0.469 OA 
BRANCH  23  24
HETATM   24  C   UNL     1     -11.964  10.753  70.388  1.00  0.00    -0.357 C  
HETATM   25  C   UNL     1     -13.065   9.884  70.998  1.00  0.00    -0.406 C  
HETATM   26  C   UNL     1     -12.360   9.200  72.151  1.00  0.00    -0.424 C  
HETATM   27  C   UNL     1     -10.972   8.882  71.608  1.00  0.00    -0.415 C  
HETATM   28  C   UNL     1     -10.746   9.825  70.425  1.00  0.00    -0.368 C  
ENDBRANCH  23  24
ENDBRANCH  19  23
TORSDOF 3
ENDMDL
MODEL        2
REMARK 921   NORMALIZED FREE ENERGY PREDICTED BY IDOCK:   -7.30 KCAL/MOL
REMARK 922        TOTAL FREE ENERGY PREDICTED BY IDOCK:   -8.96 KCAL/MOL
REMARK 923 INTER-LIGAND FREE ENERGY PREDICTED BY IDOCK:   -8.94 KCAL/MOL
REMARK 924 INTRA-LIGAND FREE ENERGY PREDICTED BY IDOCK:   -0.02 KCAL/MOL
REMARK 927      BINDING AFFINITY PREDICTED BY RF-SCORE:    0.00 PKD
ROOT
HETATM    1  C   UNL     1      -9.520   7.434  71.615  1.00  0.00    -0.163 C  
HETATM    2  C   UNL     1      -9.070   7.993  72.835  1.00  0.00    -0.313 C  
HETATM    3  C   UNL     1     -10.490   8.267  72.487  1.00  0.00    -0.406 C  
HETATM    4  C   UNL     1     -11.206   7.210  70.872  1.00  0.00    -0.276 C  
HETATM    5  C   UNL     1     -11.299   6.889  72.200  1.00  0.00    -0.302 C  
HETATM    6  C   UNL     1     -11.889  11.814  69.162  1.00  0.00    -0.389 A  
HETATM    7  O   UNL     1     -12.535   7.083  70.365  1.00  0.00    -0.622 OA 
HETATM    8  C   UNL     1     -12.640   8.199  72.296  1.00  0.00    -0.314 C  
HETATM    9  C   UNL     1     -11.511   5.584  72.907  1.00  0.00    -0.327 C  
HETATM   10  C   UNL     1      -9.624   8.799  70.376  1.00  0.00    -0.210 C  
HETATM   11  H   UNL     1     -12.865   6.596  69.620  1.00  0.00     0.000 HD 
HETATM   12  C   UNL     1     -12.378   9.470  71.097  1.00  0.00    -0.410 C  
HETATM   13  C   UNL     1     -10.853   9.940  70.571  1.00  0.00    -0.391 C  
HETATM   14  C   UNL     1     -10.800  10.967  69.435  1.00  0.00    -0.286 A  
HETATM   15  C   UNL     1      -9.572  11.232  68.786  1.00  0.00    -0.160 A  
HETATM   16  C   UNL     1      -9.491  12.272  67.843  1.00  0.00    -0.200 A  
HETATM   17  C   UNL     1      -8.307  10.439  69.026  1.00  0.00    -0.150 C  
HETATM   18  C   UNL     1      -8.308   9.572  70.280  1.00  0.00    -0.221 C  
HETATM   19  C   UNL     1     -10.595  13.064  67.543  1.00  0.00    -0.230 A  
HETATM   20  C   UNL     1     -11.784  12.853  68.231  1.00  0.00    -0.390 A  
ENDROOT
BRANCH   4  21
HETATM   21  C   UNL     1     -10.583   5.963  70.176  1.00  0.00    -0.362 C  
HETATM   22  C   UNL     1     -10.145   4.992  69.613  1.00  0.00    -0.321 C  
ENDBRANCH   4  21
BRANCH  19  23
HETATM   23  O   UNL     1     -10.602  14.067  66.610  1.00  0.00    -0.272 OA 
BRANCH  23  24
HETATM   24  C   UNL     1     -10.629  13.642  65.247  1.00  0.00    -0.346 C  
HETATM   25  C   UNL     1     -10.822  12.133  65.095  1.00  0.00    -0.343 C  
HETATM   26  C   UNL     1     -11.315  11.994  63.669  1.00  0.00    -0.536 C  
HETATM   27  C   UNL     1     -12.251  13.182  63.478  1.00  0.00    -0.552 C  
HETATM   28  C   UNL     1     -11.864  14.211  64.542  1.00  0.00    -0.451 C  
ENDBRANCH  23  24
ENDBRANCH  19  23
TORSDOF 3
ENDMDL
MODEL        3
REMARK 921   NORMALIZED FREE ENERGY PREDICTED BY IDOCK:   -7.25 KCAL/MOL
REMARK 922        TOTAL FREE ENERGY PREDICTED BY IDOCK:   -8.90 KCAL/MOL
REMARK 923 INTER-LIGAND FREE ENERGY PREDICTED BY IDOCK:   -8.50 KCAL/MOL
REMARK 924 INTRA-LIGAND FREE ENERGY PREDICTED BY IDOCK:   -0.39 KCAL/MOL
REMARK 927      BINDING AFFINITY PREDICTED BY RF-SCORE:    0.00 PKD
ROOT
HETATM    1  C   UNL     1     -10.460  14.223  67.568  1.00  0.00    -0.252 C  
HETATM    2  C   UNL     1     -11.477  14.269  66.585  1.00  0.00    -0.374 C  
HETATM    3  C   UNL     1     -11.910  14.584  67.972  1.00  0.00    -0.350 C  
HETATM    4  C   UNL     1     -10.377  14.802  69.329  1.00  0.00    -0.206 C  
HETATM    5  C   UNL     1     -11.012  15.778  68.608  1.00  0.00    -0.307 C  
HETATM    6  C   UNL     1     -12.792  11.038  71.471  1.00  0.00    -0.555 A  
HETATM    7  O   UNL     1     -10.396  15.266  70.679  1.00  0.00    -0.490 OA 
HETATM    8  C   UNL     1     -12.433  15.576  69.818  1.00  0.00    -0.188 C  
HETATM    9  C   UNL     1     -10.597  17.161  68.204  1.00  0.00    -0.380 C  
HETATM   10  C   UNL     1     -10.685  12.668  68.539  1.00  0.00    -0.271 C  
HETATM   11  H   UNL     1      -9.689  15.367  71.305  1.00  0.00     0.000 HD 
HETATM   12  C   UNL     1     -12.499  13.930  70.456  1.00  0.00    -0.422 C  
HETATM   13  C   UNL     1     -12.013  12.581  69.578  1.00  0.00    -0.329 C  
HETATM   14  C   UNL     1     -12.012  11.239  70.318  1.00  0.00    -0.466 A  
HETATM   15  C   UNL     1     -11.400  10.112  69.724  1.00  0.00    -0.312 A  
HETATM   16  C   UNL     1     -11.520   8.851  70.333  1.00  0.00    -0.182 A  
HETATM   17  C   UNL     1     -10.580  10.173  68.454  1.00  0.00    -0.249 C  
HETATM   18  C   UNL     1     -10.751  11.442  67.627  1.00  0.00    -0.261 C  
HETATM   19  C   UNL     1     -12.248   8.679  71.506  1.00  0.00    -0.318 A  
HETATM   20  C   UNL     1     -12.912   9.771  72.053  1.00  0.00    -0.515 A  
ENDROOT
BRANCH   4  21
HETATM   21  C   UNL     1      -8.856  14.991  69.051  1.00  0.00    -0.205 C  
HETATM   22  C   UNL     1      -7.684  15.185  68.848  1.00  0.00    -0.159 C  
ENDBRANCH   4  21
BRANCH  19  23
HETATM   23  O   UNL     1     -12.378   7.491  72.176  1.00  0.00    -0.281 OA 
BRANCH  23  24
HETATM   24  C   UNL     1     -11.161   6.789  72.427  1.00  0.00    -0.257 C  
HETATM   25  C   UNL     1     -10.400   7.326  73.640  1.00  0.00    -0.399 C  
HETATM   26  C   UNL     1      -9.484   6.177  74.005  1.00  0.00    -0.163 C  
HETATM   27  C   UNL     1     -10.336   4.932  73.786  1.00  0.00    -0.273 C  
HETATM   28  C   UNL     1     -11.461   5.343  72.834  1.00  0.00    -0.340 C  
ENDBRANCH  23  24
ENDBRANCH  19  23
TORSDOF 3
ENDMDL
MODEL        4
REMARK 921   NORMALIZED FREE ENERGY PREDICTED BY IDOCK:   -7.23 KCAL/MOL
REMARK 922        TOTAL FREE ENERGY PREDICTED BY IDOCK:   -8.88 KCAL/MOL
REMARK 923 INTER-LIGAND FREE ENERGY PREDICTED BY IDOCK:   -8.48 KCAL/MOL
REMARK 924 INTRA-LIGAND FREE ENERGY PREDICTED BY IDOCK:   -0.39 KCAL/MOL
REMARK 927      BINDING AFFINITY PREDICTED BY RF-SCORE:    0.00 PKD
ROOT
HETATM    1  C   UNL     1      -9.551  15.416  66.188  1.00  0.00    -0.362 C  
HETATM    2  C   UNL     1     -10.597  15.670  65.268  1.00  0.00    -0.448 C  
HETATM    3  C   UNL     1     -10.755  16.291  66.610  1.00  0.00    -0.197 C  
HETATM    4  C   UNL     1      -9.100  16.161  67.827  1.00  0.00    -0.197 C  
HETATM    5  C   UNL     1      -9.459  17.189  66.996  1.00  0.00    -0.257 C  
HETATM    6  C   UNL     1     -12.359  13.739  70.672  1.00  0.00    -0.445 A  
HETATM    7  O   UNL     1      -8.826  16.778  69.085  1.00  0.00    -0.220 OA 
HETATM    8  C   UNL     1     -10.732  17.635  68.300  1.00  0.00    -0.285 C  
HETATM    9  C   UNL     1      -8.665  18.287  66.355  1.00  0.00    -0.260 C  
HETATM   10  C   UNL     1     -10.161  14.169  67.404  1.00  0.00    -0.244 C  
HETATM   11  H   UNL     1      -8.062  16.718  69.646  1.00  0.00     0.000 HD 
HETATM   12  C   UNL     1     -11.258  16.205  69.195  1.00  0.00    -0.336 C  
HETATM   13  C   UNL     1     -11.329  14.669  68.517  1.00  0.00    -0.305 C  
HETATM   14  C   UNL     1     -11.682  13.514  69.460  1.00  0.00    -0.382 A  
HETATM   15  C   UNL     1     -11.532  12.179  69.020  1.00  0.00    -0.351 A  
HETATM   16  C   UNL     1     -11.988  11.122  69.827  1.00  0.00    -0.428 A  
HETATM   17  C   UNL     1     -10.876  11.794  67.712  1.00  0.00    -0.258 C  
HETATM   18  C   UNL     1     -10.715  12.927  66.705  1.00  0.00    -0.280 C  
HETATM   19  C   UNL     1     -12.604  11.360  71.052  1.00  0.00    -0.386 A  
HETATM   20  C   UNL     1     -12.819  12.673  71.454  1.00  0.00    -0.358 A  
ENDROOT
BRANCH   4  21
HETATM   21  C   UNL     1      -7.637  15.791  67.437  1.00  0.00    -0.220 C  
HETATM   22  C   UNL     1      -6.494  15.508  67.185  1.00  0.00     0.089 C  
ENDBRANCH   4  21
BRANCH  19  23
HETATM   23  O   UNL     1     -13.039  10.384  71.908  1.00  0.00    -0.441 OA 
BRANCH  23  24
HETATM   24  C   UNL     1     -12.979   9.050  71.404  1.00  0.00    -0.291 C  
HETATM   25  C   UNL     1     -12.002   8.161  72.175  1.00  0.00    -0.413 C  
HETATM   26  C   UNL     1     -12.466   6.762  71.828  1.00  0.00    -0.394 C  
HETATM   27  C   UNL     1     -13.987   6.862  71.817  1.00  0.00    -0.277 C  
HETATM   28  C   UNL     1     -14.320   8.343  71.623  1.00  0.00    -0.536 C  
ENDBRANCH  23  24
ENDBRANCH  19  23
TORSDOF 3
ENDMDL
MODEL        5
REMARK 921   NORMALIZED FREE ENERGY PREDICTED BY IDOCK:   -7.06 KCAL/MOL
REMARK 922        TOTAL FREE ENERGY PREDICTED BY IDOCK:   -8.68 KCAL/MOL
REMARK 923 INTER-LIGAND FREE ENERGY PREDICTED BY IDOCK:   -8.27 KCAL/MOL
REMARK 924 INTRA-LIGAND FREE ENERGY PREDICTED BY IDOCK:   -0.41 KCAL/MOL
REMARK 927      BINDING AFFINITY PREDICTED BY RF-SCORE:    0.00 PKD
ROOT
HETATM    1  C   UNL     1     -10.373  14.026  66.925  1.00  0.00    -0.269 C  
HETATM    2  C   UNL     1     -11.461  14.095  66.022  1.00  0.00    -0.343 C  
HETATM    3  C   UNL     1     -11.742  14.565  67.405  1.00  0.00    -0.425 C  
HETATM    4  C   UNL     1     -10.086  14.735  68.616  1.00  0.00    -0.238 C  
HETATM    5  C   UNL     1     -10.684  15.709  67.861  1.00  0.00    -0.294 C  
HETATM    6  C   UNL     1     -12.659  11.425  71.263  1.00  0.00    -0.480 A  
HETATM    7  O   UNL     1      -9.947  15.307  69.917  1.00  0.00    -0.399 OA 
HETATM    8  C   UNL     1     -12.010  15.752  69.188  1.00  0.00    -0.312 C  
HETATM    9  C   UNL     1     -10.174  17.004  67.305  1.00  0.00    -0.310 C  
HETATM   10  C   UNL     1     -10.663  12.587  68.045  1.00  0.00    -0.242 C  
HETATM   11  H   UNL     1      -9.183  15.385  70.476  1.00  0.00     0.000 HD 
HETATM   12  C   UNL     1     -12.178  14.179  69.974  1.00  0.00    -0.418 C  
HETATM   13  C   UNL     1     -11.900  12.721  69.186  1.00  0.00    -0.352 C  
HETATM   14  C   UNL     1     -11.964  11.451  70.040  1.00  0.00    -0.442 A  
HETATM   15  C   UNL     1     -11.515  10.222  69.505  1.00  0.00    -0.273 A  
HETATM   16  C   UNL     1     -11.703   9.033  70.231  1.00  0.00    -0.008 A  
HETATM   17  C   UNL     1     -10.804  10.095  68.176  1.00  0.00    -0.310 C  
HETATM   18  C   UNL     1     -10.922  11.304  67.254  1.00  0.00    -0.342 C  
HETATM   19  C   UNL     1     -12.342   9.033  71.467  1.00  0.00    -0.331 A  
HETATM   20  C   UNL     1     -12.850  10.228  71.963  1.00  0.00    -0.457 A  
ENDROOT
BRANCH   4  21
HETATM   21  C   UNL     1      -8.583  14.744  68.207  1.00  0.00    -0.164 C  
HETATM   22  C   UNL     1      -7.409  14.766  67.937  1.00  0.00    -0.162 C  
ENDBRANCH   4  21
BRANCH  19  23
HETATM   23  O   UNL     1     -12.528   7.923  72.248  1.00  0.00    -0.292 OA 
BRANCH  23  24
HETATM   24  C   UNL     1     -11.418   7.029  72.322  1.00  0.00    -0.270 C  
HETATM   25  C   UNL     1     -10.505   7.305  73.517  1.00  0.00    -0.421 C  
HETATM   26  C   UNL     1      -9.752   6.001  73.680  1.00  0.00    -0.165 C  
HETATM   27  C   UNL     1     -10.796   4.927  73.403  1.00  0.00    -0.360 C  
HETATM   28  C   UNL     1     -11.907   5.603  72.597  1.00  0.00    -0.192 C  
ENDBRANCH  23  24
ENDBRANCH  19  23
TORSDOF 3
ENDMDL
MODEL        6
REMARK 921   NORMALIZED FREE ENERGY PREDICTED BY IDOCK:   -7.03 KCAL/MOL
REMARK 922        TOTAL FREE ENERGY PREDICTED BY IDOCK:   -8.64 KCAL/MOL
REMARK 923 INTER-LIGAND FREE ENERGY PREDICTED BY IDOCK:   -8.27 KCAL/MOL
REMARK 924 INTRA-LIGAND FREE ENERGY PREDICTED BY IDOCK:   -0.37 KCAL/MOL
REMARK 927      BINDING AFFINITY PREDICTED BY RF-SCORE:    0.00 PKD
ROOT
HETATM    1  C   UNL     1     -11.638   7.893  72.121  1.00  0.00    -0.380 C  
HETATM    2  C   UNL     1     -12.868   7.264  71.813  1.00  0.00    -0.369 C  
HETATM    3  C   UNL     1     -11.877   7.316  70.705  1.00  0.00    -0.324 C  
HETATM    4  C   UNL     1     -10.000   7.961  71.252  1.00  0.00    -0.176 C  
HETATM    5  C   UNL     1     -10.457   6.674  71.161  1.00  0.00    -0.247 C  
HETATM    6  C   UNL     1     -11.081  11.445  67.893  1.00  0.00    -0.320 A  
HETATM    7  O   UNL     1      -8.776   7.975  70.517  1.00  0.00    -0.132 OA 
HETATM    8  C   UNL     1     -10.295   6.878  69.302  1.00  0.00    -0.212 C  
HETATM    9  C   UNL     1      -9.993   5.395  71.790  1.00  0.00    -0.235 C  
HETATM   10  C   UNL     1     -11.645   9.562  71.332  1.00  0.00    -0.466 C  
HETATM   11  H   UNL     1      -7.910   8.272  70.769  1.00  0.00     0.000 HD 
HETATM   12  C   UNL     1     -10.520   8.564  68.823  1.00  0.00    -0.208 C  
HETATM   13  C   UNL     1     -11.522   9.631  69.650  1.00  0.00    -0.045 C  
HETATM   14  C   UNL     1     -11.509  11.091  69.185  1.00  0.00    -0.370 A  
HETATM   15  C   UNL     1     -12.139  12.082  69.971  1.00  0.00    -0.355 A  
HETATM   16  C   UNL     1     -12.253  13.395  69.481  1.00  0.00    -0.260 A  
HETATM   17  C   UNL     1     -12.697  11.829  71.355  1.00  0.00    -0.413 C  
HETATM   18  C   UNL     1     -12.889  10.362  71.722  1.00  0.00    -0.561 C  
HETATM   19  C   UNL     1     -11.772  13.741  68.222  1.00  0.00    -0.359 A  
HETATM   20  C   UNL     1     -11.217  12.754  67.417  1.00  0.00    -0.337 A  
ENDROOT
BRANCH   4  21
HETATM   21  C   UNL     1      -9.401   8.099  72.684  1.00  0.00    -0.342 C  
HETATM   22  C   UNL     1      -8.892   8.206  73.770  1.00  0.00    -0.265 C  
ENDBRANCH   4  21
BRANCH  19  23
HETATM   23  O   UNL     1     -11.812  15.005  67.693  1.00  0.00    -0.328 OA 
BRANCH  23  24
HETATM   24  C   UNL     1     -10.555  15.676  67.605  1.00  0.00    -0.294 C  
HETATM   25  C   UNL     1     -10.251  16.196  66.199  1.00  0.00    -0.351 C  
HETATM   26  C   UNL     1      -9.197  17.255  66.447  1.00  0.00    -0.278 C  
HETATM   27  C   UNL     1      -9.649  17.943  67.729  1.00  0.00    -0.277 C  
HETATM   28  C   UNL     1     -10.585  16.961  68.439  1.00  0.00    -0.365 C  
ENDBRANCH  23  24
ENDBRANCH  19  23
TORSDOF 3
ENDMDL
MODEL        7
REMARK 921   NORMALIZED FREE ENERGY PREDICTED BY IDOCK:   -6.90 KCAL/MOL
REMARK 922        TOTAL FREE ENERGY PREDICTED BY IDOCK:   -8.48 KCAL/MOL
REMARK 923 INTER-LIGAND FREE ENERGY PREDICTED BY IDOCK:   -8.28 KCAL/MOL
REMARK 924 INTRA-LIGAND FREE ENERGY PREDICTED BY IDOCK:   -0.21 KCAL/MOL
REMARK 927      BINDING AFFINITY PREDICTED BY RF-SCORE:    0.00 PKD
ROOT
HETATM    1  C   UNL     1      -9.412   7.593  71.384  1.00  0.00    -0.166 C  
HETATM    2  C   UNL     1      -8.866   8.162  72.559  1.00  0.00    -0.272 C  
HETATM    3  C   UNL     1     -10.313   8.419  72.333  1.00  0.00    -0.399 C  
HETATM    4  C   UNL     1     -11.152   7.345  70.790  1.00  0.00    -0.265 C  
HETATM    5  C   UNL     1     -11.128   7.030  72.123  1.00  0.00    -0.279 C  
HETATM    6  C   UNL     1     -12.034  11.932  69.125  1.00  0.00    -0.336 A  
HETATM    7  O   UNL     1     -12.518   7.201  70.400  1.00  0.00    -0.604 OA 
HETATM    8  C   UNL     1     -12.470   8.325  72.328  1.00  0.00    -0.384 C  
HETATM    9  C   UNL     1     -11.263   5.727  72.850  1.00  0.00    -0.319 C  
HETATM   10  C   UNL     1      -9.638   8.949  70.153  1.00  0.00    -0.199 C  
HETATM   11  H   UNL     1     -12.906   6.706  69.688  1.00  0.00     0.000 HD 
HETATM   12  C   UNL     1     -12.327   9.593  71.105  1.00  0.00    -0.427 C  
HETATM   13  C   UNL     1     -10.858  10.078  70.449  1.00  0.00    -0.380 C  
HETATM   14  C   UNL     1     -10.916  11.099  69.307  1.00  0.00    -0.300 A  
HETATM   15  C   UNL     1      -9.752  11.375  68.555  1.00  0.00    -0.199 A  
HETATM   16  C   UNL     1      -9.764  12.410  67.604  1.00  0.00    -0.195 A  
HETATM   17  C   UNL     1      -8.461  10.597  68.688  1.00  0.00    -0.142 C  
HETATM   18  C   UNL     1      -8.344   9.737  69.941  1.00  0.00    -0.198 C  
HETATM   19  C   UNL     1     -10.898  13.188  67.395  1.00  0.00    -0.255 A  
HETATM   20  C   UNL     1     -12.021  12.968  68.184  1.00  0.00    -0.322 A  
ENDROOT
BRANCH   4  21
HETATM   21  C   UNL     1     -10.577   6.101  70.049  1.00  0.00    -0.323 C  
HETATM   22  C   UNL     1     -10.163   5.111  69.503  1.00  0.00    -0.318 C  
ENDBRANCH   4  21
BRANCH  19  23
HETATM   23  O   UNL     1     -10.998  14.186  66.462  1.00  0.00    -0.302 OA 
BRANCH  23  24
HETATM   24  C   UNL     1     -10.265  15.377  66.753  1.00  0.00    -0.271 C  
HETATM   25  C   UNL     1     -10.418  16.451  65.676  1.00  0.00    -0.364 C  
HETATM   26  C   UNL     1     -10.016  17.720  66.400  1.00  0.00    -0.345 C  
HETATM   27  C   UNL     1     -10.609  17.561  67.795  1.00  0.00    -0.375 C  
HETATM   28  C   UNL     1     -10.843  16.062  67.995  1.00  0.00    -0.335 C  
ENDBRANCH  23  24
ENDBRANCH  19  23
TORSDOF 3
ENDMDL
MODEL        8
REMARK 921   NORMALIZED FREE ENERGY PREDICTED BY IDOCK:   -6.87 KCAL/MOL
REMARK 922        TOTAL FREE ENERGY PREDICTED BY IDOCK:   -8.45 KCAL/MOL
REMARK 923 INTER-LIGAND FREE ENERGY PREDICTED BY IDOCK:   -8.15 KCAL/MOL
REMARK 924 INTRA-LIGAND FREE ENERGY PREDICTED BY IDOCK:   -0.30 KCAL/MOL
REMARK 927      BINDING AFFINITY PREDICTED BY RF-SCORE:    0.00 PKD
ROOT
HETATM    1  C   UNL     1      -6.765  18.110  67.163  1.00  0.00    -0.205 C  
HETATM    2  C   UNL     1      -6.572  18.075  65.761  1.00  0.00    -0.298 C  
HETATM    3  C   UNL     1      -7.922  18.505  66.214  1.00  0.00    -0.273 C  
HETATM    4  C   UNL     1      -8.092  18.834  68.239  1.00  0.00    -0.324 C  
HETATM    5  C   UNL     1      -7.822  19.747  67.255  1.00  0.00    -0.309 C  
HETATM    6  C   UNL     1     -11.495  15.264  67.734  1.00  0.00    -0.312 A  
HETATM    7  O   UNL     1      -9.157  19.409  68.996  1.00  0.00    -0.358 OA 
HETATM    8  C   UNL     1      -9.647  19.648  66.831  1.00  0.00    -0.465 C  
HETATM    9  C   UNL     1      -7.158  21.091  67.285  1.00  0.00    -0.399 C  
HETATM   10  C   UNL     1      -7.783  16.642  67.628  1.00  0.00    -0.183 C  
HETATM   11  H   UNL     1      -9.236  19.560  69.931  1.00  0.00     0.000 HD 
HETATM   12  C   UNL     1     -10.311  18.061  67.233  1.00  0.00    -0.387 C  
HETATM   13  C   UNL     1      -9.409  16.643  67.173  1.00  0.00    -0.236 C  
HETATM   14  C   UNL     1     -10.094  15.368  67.674  1.00  0.00    -0.236 A  
HETATM   15  C   UNL     1      -9.331  14.194  67.873  1.00  0.00    -0.204 A  
HETATM   16  C   UNL     1      -9.977  12.988  68.195  1.00  0.00    -0.231 A  
HETATM   17  C   UNL     1      -7.822  14.148  67.783  1.00  0.00    -0.177 C  
HETATM   18  C   UNL     1      -7.172  15.345  67.097  1.00  0.00    -0.179 C  
HETATM   19  C   UNL     1     -11.362  12.915  68.307  1.00  0.00    -0.291 A  
HETATM   20  C   UNL     1     -12.120  14.049  68.041  1.00  0.00    -0.312 A  
ENDROOT
BRANCH   4  21
HETATM   21  C   UNL     1      -6.957  18.997  69.293  1.00  0.00    -0.302 C  
HETATM   22  C   UNL     1      -6.074  19.171  70.095  1.00  0.00    -0.210 C  
ENDBRANCH   4  21
BRANCH  19  23
HETATM   23  O   UNL     1     -12.058  11.787  68.654  1.00  0.00    -0.406 OA 
BRANCH  23  24
HETATM   24  C   UNL     1     -11.626  11.141  69.852  1.00  0.00    -0.337 C  
HETATM   25  C   UNL     1     -12.781  10.779  70.786  1.00  0.00    -0.451 C  
HETATM   26  C   UNL     1     -12.179   9.709  71.674  1.00  0.00    -0.484 C  
HETATM   27  C   UNL     1     -11.312   8.883  70.732  1.00  0.00    -0.325 C  
HETATM   28  C   UNL     1     -11.019   9.773  69.523  1.00  0.00    -0.256 C  
ENDBRANCH  23  24
ENDBRANCH  19  23
TORSDOF 3
ENDMDL
MODEL        9
REMARK 921   NORMALIZED FREE ENERGY PREDICTED BY IDOCK:   -6.85 KCAL/MOL
REMARK 922        TOTAL FREE ENERGY PREDICTED BY IDOCK:   -8.43 KCAL/MOL
REMARK 923 INTER-LIGAND FREE ENERGY PREDICTED BY IDOCK:   -8.12 KCAL/MOL
REMARK 924 INTRA-LIGAND FREE ENERGY PREDICTED BY IDOCK:   -0.30 KCAL/MOL
REMARK 927      BINDING AFFINITY PREDICTED BY RF-SCORE:    0.00 PKD
ROOT
HETATM    1  C   UNL     1     -11.750   7.223  72.201  1.00  0.00    -0.323 C  
HETATM    2  C   UNL     1     -12.959   6.641  71.749  1.00  0.00    -0.191 C  
HETATM    3  C   UNL     1     -11.830   6.613  70.781  1.00  0.00    -0.441 C  
HETATM    4  C   UNL     1     -10.012   7.191  71.554  1.00  0.00    -0.182 C  
HETATM    5  C   UNL     1     -10.515   5.922  71.436  1.00  0.00    -0.291 C  
HETATM    6  C   UNL     1     -10.474  10.612  67.995  1.00  0.00    -0.228 A  
HETATM    7  O   UNL     1      -8.703   7.126  70.987  1.00  0.00    -0.138 OA 
HETATM    8  C   UNL     1     -10.102   6.061  69.611  1.00  0.00    -0.244 C  
HETATM    9  C   UNL     1     -10.199   4.645  72.153  1.00  0.00    -0.259 C  
HETATM   10  C   UNL     1     -11.573   8.865  71.376  1.00  0.00    -0.382 C  
HETATM   11  H   UNL     1      -7.864   7.392  71.344  1.00  0.00     0.000 HD 
HETATM   12  C   UNL     1     -10.179   7.740  69.064  1.00  0.00    -0.213 C  
HETATM   13  C   UNL     1     -11.228   8.875  69.724  1.00  0.00    -0.018 C  
HETATM   14  C   UNL     1     -11.084  10.318  69.228  1.00  0.00    -0.293 A  
HETATM   15  C   UNL     1     -11.762  11.361  69.899  1.00  0.00    -0.424 A  
HETATM   16  C   UNL     1     -11.747  12.661  69.365  1.00  0.00    -0.387 A  
HETATM   17  C   UNL     1     -12.507  11.176  71.203  1.00  0.00    -0.498 C  
HETATM   18  C   UNL     1     -12.817   9.731  71.578  1.00  0.00    -0.502 C  
HETATM   19  C   UNL     1     -11.089  12.946  68.173  1.00  0.00    -0.253 A  
HETATM   20  C   UNL     1     -10.483  11.910  67.473  1.00  0.00    -0.233 A  
ENDROOT
BRANCH   4  21
HETATM   21  C   UNL     1      -9.599   7.346  73.049  1.00  0.00    -0.242 C  
HETATM   22  C   UNL     1      -9.260   7.419  74.203  1.00  0.00    -0.250 C  
ENDBRANCH   4  21
BRANCH  19  23
HETATM   23  O   UNL     1     -10.998  14.193  67.611  1.00  0.00    -0.259 OA 
BRANCH  23  24
HETATM   24  C   UNL     1     -11.061  14.233  66.186  1.00  0.00    -0.324 C  
HETATM   25  C   UNL     1     -12.478  14.043  65.644  1.00  0.00    -0.531 C  
HETATM   26  C   UNL     1     -12.387  14.611  64.243  1.00  0.00    -0.375 C  
HETATM   27  C   UNL     1     -11.493  15.836  64.392  1.00  0.00    -0.268 C  
HETATM   28  C   UNL     1     -10.695  15.633  65.682  1.00  0.00    -0.376 C  
ENDBRANCH  23  24
ENDBRANCH  19  23
TORSDOF 3
ENDMDL
MODEL       10
REMARK 921   NORMALIZED FREE ENERGY PREDICTED BY IDOCK:   -6.84 KCAL/MOL
REMARK 922        TOTAL FREE ENERGY PREDICTED BY IDOCK:   -8.42 KCAL/MOL
REMARK 923 INTER-LIGAND FREE ENERGY PREDICTED BY IDOCK:   -8.08 KCAL/MOL
REMARK 924 INTRA-LIGAND FREE ENERGY PREDICTED BY IDOCK:   -0.34 KCAL/MOL
REMARK 927      BINDING AFFINITY PREDICTED BY RF-SCORE:    0.00 PKD
ROOT
HETATM    1  C   UNL     1      -9.601  18.689  65.917  1.00  0.00     0.091 C  
HETATM    2  C   UNL     1     -10.833  19.359  65.729  1.00  0.00    -0.375 C  
HETATM    3  C   UNL     1     -10.522  18.967  67.129  1.00  0.00    -0.522 C  
HETATM    4  C   UNL     1      -8.610  18.266  67.428  1.00  0.00    -0.249 C  
HETATM    5  C   UNL     1      -9.075  19.544  67.590  1.00  0.00    -0.381 C  
HETATM    6  C   UNL     1     -11.151  14.269  68.896  1.00  0.00    -0.283 A  
HETATM    7  O   UNL     1      -7.912  17.968  68.637  1.00  0.00    -0.304 OA 
HETATM    8  C   UNL     1      -9.853  18.926  69.183  1.00  0.00    -0.292 C  
HETATM    9  C   UNL     1      -8.384  20.873  67.591  1.00  0.00    -0.036 C  
HETATM   10  C   UNL     1      -9.968  16.899  66.179  1.00  0.00    -0.332 C  
HETATM   11  H   UNL     1      -7.030  17.645  68.775  1.00  0.00     0.000 HD 
HETATM   12  C   UNL     1     -10.255  17.209  69.074  1.00  0.00    -0.315 C  
HETATM   13  C   UNL     1     -10.695  16.455  67.637  1.00  0.00    -0.312 C  
HETATM   14  C   UNL     1     -10.887  14.936  67.686  1.00  0.00    -0.286 A  
HETATM   15  C   UNL     1     -11.025  14.208  66.482  1.00  0.00    -0.309 A  
HETATM   16  C   UNL     1     -11.343  12.839  66.526  1.00  0.00    -0.369 A  
HETATM   17  C   UNL     1     -10.828  14.811  65.108  1.00  0.00    -0.417 C  
HETATM   18  C   UNL     1     -10.840  16.335  65.056  1.00  0.00    -0.337 C  
HETATM   19  C   UNL     1     -11.544  12.181  67.735  1.00  0.00    -0.342 A  
HETATM   20  C   UNL     1     -11.481  12.909  68.917  1.00  0.00    -0.350 A  
ENDROOT
BRANCH   4  21
HETATM   21  C   UNL     1      -7.376  18.380  66.483  1.00  0.00    -0.262 C  
HETATM   22  C   UNL     1      -6.411  18.421  65.763  1.00  0.00    -0.305 C  
ENDBRANCH   4  21
BRANCH  19  23
HETATM   23  O   UNL     1     -11.818  10.845  67.859  1.00  0.00    -0.590 OA 
BRANCH  23  24
HETATM   24  C   UNL     1     -10.717  10.023  68.248  1.00  0.00    -0.240 C  
HETATM   25  C   UNL     1     -10.903   9.387  69.626  1.00  0.00    -0.245 C  
HETATM   26  C   UNL     1      -9.930   8.226  69.600  1.00  0.00    -0.193 C  
HETATM   27  C   UNL     1     -10.038   7.676  68.183  1.00  0.00    -0.220 C  
HETATM   28  C   UNL     1     -10.618   8.804  67.326  1.00  0.00    -0.303 C  
ENDBRANCH  23  24
ENDBRANCH  19  23
TORSDOF 3
ENDMDL
MODEL       11
REMARK 921   NORMALIZED FREE ENERGY PREDICTED BY IDOCK:   -6.82 KCAL/MOL
REMARK 922        TOTAL FREE ENERGY PREDICTED BY IDOCK:   -8.39 KCAL/MOL
REMARK 923 INTER-LIGAND FREE ENERGY PREDICTED BY IDOCK:   -8.03 KCAL/MOL
REMARK 924 INTRA-LIGAND FREE ENERGY PREDICTED BY IDOCK:   -0.37 KCAL/MOL
REMARK 927      BINDING AFFINITY PREDICTED BY RF-SCORE:    0.00 PKD
ROOT
HETATM    1  C   UNL     1     -10.425   9.451  67.792  1.00  0.00    -0.310 C  
HETATM    2  C   UNL     1     -10.188   8.763  66.578  1.00  0.00    -0.314 C  
HETATM    3  C   UNL     1      -9.034   9.527  67.120  1.00  0.00    -0.148 C  
HETATM    4  C   UNL     1      -9.302  10.271  69.021  1.00  0.00    -0.189 C  
HETATM    5  C   UNL     1      -8.711   9.092  68.651  1.00  0.00    -0.133 C  
HETATM    6  C   UNL     1      -8.540  14.535  66.609  1.00  0.00    -0.092 A  
HETATM    7  O   UNL     1      -8.374  10.888  69.913  1.00  0.00    -0.275 OA 
HETATM    8  C   UNL     1      -7.233  10.133  68.148  1.00  0.00    -0.081 C  
HETATM    9  C   UNL     1      -8.475   7.810  69.392  1.00  0.00    -0.134 C  
HETATM   10  C   UNL     1     -10.601  11.246  67.398  1.00  0.00    -0.262 C  
HETATM   11  H   UNL     1      -8.498  11.232  70.789  1.00  0.00     0.000 HD 
HETATM   12  C   UNL     1      -7.733  11.755  67.655  1.00  0.00    -0.137 C  
HETATM   13  C   UNL     1      -9.212  12.082  66.928  1.00  0.00    -0.197 C  
HETATM   14  C   UNL     1      -9.547  13.556  66.678  1.00  0.00    -0.282 A  
HETATM   15  C   UNL     1     -10.857  13.922  66.291  1.00  0.00    -0.290 A  
HETATM   16  C   UNL     1     -11.132  15.251  65.925  1.00  0.00    -0.287 A  
HETATM   17  C   UNL     1     -12.024  12.959  66.264  1.00  0.00    -0.472 C  
HETATM   18  C   UNL     1     -11.652  11.481  66.312  1.00  0.00    -0.009 C  
HETATM   19  C   UNL     1     -10.134  16.221  65.917  1.00  0.00    -0.357 A  
HETATM   20  C   UNL     1      -8.831  15.850  66.227  1.00  0.00    -0.386 A  
ENDROOT
BRANCH   4  21
HETATM   21  C   UNL     1     -10.393   9.890  70.066  1.00  0.00    -0.320 C  
HETATM   22  C   UNL     1     -11.206   9.611  70.910  1.00  0.00    -0.422 C  
ENDBRANCH   4  21
BRANCH  19  23
HETATM   23  O   UNL     1     -10.333  17.541  65.609  1.00  0.00    -0.601 OA 
BRANCH  23  24
HETATM   24  C   UNL     1      -9.706  18.479  66.483  1.00  0.00    -0.343 C  
HETATM   25  C   UNL     1      -9.847  19.925  66.010  1.00  0.00    -0.515 C  
HETATM   26  C   UNL     1      -9.588  20.724  67.270  1.00  0.00    -0.494 C  
HETATM   27  C   UNL     1     -10.274  19.924  68.371  1.00  0.00    -0.557 C  
HETATM   28  C   UNL     1     -10.422  18.497  67.838  1.00  0.00    -0.419 C  
ENDBRANCH  23  24
ENDBRANCH  19  23
TORSDOF 3
ENDMDL
MODEL       12
REMARK 921   NORMALIZED FREE ENERGY PREDICTED BY IDOCK:   -6.66 KCAL/MOL
REMARK 922        TOTAL FREE ENERGY PREDICTED BY IDOCK:   -8.21 KCAL/MOL
REMARK 923 INTER-LIGAND FREE ENERGY PREDICTED BY IDOCK:   -8.54 KCAL/MOL
REMARK 924 INTRA-LIGAND FREE ENERGY PREDICTED BY IDOCK:    0.33 KCAL/MOL
REMARK 927      BINDING AFFINITY PREDICTED BY RF-SCORE:    0.00 PKD
ROOT
HETATM    1  C   UNL     1     -10.983   7.022  71.561  1.00  0.00    -0.260 C  
HETATM    2  C   UNL     1     -11.892   6.313  70.740  1.00  0.00    -0.205 C  
HETATM    3  C   UNL     1     -10.775   6.990  70.028  1.00  0.00    -0.267 C  
HETATM    4  C   UNL     1      -9.309   7.760  71.251  1.00  0.00    -0.152 C  
HETATM    5  C   UNL     1      -9.338   6.538  70.633  1.00  0.00    -0.166 C  
HETATM    6  C   UNL     1     -10.739  11.944  69.007  1.00  0.00    -0.197 A  
HETATM    7  O   UNL     1      -8.031   8.309  70.929  1.00  0.00    -0.088 OA 
HETATM    8  C   UNL     1      -8.905   7.462  69.058  1.00  0.00    -0.132 C  
HETATM    9  C   UNL     1      -8.639   5.246  70.928  1.00  0.00    -0.133 C  
HETATM   10  C   UNL     1     -11.341   8.823  71.372  1.00  0.00    -0.364 C  
HETATM   11  H   UNL     1      -7.355   8.665  71.493  1.00  0.00     0.000 HD 
HETATM   12  C   UNL     1      -9.528   9.115  69.095  1.00  0.00    -0.156 C  
HETATM   13  C   UNL     1     -10.936   9.550  69.903  1.00  0.00    -0.263 C  
HETATM   14  C   UNL     1     -11.273  11.044  69.947  1.00  0.00    -0.327 A  
HETATM   15  C   UNL     1     -12.302  11.506  70.799  1.00  0.00    -0.472 A  
HETATM   16  C   UNL     1     -12.709  12.850  70.738  1.00  0.00    -0.229 A  
HETATM   17  C   UNL     1     -13.004  10.635  71.818  1.00  0.00    -0.577 C  
HETATM   18  C   UNL     1     -12.816   9.133  71.632  1.00  0.00    -0.431 C  
HETATM   19  C   UNL     1     -12.130  13.742  69.841  1.00  0.00    -0.348 A  
HETATM   20  C   UNL     1     -11.169  13.275  68.952  1.00  0.00    -0.322 A  
ENDROOT
BRANCH   4  21
HETATM   21  C   UNL     1      -9.052   7.467  72.759  1.00  0.00    -0.184 C  
HETATM   22  C   UNL     1      -8.895   7.264  73.936  1.00  0.00    -0.245 C  
ENDBRANCH   4  21
BRANCH  19  23
HETATM   23  O   UNL     1     -12.446  15.072  69.750  1.00  0.00    -0.266 OA 
BRANCH  23  24
HETATM   24  C   UNL     1     -12.530  15.771  70.992  1.00  0.00    -0.420 C  
HETATM   25  C   UNL     1     -13.802  15.449  71.775  1.00  0.00    -0.620 C  
HETATM   26  C   UNL     1     -13.448  15.863  73.188  1.00  0.00    -0.650 C  
HETATM   27  C   UNL     1     -11.995  15.433  73.353  1.00  0.00    -0.556 C  
HETATM   28  C   UNL     1     -11.423  15.297  71.940  1.00  0.00    -0.504 C  
ENDBRANCH  23  24
ENDBRANCH  19  23
TORSDOF 3
ENDMDL
MODEL       13
REMARK 921   NORMALIZED FREE ENERGY PREDICTED BY IDOCK:   -6.57 KCAL/MOL
REMARK 922        TOTAL FREE ENERGY PREDICTED BY IDOCK:   -8.10 KCAL/MOL
REMARK 923 INTER-LIGAND FREE ENERGY PREDICTED BY IDOCK:   -7.82 KCAL/MOL
REMARK 924 INTRA-LIGAND FREE ENERGY PREDICTED BY IDOCK:   -0.28 KCAL/MOL
REMARK 927      BINDING AFFINITY PREDICTED BY RF-SCORE:    0.00 PKD
ROOT
HETATM    1  C   UNL     1     -11.167  14.301  68.177  1.00  0.00    -0.295 C  
HETATM    2  C   UNL     1     -10.364  15.048  69.071  1.00  0.00    -0.243 C  
HETATM    3  C   UNL     1      -9.684  13.916  68.389  1.00  0.00    -0.226 C  
HETATM    4  C   UNL     1     -10.773  13.032  66.882  1.00  0.00    -0.262 C  
HETATM    5  C   UNL     1      -9.837  14.027  66.776  1.00  0.00    -0.275 C  
HETATM    6  C   UNL     1     -10.194   9.098  69.844  1.00  0.00    -0.222 A  
HETATM    7  O   UNL     1     -10.388  12.056  65.913  1.00  0.00    -0.230 OA 
HETATM    8  C   UNL     1      -8.555  12.679  67.025  1.00  0.00    -0.181 C  
HETATM    9  C   UNL     1      -9.595  15.071  65.729  1.00  0.00    -0.327 C  
HETATM   10  C   UNL     1     -11.594  12.706  69.001  1.00  0.00    -0.367 C  
HETATM   11  H   UNL     1     -10.891  11.648  65.218  1.00  0.00     0.000 HD 
HETATM   12  C   UNL     1      -9.201  11.355  68.000  1.00  0.00    -0.171 C  
HETATM   13  C   UNL     1     -10.358  11.573  69.199  1.00  0.00    -0.086 C  
HETATM   14  C   UNL     1     -10.909  10.308  69.867  1.00  0.00    -0.355 A  
HETATM   15  C   UNL     1     -12.041  10.396  70.708  1.00  0.00    -0.463 A  
HETATM   16  C   UNL     1     -12.462   9.267  71.432  1.00  0.00    -0.418 A  
HETATM   17  C   UNL     1     -12.871  11.651  70.873  1.00  0.00    -0.264 C  
HETATM   18  C   UNL     1     -12.215  12.936  70.380  1.00  0.00    -0.381 C  
HETATM   19  C   UNL     1     -11.776   8.059  71.354  1.00  0.00    -0.287 A  
HETATM   20  C   UNL     1     -10.620   7.989  70.584  1.00  0.00    -0.227 A  
ENDROOT
BRANCH   4  21
HETATM   21  C   UNL     1     -12.046  13.569  66.163  1.00  0.00    -0.482 C  
HETATM   22  C   UNL     1     -13.029  14.025  65.636  1.00  0.00    -0.337 C  
ENDBRANCH   4  21
BRANCH  19  23
HETATM   23  O   UNL     1     -12.147   6.908  71.998  1.00  0.00    -0.304 OA 
BRANCH  23  24
HETATM   24  C   UNL     1     -11.077   6.124  72.525  1.00  0.00    -0.274 C  
HETATM   25  C   UNL     1     -10.460   6.726  73.788  1.00  0.00    -0.383 C  
HETATM   26  C   UNL     1      -9.756   5.544  74.421  1.00  0.00    -0.194 C  
HETATM   27  C   UNL     1     -10.704   4.373  74.189  1.00  0.00    -0.313 C  
HETATM   28  C   UNL     1     -11.607   4.775  73.021  1.00  0.00    -0.252 C  
ENDBRANCH  23  24
ENDBRANCH  19  23
TORSDOF 3
ENDMDL
MODEL       14
REMARK 921   NORMALIZED FREE ENERGY PREDICTED BY IDOCK:   -6.49 KCAL/MOL
REMARK 922        TOTAL FREE ENERGY PREDICTED BY IDOCK:   -8.01 KCAL/MOL
REMARK 923 INTER-LIGAND FREE ENERGY PREDICTED BY IDOCK:   -7.65 KCAL/MOL
REMARK 924 INTRA-LIGAND FREE ENERGY PREDICTED BY IDOCK:   -0.36 KCAL/MOL
REMARK 927      BINDING AFFINITY PREDICTED BY RF-SCORE:    0.00 PKD
ROOT
HETATM    1  C   UNL     1      -8.674  19.867  66.769  1.00  0.00    -0.407 C  
HETATM    2  C   UNL     1      -9.575  20.294  67.774  1.00  0.00    -0.486 C  
HETATM    3  C   UNL     1      -8.504  19.365  68.223  1.00  0.00    -0.376 C  
HETATM    4  C   UNL     1      -7.038  18.993  66.826  1.00  0.00    -0.205 C  
HETATM    5  C   UNL     1      -7.035  19.930  67.825  1.00  0.00    -0.298 C  
HETATM    6  C   UNL     1      -8.687  14.364  67.486  1.00  0.00    -0.203 A  
HETATM    7  O   UNL     1      -5.791  18.309  66.954  1.00  0.00    -0.145 OA 
HETATM    8  C   UNL     1      -6.679  18.505  68.993  1.00  0.00    -0.288 C  
HETATM    9  C   UNL     1      -6.278  21.212  67.998  1.00  0.00    -0.347 C  
HETATM   10  C   UNL     1      -9.106  18.128  66.326  1.00  0.00    -0.199 C  
HETATM   11  H   UNL     1      -5.115  18.138  66.310  1.00  0.00     0.000 HD 
HETATM   12  C   UNL     1      -7.365  16.994  68.385  1.00  0.00    -0.213 C  
HETATM   13  C   UNL     1      -8.768  16.925  67.462  1.00  0.00    -0.214 C  
HETATM   14  C   UNL     1      -9.161  15.553  66.905  1.00  0.00    -0.257 A  
HETATM   15  C   UNL     1     -10.185  15.458  65.935  1.00  0.00    -0.365 A  
HETATM   16  C   UNL     1     -10.645  14.193  65.528  1.00  0.00    -0.335 A  
HETATM   17  C   UNL     1     -10.826  16.656  65.269  1.00  0.00    -0.194 C  
HETATM   18  C   UNL     1     -10.584  17.993  65.960  1.00  0.00    -0.258 C  
HETATM   19  C   UNL     1     -10.125  13.024  66.072  1.00  0.00    -0.284 A  
HETATM   20  C   UNL     1      -9.169  13.115  67.077  1.00  0.00    -0.233 A  
ENDROOT
BRANCH   4  21
HETATM   21  C   UNL     1      -6.731  19.772  65.512  1.00  0.00    -0.315 C  
HETATM   22  C   UNL     1      -6.448  20.352  64.495  1.00  0.00    -0.309 C  
ENDBRANCH   4  21
BRANCH  19  23
HETATM   23  O   UNL     1     -10.494  11.759  65.698  1.00  0.00    -0.247 OA 
BRANCH  23  24
HETATM   24  C   UNL     1      -9.975  10.701  66.504  1.00  0.00    -0.215 C  
HETATM   25  C   UNL     1     -11.021  10.093  67.440  1.00  0.00    -0.295 C  
HETATM   26  C   UNL     1     -10.426   8.744  67.786  1.00  0.00    -0.292 C  
HETATM   27  C   UNL     1      -9.801   8.263  66.481  1.00  0.00    -0.323 C  
HETATM   28  C   UNL     1      -9.581   9.511  65.623  1.00  0.00    -0.346 C  
ENDBRANCH  23  24
ENDBRANCH  19  23
TORSDOF 3
ENDMDL
MODEL       15
REMARK 921   NORMALIZED FREE ENERGY PREDICTED BY IDOCK:   -6.48 KCAL/MOL
REMARK 922        TOTAL FREE ENERGY PREDICTED BY IDOCK:   -7.99 KCAL/MOL
REMARK 923 INTER-LIGAND FREE ENERGY PREDICTED BY IDOCK:   -7.60 KCAL/MOL
REMARK 924 INTRA-LIGAND FREE ENERGY PREDICTED BY IDOCK:   -0.39 KCAL/MOL
REMARK 927      BINDING AFFINITY PREDICTED BY RF-SCORE:    0.00 PKD
ROOT
HETATM    1  C   UNL     1      -9.094   7.548  67.730  1.00  0.00    -0.130 C  
HETATM    2  C   UNL     1     -10.174   6.764  67.259  1.00  0.00    -0.271 C  
HETATM    3  C   UNL     1      -9.791   7.915  66.398  1.00  0.00    -0.217 C  
HETATM    4  C   UNL     1      -8.044   8.859  66.941  1.00  0.00    -0.109 C  
HETATM    5  C   UNL     1      -8.213   7.861  66.018  1.00  0.00    -0.122 C  
HETATM    6  C   UNL     1     -11.170  12.683  67.372  1.00  0.00    -0.337 A  
HETATM    7  O   UNL     1      -7.288   9.865  66.266  1.00  0.00    -0.097 OA 
HETATM    8  C   UNL     1      -8.913   9.189  64.892  1.00  0.00    -0.201 C  
HETATM    9  C   UNL     1      -7.266   6.851  65.444  1.00  0.00    -0.073 C  
HETATM   10  C   UNL     1      -9.791   9.117  68.409  1.00  0.00    -0.181 C  
HETATM   11  H   UNL     1      -6.482  10.300  66.516  1.00  0.00     0.000 HD 
HETATM   12  C   UNL     1      -9.671  10.484  65.825  1.00  0.00    -0.277 C  
HETATM   13  C   UNL     1     -10.420  10.233  67.309  1.00  0.00    -0.307 C  
HETATM   14  C   UNL     1     -10.916  11.478  68.051  1.00  0.00    -0.284 A  
HETATM   15  C   UNL     1     -11.340  11.370  69.396  1.00  0.00    -0.365 A  
HETATM   16  C   UNL     1     -11.927  12.477  70.034  1.00  0.00    -0.372 A  
HETATM   17  C   UNL     1     -11.182  10.117  70.229  1.00  0.00    -0.387 C  
HETATM   18  C   UNL     1     -10.884   8.845  69.443  1.00  0.00    -0.133 C  
HETATM   19  C   UNL     1     -12.119  13.681  69.364  1.00  0.00    -0.314 A  
HETATM   20  C   UNL     1     -11.770  13.769  68.021  1.00  0.00    -0.390 A  
ENDROOT
BRANCH   4  21
HETATM   21  C   UNL     1      -6.931   8.357  67.909  1.00  0.00    -0.078 C  
HETATM   22  C   UNL     1      -6.064   8.017  68.673  1.00  0.00    -0.044 C  
ENDBRANCH   4  21
BRANCH  19  23
HETATM   23  O   UNL     1     -12.647  14.812  69.929  1.00  0.00    -0.273 OA 
BRANCH  23  24
HETATM   24  C   UNL     1     -12.695  14.823  71.355  1.00  0.00    -0.329 C  
HETATM   25  C   UNL     1     -11.812  15.907  71.975  1.00  0.00    -0.609 C  
HETATM   26  C   UNL     1     -12.390  16.064  73.366  1.00  0.00    -0.656 C  
HETATM   27  C   UNL     1     -13.896  15.947  73.163  1.00  0.00    -0.388 C  
HETATM   28  C   UNL     1     -14.096  15.218  71.832  1.00  0.00    -0.656 C  
ENDBRANCH  23  24
ENDBRANCH  19  23
TORSDOF 3
ENDMDL
MODEL       16
REMARK 921   NORMALIZED FREE ENERGY PREDICTED BY IDOCK:   -6.46 KCAL/MOL
REMARK 922        TOTAL FREE ENERGY PREDICTED BY IDOCK:   -7.97 KCAL/MOL
REMARK 923 INTER-LIGAND FREE ENERGY PREDICTED BY IDOCK:   -7.70 KCAL/MOL
REMARK 924 INTRA-LIGAND FREE ENERGY PREDICTED BY IDOCK:   -0.28 KCAL/MOL
REMARK 927      BINDING AFFINITY PREDICTED BY RF-SCORE:    0.00 PKD
ROOT
HETATM    1  C   UNL     1      -9.131  18.715  68.313  1.00  0.00    -0.347 C  
HETATM    2  C   UNL     1      -8.147  18.849  69.322  1.00  0.00     0.026 C  
HETATM    3  C   UNL     1      -7.845  17.856  68.257  1.00  0.00    -0.285 C  
HETATM    4  C   UNL     1      -9.135  17.886  66.653  1.00  0.00    -0.267 C  
HETATM    5  C   UNL     1      -7.934  18.532  66.783  1.00  0.00    -0.265 C  
HETATM    6  C   UNL     1      -9.853  13.214  68.150  1.00  0.00    -0.228 A  
HETATM    7  O   UNL     1      -9.061  17.216  65.394  1.00  0.00    -0.089 OA 
HETATM    8  C   UNL     1      -7.140  16.860  66.475  1.00  0.00    -0.281 C  
HETATM    9  C   UNL     1      -7.363  19.740  66.104  1.00  0.00    -0.307 C  
HETATM   10  C   UNL     1     -10.046  17.142  68.625  1.00  0.00    -0.329 C  
HETATM   11  H   UNL     1      -9.656  17.230  64.654  1.00  0.00     0.000 HD 
HETATM   12  C   UNL     1      -8.181  15.546  67.034  1.00  0.00    -0.275 C  
HETATM   13  C   UNL     1      -9.228  15.693  68.341  1.00  0.00    -0.191 C  
HETATM   14  C   UNL     1     -10.155  14.505  68.620  1.00  0.00    -0.244 A  
HETATM   15  C   UNL     1     -11.215  14.644  69.544  1.00  0.00    -0.300 A  
HETATM   16  C   UNL     1     -11.977  13.521  69.908  1.00  0.00    -0.416 A  
HETATM   17  C   UNL     1     -11.613  15.962  70.173  1.00  0.00    -0.357 C  
HETATM   18  C   UNL     1     -10.582  17.079  70.056  1.00  0.00     0.176 C  
HETATM   19  C   UNL     1     -11.701  12.260  69.389  1.00  0.00    -0.330 A  
HETATM   20  C   UNL     1     -10.615  12.105  68.536  1.00  0.00    -0.252 A  
ENDROOT
BRANCH   4  21
HETATM   21  C   UNL     1     -10.168  18.984  66.260  1.00  0.00    -0.510 C  
HETATM   22  C   UNL     1     -10.986  19.830  66.001  1.00  0.00    -0.258 C  
ENDBRANCH   4  21
BRANCH  19  23
HETATM   23  O   UNL     1     -12.422  11.128  69.666  1.00  0.00    -0.259 OA 
BRANCH  23  24
HETATM   24  C   UNL     1     -12.232  10.580  70.970  1.00  0.00    -0.400 C  
HETATM   25  C   UNL     1     -13.399   9.705  71.428  1.00  0.00    -0.444 C  
HETATM   26  C   UNL     1     -12.787   8.867  72.531  1.00  0.00    -0.401 C  
HETATM   27  C   UNL     1     -11.387   8.543  72.023  1.00  0.00    -0.425 C  
HETATM   28  C   UNL     1     -11.058   9.596  70.963  1.00  0.00    -0.438 C  
ENDBRANCH  23  24
ENDBRANCH  19  23
TORSDOF 3
ENDMDL
MODEL       17
REMARK 921   NORMALIZED FREE ENERGY PREDICTED BY IDOCK:   -6.39 KCAL/MOL
REMARK 922        TOTAL FREE ENERGY PREDICTED BY IDOCK:   -7.89 KCAL/MOL
REMARK 923 INTER-LIGAND FREE ENERGY PREDICTED BY IDOCK:   -7.49 KCAL/MOL
REMARK 924 INTRA-LIGAND FREE ENERGY PREDICTED BY IDOCK:   -0.40 KCAL/MOL
REMARK 927      BINDING AFFINITY PREDICTED BY RF-SCORE:    0.00 PKD
ROOT
HETATM    1  C   UNL     1     -10.652   9.261  68.229  1.00  0.00    -0.237 C  
HETATM    2  C   UNL     1     -10.401   8.530  67.043  1.00  0.00    -0.379 C  
HETATM    3  C   UNL     1      -9.196   9.011  67.770  1.00  0.00    -0.152 C  
HETATM    4  C   UNL     1      -9.566   9.808  69.631  1.00  0.00    -0.221 C  
HETATM    5  C   UNL     1      -9.212   8.523  69.318  1.00  0.00    -0.153 C  
HETATM    6  C   UNL     1      -7.502  13.769  67.479  1.00  0.00    -0.182 A  
HETATM    7  O   UNL     1      -8.664  10.201  70.666  1.00  0.00    -0.289 OA 
HETATM    8  C   UNL     1      -7.477   9.193  69.065  1.00  0.00    -0.074 C  
HETATM    9  C   UNL     1      -9.386   7.225  70.048  1.00  0.00    -0.154 C  
HETATM   10  C   UNL     1     -10.353  11.046  67.865  1.00  0.00    -0.213 C  
HETATM   11  H   UNL     1      -8.835  10.568  71.525  1.00  0.00     0.000 HD 
HETATM   12  C   UNL     1      -7.515  10.883  68.552  1.00  0.00    -0.103 C  
HETATM   13  C   UNL     1      -8.755  11.538  67.627  1.00  0.00    -0.142 C  
HETATM   14  C   UNL     1      -8.705  13.048  67.373  1.00  0.00    -0.205 A  
HETATM   15  C   UNL     1      -9.824  13.702  66.810  1.00  0.00    -0.271 A  
HETATM   16  C   UNL     1      -9.731  15.057  66.445  1.00  0.00    -0.305 A  
HETATM   17  C   UNL     1     -11.163  13.034  66.585  1.00  0.00    -0.341 C  
HETATM   18  C   UNL     1     -11.149  11.511  66.645  1.00  0.00    -0.355 C  
HETATM   19  C   UNL     1      -8.548  15.772  66.610  1.00  0.00    -0.287 A  
HETATM   20  C   UNL     1      -7.425  15.113  67.096  1.00  0.00    -0.176 A  
ENDROOT
BRANCH   4  21
HETATM   21  C   UNL     1     -10.858   9.694  70.495  1.00  0.00    -0.371 C  
HETATM   22  C   UNL     1     -11.876   9.643  71.137  1.00  0.00    -0.448 C  
ENDBRANCH   4  21
BRANCH  19  23
HETATM   23  O   UNL     1      -8.393  17.100  66.315  1.00  0.00    -0.300 OA 
BRANCH  23  24
HETATM   24  C   UNL     1      -9.386  17.972  66.856  1.00  0.00    -0.276 C  
HETATM   25  C   UNL     1      -9.188  18.254  68.345  1.00  0.00    -0.332 C  
HETATM   26  C   UNL     1      -9.983  19.525  68.561  1.00  0.00    -0.538 C  
HETATM   27  C   UNL     1      -9.719  20.351  67.308  1.00  0.00    -0.602 C  
HETATM   28  C   UNL     1      -9.260  19.365  66.231  1.00  0.00    -0.388 C  
ENDBRANCH  23  24
ENDBRANCH  19  23
TORSDOF 3
ENDMDL
MODEL       18
REMARK 921   NORMALIZED FREE ENERGY PREDICTED BY IDOCK:   -6.36 KCAL/MOL
REMARK 922        TOTAL FREE ENERGY PREDICTED BY IDOCK:   -7.86 KCAL/MOL
REMARK 923 INTER-LIGAND FREE ENERGY PREDICTED BY IDOCK:   -7.46 KCAL/MOL
REMARK 924 INTRA-LIGAND FREE ENERGY PREDICTED BY IDOCK:   -0.39 KCAL/MOL
REMARK 927      BINDING AFFINITY PREDICTED BY RF-SCORE:    0.00 PKD
ROOT
HETATM    1  C   UNL     1     -11.830  13.854  67.400  1.00  0.00    -0.437 C  
HETATM    2  C   UNL     1     -11.726  14.890  68.358  1.00  0.00    -0.336 C  
HETATM    3  C   UNL     1     -10.436  14.358  67.844  1.00  0.00    -0.239 C  
HETATM    4  C   UNL     1     -10.606  13.070  66.247  1.00  0.00    -0.271 C  
HETATM    5  C   UNL     1     -10.382  14.421  66.222  1.00  0.00    -0.300 C  
HETATM    6  C   UNL     1      -8.379  10.033  69.473  1.00  0.00    -0.180 A  
HETATM    7  O   UNL     1      -9.602  12.511  65.398  1.00  0.00    -0.439 OA 
HETATM    8  C   UNL     1      -8.621  14.014  66.726  1.00  0.00    -0.081 C  
HETATM    9  C   UNL     1     -10.611  15.458  65.165  1.00  0.00    -0.458 C  
HETATM   10  C   UNL     1     -11.411  12.265  68.241  1.00  0.00    -0.367 C  
HETATM   11  H   UNL     1      -9.680  11.917  64.662  1.00  0.00     0.000 HD 
HETATM   12  C   UNL     1      -8.554  12.522  67.669  1.00  0.00    -0.178 C  
HETATM   13  C   UNL     1      -9.800  12.013  68.676  1.00  0.00    -0.126 C  
HETATM   14  C   UNL     1      -9.642  10.634  69.326  1.00  0.00    -0.164 A  
HETATM   15  C   UNL     1     -10.741  10.042  69.990  1.00  0.00    -0.348 A  
HETATM   16  C   UNL     1     -10.562   8.846  70.707  1.00  0.00    -0.281 A  
HETATM   17  C   UNL     1     -12.143  10.611  69.965  1.00  0.00    -0.393 C  
HETATM   18  C   UNL     1     -12.252  12.059  69.502  1.00  0.00    -0.176 C  
HETATM   19  C   UNL     1      -9.316   8.234  70.795  1.00  0.00    -0.161 A  
HETATM   20  C   UNL     1      -8.219   8.850  70.204  1.00  0.00    -0.126 A  
ENDROOT
BRANCH   4  21
HETATM   21  C   UNL     1     -11.837  12.826  65.324  1.00  0.00    -0.442 C  
HETATM   22  C   UNL     1     -12.761  12.609  64.582  1.00  0.00    -0.458 C  
ENDBRANCH   4  21
BRANCH  19  23
HETATM   23  O   UNL     1      -9.073   7.051  71.441  1.00  0.00    -0.147 OA 
BRANCH  23  24
HETATM   24  C   UNL     1     -10.125   6.582  72.285  1.00  0.00    -0.175 C  
HETATM   25  C   UNL     1     -10.483   5.116  72.037  1.00  0.00    -0.278 C  
HETATM   26  C   UNL     1     -11.198   4.719  73.311  1.00  0.00    -0.421 C  
HETATM   27  C   UNL     1     -10.416   5.420  74.415  1.00  0.00    -0.255 C  
HETATM   28  C   UNL     1      -9.663   6.571  73.746  1.00  0.00    -0.227 C  
ENDBRANCH  23  24
ENDBRANCH  19  23
TORSDOF 3
ENDMDL
MODEL       19
REMARK 921   NORMALIZED FREE ENERGY PREDICTED BY IDOCK:   -6.31 KCAL/MOL
REMARK 922        TOTAL FREE ENERGY PREDICTED BY IDOCK:   -7.80 KCAL/MOL
REMARK 923 INTER-LIGAND FREE ENERGY PREDICTED BY IDOCK:   -7.40 KCAL/MOL
REMARK 924 INTRA-LIGAND FREE ENERGY PREDICTED BY IDOCK:   -0.40 KCAL/MOL
REMARK 927      BINDING AFFINITY PREDICTED BY RF-SCORE:    0.00 PKD
ROOT
HETATM    1  C   UNL     1     -10.161   9.059  68.893  1.00  0.00    -0.207 C  
HETATM    2  C   UNL     1     -10.249   8.650  67.541  1.00  0.00    -0.308 C  
HETATM    3  C   UNL     1      -9.002   9.368  67.916  1.00  0.00    -0.126 C  
HETATM    4  C   UNL     1      -8.761   9.691  69.934  1.00  0.00    -0.219 C  
HETATM    5  C   UNL     1      -8.274   8.656  69.181  1.00  0.00    -0.117 C  
HETATM    6  C   UNL     1      -8.735  14.398  68.378  1.00  0.00    -0.180 A  
HETATM    7  O   UNL     1      -7.636  10.179  70.666  1.00  0.00    -0.418 OA 
HETATM    8  C   UNL     1      -7.001   9.880  68.547  1.00  0.00    -0.067 C  
HETATM    9  C   UNL     1      -7.830   7.271  69.542  1.00  0.00    -0.118 C  
HETATM   10  C   UNL     1     -10.462  10.880  68.951  1.00  0.00    -0.228 C  
HETATM   11  H   UNL     1      -7.526  10.328  71.597  1.00  0.00     0.000 HD 
HETATM   12  C   UNL     1      -7.637  11.528  68.559  1.00  0.00    -0.130 C  
HETATM   13  C   UNL     1      -9.261  11.890  68.328  1.00  0.00    -0.187 C  
HETATM   14  C   UNL     1      -9.673  13.357  68.495  1.00  0.00    -0.156 A  
HETATM   15  C   UNL     1     -11.043  13.699  68.548  1.00  0.00    -0.301 A  
HETATM   16  C   UNL     1     -11.425  15.052  68.558  1.00  0.00    -0.335 A  
HETATM   17  C   UNL     1     -12.161  12.682  68.618  1.00  0.00    -0.144 C  
HETATM   18  C   UNL     1     -11.769  11.255  68.251  1.00  0.00    -0.344 C  
HETATM   19  C   UNL     1     -10.480  16.072  68.500  1.00  0.00    -0.258 A  
HETATM   20  C   UNL     1      -9.136  15.739  68.375  1.00  0.00    -0.188 A  
ENDROOT
BRANCH   4  21
HETATM   21  C   UNL     1      -9.526   9.029  71.120  1.00  0.00    -0.348 C  
HETATM   22  C   UNL     1     -10.097   8.552  72.067  1.00  0.00    -0.386 C  
ENDBRANCH   4  21
BRANCH  19  23
HETATM   23  O   UNL     1     -10.773  17.409  68.545  1.00  0.00    -0.348 OA 
BRANCH  23  24
HETATM   24  C   UNL     1      -9.889  18.259  67.813  1.00  0.00    -0.318 C  
HETATM   25  C   UNL     1     -10.349  18.506  66.376  1.00  0.00    -0.456 C  
HETATM   26  C   UNL     1      -9.599  19.764  65.989  1.00  0.00    -0.425 C  
HETATM   27  C   UNL     1      -9.631  20.622  67.248  1.00  0.00    -0.558 C  
HETATM   28  C   UNL     1      -9.895  19.668  68.415  1.00  0.00    -0.531 C  
ENDBRANCH  23  24
ENDBRANCH  19  23
TORSDOF 3
ENDMDL
MODEL       20
REMARK 921   NORMALIZED FREE ENERGY PREDICTED BY IDOCK:   -6.30 KCAL/MOL
REMARK 922        TOTAL FREE ENERGY PREDICTED BY IDOCK:   -7.79 KCAL/MOL
REMARK 923 INTER-LIGAND FREE ENERGY PREDICTED BY IDOCK:   -7.36 KCAL/MOL
REMARK 924 INTRA-LIGAND FREE ENERGY PREDICTED BY IDOCK:   -0.42 KCAL/MOL
REMARK 927      BINDING AFFINITY PREDICTED BY RF-SCORE:    0.00 PKD
ROOT
HETATM    1  C   UNL     1      -9.656  15.119  66.066  1.00  0.00    -0.365 C  
HETATM    2  C   UNL     1     -10.776  15.269  65.214  1.00  0.00    -0.433 C  
HETATM    3  C   UNL     1     -11.014  15.575  66.650  1.00  0.00    -0.248 C  
HETATM    4  C   UNL     1      -9.318  15.638  67.815  1.00  0.00    -0.202 C  
HETATM    5  C   UNL     1      -9.957  16.680  67.196  1.00  0.00    -0.268 C  
HETATM    6  C   UNL     1     -11.745  12.004  70.158  1.00  0.00    -0.316 A  
HETATM    7  O   UNL     1      -9.140  16.063  69.167  1.00  0.00    -0.229 OA 
HETATM    8  C   UNL     1     -11.234  16.549  68.565  1.00  0.00    -0.296 C  
HETATM    9  C   UNL     1      -9.487  18.039  66.773  1.00  0.00    -0.293 C  
HETATM   10  C   UNL     1      -9.883  13.558  67.025  1.00  0.00    -0.251 C  
HETATM   11  H   UNL     1      -8.357  16.092  69.704  1.00  0.00     0.000 HD 
HETATM   12  C   UNL     1     -11.351  14.895  69.173  1.00  0.00    -0.309 C  
HETATM   13  C   UNL     1     -11.080  13.540  68.216  1.00  0.00    -0.287 C  
HETATM   14  C   UNL     1     -11.095  12.180  68.923  1.00  0.00    -0.292 A  
HETATM   15  C   UNL     1     -10.647  11.029  68.237  1.00  0.00    -0.220 A  
HETATM   16  C   UNL     1     -10.792   9.762  68.831  1.00  0.00    -0.220 A  
HETATM   17  C   UNL     1      -9.983  11.065  66.878  1.00  0.00    -0.231 C  
HETATM   18  C   UNL     1     -10.153  12.367  66.104  1.00  0.00    -0.265 C  
HETATM   19  C   UNL     1     -11.386   9.611  70.080  1.00  0.00    -0.195 A  
HETATM   20  C   UNL     1     -11.892  10.733  70.725  1.00  0.00    -0.443 A  
ENDROOT
BRANCH   4  21
HETATM   21  C   UNL     1      -7.831  15.721  67.358  1.00  0.00    -0.203 C  
HETATM   22  C   UNL     1      -6.667  15.766  67.050  1.00  0.00    -0.020 C  
ENDBRANCH   4  21
BRANCH  19  23
HETATM   23  O   UNL     1     -11.526   8.418  70.737  1.00  0.00    -0.273 OA 
BRANCH  23  24
HETATM   24  C   UNL     1     -10.930   8.353  72.032  1.00  0.00    -0.323 C  
HETATM   25  C   UNL     1     -11.264   7.062  72.781  1.00  0.00    -0.294 C  
HETATM   26  C   UNL     1     -10.175   6.985  73.831  1.00  0.00    -0.388 C  
HETATM   27  C   UNL     1      -8.923   7.468  73.110  1.00  0.00    -0.218 C  
HETATM   28  C   UNL     1      -9.405   8.283  71.907  1.00  0.00    -0.282 C  
ENDBRANCH  23  24
ENDBRANCH  19  23
TORSDOF 3
ENDMDL
MODEL       21
REMARK 921   NORMALIZED FREE ENERGY PREDICTED BY IDOCK:   -6.30 KCAL/MOL
REMARK 922        TOTAL FREE ENERGY PREDICTED BY IDOCK:   -7.79 KCAL/MOL
REMARK 923 INTER-LIGAND FREE ENERGY PREDICTED BY IDOCK:   -7.42 KCAL/MOL
REMARK 924 INTRA-LIGAND FREE ENERGY PREDICTED BY IDOCK:   -0.36 KCAL/MOL
REMARK 927      BINDING AFFINITY PREDICTED BY RF-SCORE:    0.00 PKD
ROOT
HETATM    1  C   UNL     1      -8.224   6.527  71.368  1.00  0.00    -0.120 C  
HETATM    2  C   UNL     1      -7.215   7.079  72.193  1.00  0.00    -0.077 C  
HETATM    3  C   UNL     1      -8.611   7.281  72.663  1.00  0.00    -0.132 C  
HETATM    4  C   UNL     1     -10.038   6.227  71.619  1.00  0.00    -0.188 C  
HETATM    5  C   UNL     1      -9.401   5.866  72.777  1.00  0.00    -0.147 C  
HETATM    6  C   UNL     1     -11.684  10.827  70.773  1.00  0.00    -0.400 A  
HETATM    7  O   UNL     1     -11.428   6.037  71.886  1.00  0.00    -0.287 OA 
HETATM    8  C   UNL     1     -10.530   7.095  73.636  1.00  0.00    -0.412 C  
HETATM    9  C   UNL     1      -9.159   4.534  73.419  1.00  0.00    -0.116 C  
HETATM   10  C   UNL     1      -9.018   7.915  70.445  1.00  0.00    -0.147 C  
HETATM   11  H   UNL     1     -12.086   5.551  71.405  1.00  0.00     0.000 HD 
HETATM   12  C   UNL     1     -10.989   8.409  72.548  1.00  0.00    -0.388 C  
HETATM   13  C   UNL     1      -9.993   8.979  71.321  1.00  0.00    -0.381 C  
HETATM   14  C   UNL     1     -10.588  10.036  70.384  1.00  0.00    -0.343 A  
HETATM   15  C   UNL     1      -9.902  10.388  69.199  1.00  0.00    -0.237 A  
HETATM   16  C   UNL     1     -10.370  11.455  68.412  1.00  0.00    -0.209 A  
HETATM   17  C   UNL     1      -8.676   9.662  68.691  1.00  0.00    -0.124 C  
HETATM   18  C   UNL     1      -7.981   8.764  69.708  1.00  0.00    -0.095 C  
HETATM   19  C   UNL     1     -11.492  12.190  68.782  1.00  0.00    -0.307 A  
HETATM   20  C   UNL     1     -12.125  11.894  69.983  1.00  0.00    -0.366 A  
ENDROOT
BRANCH   4  21
HETATM   21  C   UNL     1      -9.837   5.035  70.636  1.00  0.00    -0.282 C  
HETATM   22  C   UNL     1      -9.698   4.144  69.838  1.00  0.00    -0.280 C  
ENDBRANCH   4  21
BRANCH  19  23
HETATM   23  O   UNL     1     -12.028  13.215  68.049  1.00  0.00    -0.351 OA 
BRANCH  23  24
HETATM   24  C   UNL     1     -11.501  13.373  66.732  1.00  0.00    -0.343 C  
HETATM   25  C   UNL     1     -12.582  13.619  65.679  1.00  0.00    -0.531 C  
HETATM   26  C   UNL     1     -11.809  14.240  64.534  1.00  0.00    -0.456 C  
HETATM   27  C   UNL     1     -10.800  15.157  65.215  1.00  0.00    -0.414 C  
HETATM   28  C   UNL     1     -10.658  14.651  66.652  1.00  0.00    -0.289 C  
ENDBRANCH  23  24
ENDBRANCH  19  23
TORSDOF 3
ENDMDL
MODEL       22
REMARK 921   NORMALIZED FREE ENERGY PREDICTED BY IDOCK:   -6.29 KCAL/MOL
REMARK 922        TOTAL FREE ENERGY PREDICTED BY IDOCK:   -7.77 KCAL/MOL
REMARK 923 INTER-LIGAND FREE ENERGY PREDICTED BY IDOCK:   -8.09 KCAL/MOL
REMARK 924 INTRA-LIGAND FREE ENERGY PREDICTED BY IDOCK:    0.32 KCAL/MOL
REMARK 927      BINDING AFFINITY PREDICTED BY RF-SCORE:    0.00 PKD
ROOT
HETATM    1  C   UNL     1      -8.358  19.999  66.438  1.00  0.00    -0.338 C  
HETATM    2  C   UNL     1      -9.227  20.798  67.218  1.00  0.00    -0.370 C  
HETATM    3  C   UNL     1      -8.382  19.838  67.977  1.00  0.00    -0.332 C  
HETATM    4  C   UNL     1      -6.923  18.903  66.866  1.00  0.00    -0.200 C  
HETATM    5  C   UNL     1      -6.809  20.038  67.624  1.00  0.00    -0.281 C  
HETATM    6  C   UNL     1      -9.452  14.909  68.364  1.00  0.00    -0.209 A  
HETATM    7  O   UNL     1      -5.838  18.071  67.278  1.00  0.00    -0.131 OA 
HETATM    8  C   UNL     1      -6.806  18.896  69.113  1.00  0.00    -0.327 C  
HETATM    9  C   UNL     1      -5.839  21.179  67.586  1.00  0.00    -0.405 C  
HETATM   10  C   UNL     1      -9.078  18.301  66.352  1.00  0.00    -0.260 C  
HETATM   11  H   UNL     1      -5.165  17.639  66.765  1.00  0.00     0.000 HD 
HETATM   12  C   UNL     1      -7.722  17.420  68.789  1.00  0.00    -0.258 C  
HETATM   13  C   UNL     1      -9.048  17.367  67.758  1.00  0.00    -0.243 C  
HETATM   14  C   UNL     1      -9.655  15.987  67.483  1.00  0.00    -0.222 A  
HETATM   15  C   UNL     1     -10.612  15.834  66.455  1.00  0.00    -0.307 A  
HETATM   16  C   UNL     1     -11.274  14.604  66.294  1.00  0.00    -0.340 A  
HETATM   17  C   UNL     1     -10.971  16.927  65.472  1.00  0.00    -0.009 C  
HETATM   18  C   UNL     1     -10.529  18.331  65.867  1.00  0.00    -0.324 C  
HETATM   19  C   UNL     1     -11.019  13.529  67.139  1.00  0.00    -0.291 A  
HETATM   20  C   UNL     1     -10.132  13.697  68.196  1.00  0.00    -0.245 A  
ENDROOT
BRANCH   4  21
HETATM   21  C   UNL     1      -6.389  19.281  65.452  1.00  0.00    -0.303 C  
HETATM   22  C   UNL     1      -5.944  19.534  64.362  1.00  0.00    -0.306 C  
ENDBRANCH   4  21
BRANCH  19  23
HETATM   23  O   UNL     1     -11.594  12.291  67.021  1.00  0.00    -0.335 OA 
BRANCH  23  24
HETATM   24  C   UNL     1     -11.661  11.767  65.695  1.00  0.00    -0.122 C  
HETATM   25  C   UNL     1     -12.606  12.554  64.787  1.00  0.00    -0.493 C  
HETATM   26  C   UNL     1     -12.144  12.169  63.396  1.00  0.00    -0.608 C  
HETATM   27  C   UNL     1     -10.625  12.113  63.508  1.00  0.00    -0.501 C  
HETATM   28  C   UNL     1     -10.308  11.932  64.994  1.00  0.00    -0.330 C  
ENDBRANCH  23  24
ENDBRANCH  19  23
TORSDOF 3
ENDMDL
MODEL       23
REMARK 921   NORMALIZED FREE ENERGY PREDICTED BY IDOCK:   -6.22 KCAL/MOL
REMARK 922        TOTAL FREE ENERGY PREDICTED BY IDOCK:   -7.69 KCAL/MOL
REMARK 923 INTER-LIGAND FREE ENERGY PREDICTED BY IDOCK:   -7.36 KCAL/MOL
REMARK 924 INTRA-LIGAND FREE ENERGY PREDICTED BY IDOCK:   -0.33 KCAL/MOL
REMARK 927      BINDING AFFINITY PREDICTED BY RF-SCORE:    0.00 PKD
ROOT
HETATM    1  C   UNL     1     -11.286  11.338  67.353  1.00  0.00    -0.370 C  
HETATM    2  C   UNL     1     -11.333  11.241  65.942  1.00  0.00     0.008 C  
HETATM    3  C   UNL     1      -9.972  11.257  66.540  1.00  0.00    -0.247 C  
HETATM    4  C   UNL     1      -9.925  11.099  68.592  1.00  0.00    -0.205 C  
HETATM    5  C   UNL     1      -9.814  10.097  67.665  1.00  0.00    -0.201 C  
HETATM    6  C   UNL     1      -7.676  15.489  68.091  1.00  0.00    -0.126 A  
HETATM    7  O   UNL     1      -8.824  10.907  69.480  1.00  0.00    -0.391 OA 
HETATM    8  C   UNL     1      -8.063  10.713  67.390  1.00  0.00    -0.112 C  
HETATM    9  C   UNL     1     -10.056   8.620  67.747  1.00  0.00    -0.266 C  
HETATM   10  C   UNL     1     -10.794  13.064  67.783  1.00  0.00    -0.257 C  
HETATM   11  H   UNL     1      -8.802  10.835  70.427  1.00  0.00     0.000 HD 
HETATM   12  C   UNL     1      -7.936  12.444  67.718  1.00  0.00    -0.156 C  
HETATM   13  C   UNL     1      -9.200  13.524  67.469  1.00  0.00    -0.219 C  
HETATM   14  C   UNL     1      -8.972  14.970  67.922  1.00  0.00    -0.175 A  
HETATM   15  C   UNL     1     -10.060  15.872  67.961  1.00  0.00    -0.230 A  
HETATM   16  C   UNL     1      -9.831  17.231  68.238  1.00  0.00    -0.304 A  
HETATM   17  C   UNL     1     -11.500  15.461  67.741  1.00  0.00    -0.284 C  
HETATM   18  C   UNL     1     -11.698  14.092  67.100  1.00  0.00    -0.430 C  
HETATM   19  C   UNL     1      -8.547  17.718  68.460  1.00  0.00    -0.291 A  
HETATM   20  C   UNL     1      -7.468  16.849  68.351  1.00  0.00    -0.206 A  
ENDROOT
BRANCH   4  21
HETATM   21  C   UNL     1     -11.067  10.660  69.557  1.00  0.00    -0.328 C  
HETATM   22  C   UNL     1     -11.934  10.355  70.336  1.00  0.00    -0.409 C  
ENDBRANCH   4  21
BRANCH  19  23
HETATM   23  O   UNL     1      -8.250  19.018  68.773  1.00  0.00    -0.354 OA 
BRANCH  23  24
HETATM   24  C   UNL     1      -6.947  19.461  68.396  1.00  0.00    -0.288 C  
HETATM   25  C   UNL     1      -6.965  20.760  67.590  1.00  0.00    -0.375 C  
HETATM   26  C   UNL     1      -5.551  21.280  67.747  1.00  0.00    -0.394 C  
HETATM   27  C   UNL     1      -5.194  20.965  69.195  1.00  0.00    -0.386 C  
HETATM   28  C   UNL     1      -6.142  19.849  69.640  1.00  0.00    -0.366 C  
ENDBRANCH  23  24
ENDBRANCH  19  23
TORSDOF 3
ENDMDL
MODEL       24
REMARK 921   NORMALIZED FREE ENERGY PREDICTED BY IDOCK:   -6.18 KCAL/MOL
REMARK 922        TOTAL FREE ENERGY PREDICTED BY IDOCK:   -7.64 KCAL/MOL
REMARK 923 INTER-LIGAND FREE ENERGY PREDICTED BY IDOCK:   -7.65 KCAL/MOL
REMARK 924 INTRA-LIGAND FREE ENERGY PREDICTED BY IDOCK:    0.01 KCAL/MOL
REMARK 927      BINDING AFFINITY PREDICTED BY RF-SCORE:    0.00 PKD
ROOT
HETATM    1  C   UNL     1      -5.986  18.371  67.434  1.00  0.00    -0.170 C  
HETATM    2  C   UNL     1      -5.589  17.652  66.280  1.00  0.00    -0.245 C  
HETATM    3  C   UNL     1      -6.905  18.340  66.189  1.00  0.00    -0.291 C  
HETATM    4  C   UNL     1      -7.327  19.613  67.750  1.00  0.00    -0.271 C  
HETATM    5  C   UNL     1      -6.765  19.919  66.540  1.00  0.00    -0.225 C  
HETATM    6  C   UNL     1     -11.146  16.488  68.231  1.00  0.00    -0.321 A  
HETATM    7  O   UNL     1      -8.388  20.554  67.916  1.00  0.00    -0.167 OA 
HETATM    8  C   UNL     1      -8.496  19.756  65.833  1.00  0.00    -0.187 C  
HETATM    9  C   UNL     1      -5.905  21.062  66.090  1.00  0.00    -0.293 C  
HETATM   10  C   UNL     1      -7.287  17.382  68.293  1.00  0.00    -0.214 C  
HETATM   11  H   UNL     1      -8.583  21.141  68.636  1.00  0.00     0.000 HD 
HETATM   12  C   UNL     1      -9.461  18.608  66.767  1.00  0.00    -0.324 C  
HETATM   13  C   UNL     1      -8.803  17.278  67.556  1.00  0.00    -0.219 C  
HETATM   14  C   UNL     1      -9.754  16.452  68.428  1.00  0.00    -0.229 A  
HETATM   15  C   UNL     1      -9.230  15.469  69.299  1.00  0.00    -0.268 A  
HETATM   16  C   UNL     1     -10.104  14.615  69.994  1.00  0.00     0.334 A  
HETATM   17  C   UNL     1      -7.752  15.280  69.562  1.00  0.00    -0.212 C  
HETATM   18  C   UNL     1      -6.820  15.950  68.558  1.00  0.00    -0.124 C  
HETATM   19  C   UNL     1     -11.483  14.702  69.831  1.00  0.00    -0.274 A  
HETATM   20  C   UNL     1     -11.998  15.618  68.921  1.00  0.00    -0.298 A  
ENDROOT
BRANCH   4  21
HETATM   21  C   UNL     1      -6.355  20.184  68.826  1.00  0.00    -0.348 C  
HETATM   22  C   UNL     1      -5.631  20.667  69.659  1.00  0.00    -0.400 C  
ENDBRANCH   4  21
BRANCH  19  23
HETATM   23  O   UNL     1     -12.397  13.932  70.500  1.00  0.00    -0.330 OA 
BRANCH  23  24
HETATM   24  C   UNL     1     -12.662  14.321  71.848  1.00  0.00    -0.338 C  
HETATM   25  C   UNL     1     -11.697  15.389  72.363  1.00  0.00    -0.565 C  
HETATM   26  C   UNL     1     -12.443  15.985  73.539  1.00  0.00    -0.682 C  
HETATM   27  C   UNL     1     -13.893  16.039  73.075  1.00  0.00    -0.389 C  
HETATM   28  C   UNL     1     -14.020  15.026  71.935  1.00  0.00    -0.604 C  
ENDBRANCH  23  24
ENDBRANCH  19  23
TORSDOF 3
ENDMDL
MODEL       25
REMARK 921   NORMALIZED FREE ENERGY PREDICTED BY IDOCK:   -6.15 KCAL/MOL
REMARK 922        TOTAL FREE ENERGY PREDICTED BY IDOCK:   -7.61 KCAL/MOL
REMARK 923 INTER-LIGAND FREE ENERGY PREDICTED BY IDOCK:   -7.83 KCAL/MOL
REMARK 924 INTRA-LIGAND FREE ENERGY PREDICTED BY IDOCK:    0.22 KCAL/MOL
REMARK 927      BINDING AFFINITY PREDICTED BY RF-SCORE:    0.00 PKD
ROOT
HETATM    1  C   UNL     1      -8.355  19.757  66.503  1.00  0.00    -0.373 C  
HETATM    2  C   UNL     1      -9.280  20.440  67.329  1.00  0.00    -0.525 C  
HETATM    3  C   UNL     1      -8.262  19.624  68.042  1.00  0.00    -0.347 C  
HETATM    4  C   UNL     1      -6.755  18.884  66.851  1.00  0.00    -0.194 C  
HETATM    5  C   UNL     1      -6.759  20.038  67.588  1.00  0.00    -0.276 C  
HETATM    6  C   UNL     1      -8.592  14.602  68.547  1.00  0.00    -0.170 A  
HETATM    7  O   UNL     1      -5.539  18.223  67.201  1.00  0.00    -0.134 OA 
HETATM    8  C   UNL     1      -6.501  18.937  69.086  1.00  0.00    -0.313 C  
HETATM    9  C   UNL     1      -5.965  21.305  67.477  1.00  0.00    -0.427 C  
HETATM   10  C   UNL     1      -8.831  17.974  66.480  1.00  0.00    -0.276 C  
HETATM   11  H   UNL     1      -4.844  17.881  66.652  1.00  0.00     0.000 HD 
HETATM   12  C   UNL     1      -7.215  17.340  68.835  1.00  0.00    -0.243 C  
HETATM   13  C   UNL     1      -8.581  17.080  67.891  1.00  0.00    -0.207 C  
HETATM   14  C   UNL     1      -9.000  15.623  67.670  1.00  0.00    -0.183 A  
HETATM   15  C   UNL     1      -9.987  15.316  66.706  1.00  0.00    -0.249 A  
HETATM   16  C   UNL     1     -10.475  14.002  66.599  1.00  0.00    -0.272 A  
HETATM   17  C   UNL     1     -10.558  16.328  65.737  1.00  0.00    -0.336 C  
HETATM   18  C   UNL     1     -10.297  17.788  66.089  1.00  0.00    -0.340 C  
HETATM   19  C   UNL     1     -10.018  12.990  67.438  1.00  0.00    -0.228 A  
HETATM   20  C   UNL     1      -9.101  13.303  68.434  1.00  0.00    -0.137 A  
ENDROOT
BRANCH   4  21
HETATM   21  C   UNL     1      -6.368  19.307  65.402  1.00  0.00    -0.303 C  
HETATM   22  C   UNL     1      -6.035  19.664  64.301  1.00  0.00    -0.294 C  
ENDBRANCH   4  21
BRANCH  19  23
HETATM   23  O   UNL     1     -10.417  11.681  67.369  1.00  0.00    -0.201 OA 
BRANCH  23  24
HETATM   24  C   UNL     1     -11.422  11.293  68.305  1.00  0.00    -0.308 C  
HETATM   25  C   UNL     1     -10.904  10.333  69.376  1.00  0.00    -0.282 C  
HETATM   26  C   UNL     1     -11.929  10.468  70.482  1.00  0.00    -0.436 C  
HETATM   27  C   UNL     1     -12.268  11.954  70.501  1.00  0.00    -0.426 C  
HETATM   28  C   UNL     1     -11.870  12.504  69.130  1.00  0.00    -0.348 C  
ENDBRANCH  23  24
ENDBRANCH  19  23
TORSDOF 3
ENDMDL
MODEL       26
REMARK 921   NORMALIZED FREE ENERGY PREDICTED BY IDOCK:   -6.10 KCAL/MOL
REMARK 922        TOTAL FREE ENERGY PREDICTED BY IDOCK:   -7.55 KCAL/MOL
REMARK 923 INTER-LIGAND FREE ENERGY PREDICTED BY IDOCK:   -7.57 KCAL/MOL
REMARK 924 INTRA-LIGAND FREE ENERGY PREDICTED BY IDOCK:    0.02 KCAL/MOL
REMARK 927      BINDING AFFINITY PREDICTED BY RF-SCORE:    0.00 PKD
ROOT
HETATM    1  C   UNL     1     -10.936   6.002  70.828  1.00  0.00    -0.364 C  
HETATM    2  C   UNL     1      -9.886   5.053  70.802  1.00  0.00    -0.279 C  
HETATM    3  C   UNL     1      -9.508   6.419  71.254  1.00  0.00    -0.175 C  
HETATM    4  C   UNL     1     -11.091   7.697  71.567  1.00  0.00    -0.236 C  
HETATM    5  C   UNL     1     -10.448   6.909  72.484  1.00  0.00    -0.241 C  
HETATM    6  C   UNL     1      -8.692  10.261  68.067  1.00  0.00    -0.122 A  
HETATM    7  O   UNL     1     -11.128   8.997  72.155  1.00  0.00    -0.350 OA 
HETATM    8  C   UNL     1      -9.068   8.180  72.423  1.00  0.00    -0.281 C  
HETATM    9  C   UNL     1     -10.871   6.364  73.814  1.00  0.00    -0.069 C  
HETATM   10  C   UNL     1     -10.720   7.120  69.375  1.00  0.00    -0.246 C  
HETATM   11  H   UNL     1     -11.858   9.587  72.299  1.00  0.00     0.000 HD 
HETATM   12  C   UNL     1      -8.997   8.971  70.845  1.00  0.00    -0.300 C  
HETATM   13  C   UNL     1      -9.429   8.207  69.412  1.00  0.00    -0.162 C  
HETATM   14  C   UNL     1      -9.434   9.069  68.144  1.00  0.00    -0.155 A  
HETATM   15  C   UNL     1     -10.006   8.563  66.955  1.00  0.00    -0.318 A  
HETATM   16  C   UNL     1      -9.887   9.291  65.758  1.00  0.00    -0.302 A  
HETATM   17  C   UNL     1     -10.781   7.266  66.881  1.00  0.00    -0.346 C  
HETATM   18  C   UNL     1     -10.602   6.330  68.071  1.00  0.00    -0.326 C  
HETATM   19  C   UNL     1      -9.198  10.499  65.711  1.00  0.00    -0.182 A  
HETATM   20  C   UNL     1      -8.572  10.963  66.862  1.00  0.00    -0.136 A  
ENDROOT
BRANCH   4  21
HETATM   21  C   UNL     1     -12.605   7.351  71.699  1.00  0.00    -0.391 C  
HETATM   22  C   UNL     1     -13.780   7.090  71.751  1.00  0.00    -0.309 C  
ENDBRANCH   4  21
BRANCH  19  23
HETATM   23  O   UNL     1      -9.072  11.281  64.593  1.00  0.00    -0.133 OA 
BRANCH  23  24
HETATM   24  C   UNL     1     -10.165  12.161  64.331  1.00  0.00    -0.306 C  
HETATM   25  C   UNL     1     -11.261  11.517  63.482  1.00  0.00    -0.412 C  
HETATM   26  C   UNL     1     -12.466  12.393  63.759  1.00  0.00    -0.593 C  
HETATM   27  C   UNL     1     -12.363  12.715  65.245  1.00  0.00    -0.528 C  
HETATM   28  C   UNL     1     -10.900  12.491  65.634  1.00  0.00    -0.311 C  
ENDBRANCH  23  24
ENDBRANCH  19  23
TORSDOF 3
ENDMDL
MODEL       27
REMARK 921   NORMALIZED FREE ENERGY PREDICTED BY IDOCK:   -6.10 KCAL/MOL
REMARK 922        TOTAL FREE ENERGY PREDICTED BY IDOCK:   -7.54 KCAL/MOL
REMARK 923 INTER-LIGAND FREE ENERGY PREDICTED BY IDOCK:   -7.23 KCAL/MOL
REMARK 924 INTRA-LIGAND FREE ENERGY PREDICTED BY IDOCK:   -0.32 KCAL/MOL
REMARK 927      BINDING AFFINITY PREDICTED BY RF-SCORE:    0.00 PKD
ROOT
HETATM    1  C   UNL     1      -8.185   9.515  68.824  1.00  0.00    -0.112 C  
HETATM    2  C   UNL     1      -7.737   9.766  70.143  1.00  0.00    -0.188 C  
HETATM    3  C   UNL     1      -9.204   9.877  69.930  1.00  0.00    -0.245 C  
HETATM    4  C   UNL     1      -9.865   9.224  68.093  1.00  0.00    -0.162 C  
HETATM    5  C   UNL     1      -9.804   8.521  69.267  1.00  0.00    -0.185 C  
HETATM    6  C   UNL     1     -11.402  13.932  67.853  1.00  0.00    -0.320 A  
HETATM    7  O   UNL     1     -11.192   9.019  67.607  1.00  0.00    -0.434 OA 
HETATM    8  C   UNL     1     -11.324   9.492  69.785  1.00  0.00    -0.117 C  
HETATM    9  C   UNL     1      -9.750   7.052  69.558  1.00  0.00    -0.160 C  
HETATM   10  C   UNL     1      -8.599  11.139  68.052  1.00  0.00    -0.140 C  
HETATM   11  H   UNL     1     -11.497   8.718  66.759  1.00  0.00     0.000 HD 
HETATM   12  C   UNL     1     -11.361  11.080  69.013  1.00  0.00    -0.345 C  
HETATM   13  C   UNL     1      -9.975  11.942  68.612  1.00  0.00    -0.163 C  
HETATM   14  C   UNL     1     -10.174  13.246  67.832  1.00  0.00    -0.233 A  
HETATM   15  C   UNL     1      -9.059  13.898  67.260  1.00  0.00    -0.230 A  
HETATM   16  C   UNL     1      -9.217  15.164  66.668  1.00  0.00    -0.298 A  
HETATM   17  C   UNL     1      -7.668  13.304  67.219  1.00  0.00    -0.100 C  
HETATM   18  C   UNL     1      -7.434  12.125  68.157  1.00  0.00    -0.114 C  
HETATM   19  C   UNL     1     -10.452  15.804  66.647  1.00  0.00    -0.302 A  
HETATM   20  C   UNL     1     -11.536  15.198  67.272  1.00  0.00    -0.284 A  
ENDROOT
BRANCH   4  21
HETATM   21  C   UNL     1      -9.107   8.360  67.041  1.00  0.00    -0.171 C  
HETATM   22  C   UNL     1      -8.550   7.713  66.192  1.00  0.00    -0.160 C  
ENDBRANCH   4  21
BRANCH  19  23
HETATM   23  O   UNL     1     -10.691  17.016  66.056  1.00  0.00    -0.246 OA 
BRANCH  23  24
HETATM   24  C   UNL     1      -9.954  18.117  66.588  1.00  0.00    -0.362 C  
HETATM   25  C   UNL     1     -10.337  19.455  65.956  1.00  0.00    -0.584 C  
HETATM   26  C   UNL     1      -9.846  20.466  66.972  1.00  0.00    -0.594 C  
HETATM   27  C   UNL     1     -10.166  19.830  68.319  1.00  0.00    -0.569 C  
HETATM   28  C   UNL     1     -10.313  18.328  68.063  1.00  0.00    -0.410 C  
ENDBRANCH  23  24
ENDBRANCH  19  23
TORSDOF 3
ENDMDL
MODEL       28
REMARK 921   NORMALIZED FREE ENERGY PREDICTED BY IDOCK:   -6.04 KCAL/MOL
REMARK 922        TOTAL FREE ENERGY PREDICTED BY IDOCK:   -7.48 KCAL/MOL
REMARK 923 INTER-LIGAND FREE ENERGY PREDICTED BY IDOCK:   -7.09 KCAL/MOL
REMARK 924 INTRA-LIGAND FREE ENERGY PREDICTED BY IDOCK:   -0.39 KCAL/MOL
REMARK 927      BINDING AFFINITY PREDICTED BY RF-SCORE:    0.00 PKD
ROOT
HETATM    1  C   UNL     1     -11.819  13.824  67.553  1.00  0.00    -0.422 C  
HETATM    2  C   UNL     1     -11.698  14.851  68.520  1.00  0.00    -0.338 C  
HETATM    3  C   UNL     1     -10.417  14.314  67.989  1.00  0.00    -0.235 C  
HETATM    4  C   UNL     1     -10.612  13.042  66.382  1.00  0.00    -0.284 C  
HETATM    5  C   UNL     1     -10.378  14.391  66.367  1.00  0.00    -0.289 C  
HETATM    6  C   UNL     1      -8.377   9.959  69.558  1.00  0.00    -0.174 A  
HETATM    7  O   UNL     1      -9.620  12.484  65.519  1.00  0.00    -0.420 OA 
HETATM    8  C   UNL     1      -8.615  13.967  66.851  1.00  0.00    -0.148 C  
HETATM    9  C   UNL     1     -10.610  15.440  65.322  1.00  0.00    -0.450 C  
HETATM   10  C   UNL     1     -11.404  12.224  68.376  1.00  0.00    -0.340 C  
HETATM   11  H   UNL     1      -9.710  11.897  64.777  1.00  0.00     0.000 HD 
HETATM   12  C   UNL     1      -8.551  12.466  67.779  1.00  0.00    -0.172 C  
HETATM   13  C   UNL     1      -9.790  11.956  68.794  1.00  0.00    -0.078 C  
HETATM   14  C   UNL     1      -9.637  10.570  69.429  1.00  0.00    -0.170 A  
HETATM   15  C   UNL     1     -10.733   9.981  70.098  1.00  0.00    -0.361 A  
HETATM   16  C   UNL     1     -10.557   8.777  70.802  1.00  0.00    -0.269 A  
HETATM   17  C   UNL     1     -12.131  10.559  70.092  1.00  0.00    -0.380 C  
HETATM   18  C   UNL     1     -12.234  12.013  69.643  1.00  0.00    -0.202 C  
HETATM   19  C   UNL     1      -9.314   8.155  70.872  1.00  0.00    -0.151 A  
HETATM   20  C   UNL     1      -8.218   8.768  70.277  1.00  0.00    -0.120 A  
ENDROOT
BRANCH   4  21
HETATM   21  C   UNL     1     -11.854  12.815  65.469  1.00  0.00    -0.466 C  
HETATM   22  C   UNL     1     -12.783  12.622  64.728  1.00  0.00    -0.460 C  
ENDBRANCH   4  21
BRANCH  19  23
HETATM   23  O   UNL     1      -9.073   6.964  71.505  1.00  0.00    -0.144 OA 
BRANCH  23  24
HETATM   24  C   UNL     1      -9.742   5.828  70.957  1.00  0.00    -0.170 C  
HETATM   25  C   UNL     1      -9.091   5.311  69.674  1.00  0.00    -0.149 C  
HETATM   26  C   UNL     1      -9.611   3.892  69.575  1.00  0.00    -0.248 C  
HETATM   27  C   UNL     1      -9.606   3.388  71.013  1.00  0.00    -0.239 C  
HETATM   28  C   UNL     1      -9.612   4.632  71.905  1.00  0.00    -0.210 C  
ENDBRANCH  23  24
ENDBRANCH  19  23
TORSDOF 3
ENDMDL
MODEL       29
REMARK 921   NORMALIZED FREE ENERGY PREDICTED BY IDOCK:   -6.01 KCAL/MOL
REMARK 922        TOTAL FREE ENERGY PREDICTED BY IDOCK:   -7.44 KCAL/MOL
REMARK 923 INTER-LIGAND FREE ENERGY PREDICTED BY IDOCK:   -7.42 KCAL/MOL
REMARK 924 INTRA-LIGAND FREE ENERGY PREDICTED BY IDOCK:   -0.01 KCAL/MOL
REMARK 927      BINDING AFFINITY PREDICTED BY RF-SCORE:    0.00 PKD
ROOT
HETATM    1  C   UNL     1      -9.455   9.721  64.691  1.00  0.00    -0.295 C  
HETATM    2  C   UNL     1      -9.082  10.379  63.495  1.00  0.00    -0.270 C  
HETATM    3  C   UNL     1      -8.193  10.615  64.663  1.00  0.00    -0.017 C  
HETATM    4  C   UNL     1      -8.577   9.426  66.299  1.00  0.00    -0.131 C  
HETATM    5  C   UNL     1      -7.671   9.213  65.294  1.00  0.00    -0.099 C  
HETATM    6  C   UNL     1      -9.299  13.871  68.373  1.00  0.00    -0.201 A  
HETATM    7  O   UNL     1      -7.838   9.250  67.508  1.00  0.00    -0.095 OA 
HETATM    8  C   UNL     1      -6.616  10.518  66.135  1.00  0.00    -0.123 C  
HETATM    9  C   UNL     1      -7.011   7.969  64.782  1.00  0.00    -0.070 C  
HETATM   10  C   UNL     1     -10.198  10.980  65.819  1.00  0.00    -0.316 C  
HETATM   11  H   UNL     1      -8.015   8.701  68.263  1.00  0.00     0.000 HD 
HETATM   12  C   UNL     1      -7.618  11.689  67.000  1.00  0.00    -0.154 C  
HETATM   13  C   UNL     1      -9.162  12.125  66.502  1.00  0.00    -0.216 C  
HETATM   14  C   UNL     1      -9.950  13.057  67.429  1.00  0.00    -0.228 A  
HETATM   15  C   UNL     1     -11.326  13.277  67.197  1.00  0.00    -0.351 A  
HETATM   16  C   UNL     1     -12.018  14.237  67.957  1.00  0.00    -0.353 A  
HETATM   17  C   UNL     1     -12.139  12.514  66.174  1.00  0.00    -0.357 C  
HETATM   18  C   UNL     1     -11.327  11.751  65.133  1.00  0.00    -0.281 C  
HETATM   19  C   UNL     1     -11.371  14.995  68.928  1.00  0.00    -0.297 A  
HETATM   20  C   UNL     1     -10.002  14.833  69.108  1.00  0.00    -0.184 A  
ENDROOT
BRANCH   4  21
HETATM   21  C   UNL     1      -9.439   8.130  66.375  1.00  0.00    -0.285 C  
HETATM   22  C   UNL     1     -10.110   7.136  66.483  1.00  0.00    -0.154 C  
ENDBRANCH   4  21
BRANCH  19  23
HETATM   23  O   UNL     1     -11.984  15.919  69.731  1.00  0.00    -0.332 OA 
BRANCH  23  24
HETATM   24  C   UNL     1     -12.894  15.390  70.696  1.00  0.00    -0.430 C  
HETATM   25  C   UNL     1     -12.731  13.885  70.910  1.00  0.00    -0.410 C  
HETATM   26  C   UNL     1     -13.384  13.659  72.258  1.00  0.00    -0.622 C  
HETATM   27  C   UNL     1     -12.973  14.872  73.084  1.00  0.00    -0.627 C  
HETATM   28  C   UNL     1     -12.582  15.962  72.083  1.00  0.00    -0.522 C  
ENDBRANCH  23  24
ENDBRANCH  19  23
TORSDOF 3
ENDMDL
MODEL       30
REMARK 921   NORMALIZED FREE ENERGY PREDICTED BY IDOCK:   -5.99 KCAL/MOL
REMARK 922        TOTAL FREE ENERGY PREDICTED BY IDOCK:   -7.42 KCAL/MOL
REMARK 923 INTER-LIGAND FREE ENERGY PREDICTED BY IDOCK:   -7.02 KCAL/MOL
REMARK 924 INTRA-LIGAND FREE ENERGY PREDICTED BY IDOCK:   -0.40 KCAL/MOL
REMARK 927      BINDING AFFINITY PREDICTED BY RF-SCORE:    0.00 PKD
ROOT
HETATM    1  C   UNL     1      -9.307   8.969  65.205  1.00  0.00    -0.099 C  
HETATM    2  C   UNL     1      -8.588   9.148  63.998  1.00  0.00    -0.186 C  
HETATM    3  C   UNL     1      -7.864   9.527  65.240  1.00  0.00    -0.111 C  
HETATM    4  C   UNL     1      -8.803   8.986  66.990  1.00  0.00    -0.119 C  
HETATM    5  C   UNL     1      -7.840   8.298  66.301  1.00  0.00    -0.098 C  
HETATM    6  C   UNL     1      -8.635  13.894  67.675  1.00  0.00    -0.190 A  
HETATM    7  O   UNL     1      -8.338   9.024  68.340  1.00  0.00    -0.122 OA 
HETATM    8  C   UNL     1      -6.622   9.540  67.007  1.00  0.00    -0.068 C  
HETATM    9  C   UNL     1      -7.462   6.848  66.278  1.00  0.00    -0.077 C  
HETATM   10  C   UNL     1      -9.856  10.633  65.786  1.00  0.00    -0.296 C  
HETATM   11  H   UNL     1      -8.771   8.775  69.147  1.00  0.00     0.000 HD 
HETATM   12  C   UNL     1      -7.399  11.098  67.303  1.00  0.00    -0.118 C  
HETATM   13  C   UNL     1      -8.674  11.683  66.377  1.00  0.00    -0.170 C  
HETATM   14  C   UNL     1      -9.321  12.992  66.841  1.00  0.00    -0.241 A  
HETATM   15  C   UNL     1     -10.536  13.419  66.258  1.00  0.00    -0.289 A  
HETATM   16  C   UNL     1     -11.057  14.685  66.578  1.00  0.00    -0.329 A  
HETATM   17  C   UNL     1     -11.350  12.577  65.301  1.00  0.00    -0.363 C  
HETATM   18  C   UNL     1     -10.616  11.386  64.693  1.00  0.00    -0.380 C  
HETATM   19  C   UNL     1     -10.393  15.542  67.450  1.00  0.00    -0.266 A  
HETATM   20  C   UNL     1      -9.164  15.156  67.969  1.00  0.00    -0.185 A  
ENDROOT
BRANCH   4  21
HETATM   21  C   UNL     1      -9.979   7.984  67.190  1.00  0.00    -0.303 C  
HETATM   22  C   UNL     1     -10.886   7.218  67.393  1.00  0.00    -0.317 C  
ENDBRANCH   4  21
BRANCH  19  23
HETATM   23  O   UNL     1     -10.858  16.771  67.838  1.00  0.00    -0.348 OA 
BRANCH  23  24
HETATM   24  C   UNL     1     -10.071  17.887  67.421  1.00  0.00    -0.340 C  
HETATM   25  C   UNL     1     -10.521  18.468  66.080  1.00  0.00    -0.447 C  
HETATM   26  C   UNL     1      -9.929  19.863  66.096  1.00  0.00    -0.593 C  
HETATM   27  C   UNL     1     -10.105  20.328  67.537  1.00  0.00    -0.519 C  
HETATM   28  C   UNL     1     -10.275  19.064  68.381  1.00  0.00    -0.450 C  
ENDBRANCH  23  24
ENDBRANCH  19  23
TORSDOF 3
ENDMDL
MODEL       31
REMARK 921   NORMALIZED FREE ENERGY PREDICTED BY IDOCK:   -5.97 KCAL/MOL
REMARK 922        TOTAL FREE ENERGY PREDICTED BY IDOCK:   -7.40 KCAL/MOL
REMARK 923 INTER-LIGAND FREE ENERGY PREDICTED BY IDOCK:   -7.04 KCAL/MOL
REMARK 924 INTRA-LIGAND FREE ENERGY PREDICTED BY IDOCK:   -0.36 KCAL/MOL
REMARK 927      BINDING AFFINITY PREDICTED BY RF-SCORE:    0.00 PKD
ROOT
HETATM    1  C   UNL     1     -10.515  14.503  66.049  1.00  0.00    -0.315 C  
HETATM    2  C   UNL     1     -11.790  14.619  65.446  1.00  0.00    -0.304 C  
HETATM    3  C   UNL     1     -11.791  14.272  66.892  1.00  0.00    -0.458 C  
HETATM    4  C   UNL     1      -9.955  14.399  67.815  1.00  0.00    -0.226 C  
HETATM    5  C   UNL     1     -10.937  15.352  67.753  1.00  0.00    -0.311 C  
HETATM    6  C   UNL     1     -10.911   9.600  68.621  1.00  0.00    -0.203 A  
HETATM    7  O   UNL     1      -9.607  14.313  69.197  1.00  0.00    -0.399 OA 
HETATM    8  C   UNL     1     -11.835  14.335  69.050  1.00  0.00    -0.370 C  
HETATM    9  C   UNL     1     -10.901  16.843  67.901  1.00  0.00    -0.310 C  
HETATM   10  C   UNL     1     -10.161  12.706  66.278  1.00  0.00    -0.264 C  
HETATM   11  H   UNL     1      -8.760  14.371  69.623  1.00  0.00     0.000 HD 
HETATM   12  C   UNL     1     -11.427  12.621  68.913  1.00  0.00    -0.354 C  
HETATM   13  C   UNL     1     -11.046  11.879  67.454  1.00  0.00    -0.336 C  
HETATM   14  C   UNL     1     -10.592  10.417  67.521  1.00  0.00    -0.312 A  
HETATM   15  C   UNL     1     -10.035   9.803  66.376  1.00  0.00    -0.314 A  
HETATM   16  C   UNL     1      -9.749   8.427  66.391  1.00  0.00    -0.312 A  
HETATM   17  C   UNL     1      -9.695  10.549  65.104  1.00  0.00    -0.341 C  
HETATM   18  C   UNL     1     -10.325  11.930  64.970  1.00  0.00    -0.330 C  
HETATM   19  C   UNL     1     -10.018   7.644  67.509  1.00  0.00    -0.178 A  
HETATM   20  C   UNL     1     -10.632   8.229  68.610  1.00  0.00    -0.144 A  
ENDROOT
BRANCH   4  21
HETATM   21  C   UNL     1      -8.658  15.092  67.302  1.00  0.00    -0.226 C  
HETATM   22  C   UNL     1      -7.646  15.588  66.876  1.00  0.00    -0.162 C  
ENDBRANCH   4  21
BRANCH  19  23
HETATM   23  O   UNL     1      -9.732   6.308  67.612  1.00  0.00    -0.117 OA 
BRANCH  23  24
HETATM   24  C   UNL     1      -9.133   5.715  66.460  1.00  0.00    -0.138 C  
HETATM   25  C   UNL     1      -7.872   4.915  66.786  1.00  0.00    -0.099 C  
HETATM   26  C   UNL     1      -7.721   4.008  65.582  1.00  0.00    -0.089 C  
HETATM   27  C   UNL     1      -9.149   3.596  65.242  1.00  0.00    -0.145 C  
HETATM   28  C   UNL     1     -10.063   4.650  65.871  1.00  0.00    -0.280 C  
ENDBRANCH  23  24
ENDBRANCH  19  23
TORSDOF 3
ENDMDL
MODEL       32
REMARK 921   NORMALIZED FREE ENERGY PREDICTED BY IDOCK:   -5.95 KCAL/MOL
REMARK 922        TOTAL FREE ENERGY PREDICTED BY IDOCK:   -7.37 KCAL/MOL
REMARK 923 INTER-LIGAND FREE ENERGY PREDICTED BY IDOCK:   -7.24 KCAL/MOL
REMARK 924 INTRA-LIGAND FREE ENERGY PREDICTED BY IDOCK:   -0.13 KCAL/MOL
REMARK 927      BINDING AFFINITY PREDICTED BY RF-SCORE:    0.00 PKD
ROOT
HETATM    1  C   UNL     1     -10.721  14.208  66.666  1.00  0.00    -0.289 C  
HETATM    2  C   UNL     1     -11.989  14.310  66.045  1.00  0.00    -0.412 C  
HETATM    3  C   UNL     1     -11.995  14.355  67.531  1.00  0.00    -0.389 C  
HETATM    4  C   UNL     1     -10.136  14.505  68.401  1.00  0.00    -0.241 C  
HETATM    5  C   UNL     1     -11.004  15.516  68.085  1.00  0.00    -0.312 C  
HETATM    6  C   UNL     1     -11.611  10.228  70.430  1.00  0.00    -0.411 A  
HETATM    7  O   UNL     1      -9.767  14.743  69.760  1.00  0.00    -0.428 OA 
HETATM    8  C   UNL     1     -11.981  14.984  69.597  1.00  0.00    -0.356 C  
HETATM    9  C   UNL     1     -10.796  16.979  67.837  1.00  0.00    -0.302 C  
HETATM   10  C   UNL     1     -10.569  12.505  67.360  1.00  0.00    -0.242 C  
HETATM   11  H   UNL     1      -8.909  14.812  70.162  1.00  0.00     0.000 HD 
HETATM   12  C   UNL     1     -11.774  13.259  69.916  1.00  0.00    -0.330 C  
HETATM   13  C   UNL     1     -11.514  12.122  68.706  1.00  0.00    -0.359 C  
HETATM   14  C   UNL     1     -11.227  10.686  69.157  1.00  0.00    -0.324 A  
HETATM   15  C   UNL     1     -10.771   9.734  68.217  1.00  0.00    -0.277 A  
HETATM   16  C   UNL     1     -10.642   8.386  68.595  1.00  0.00    -0.149 A  
HETATM   17  C   UNL     1     -10.378  10.077  66.797  1.00  0.00    -0.283 C  
HETATM   18  C   UNL     1     -10.850  11.439  66.300  1.00  0.00    -0.318 C  
HETATM   19  C   UNL     1     -10.972   7.959  69.877  1.00  0.00    -0.178 A  
HETATM   20  C   UNL     1     -11.490   8.878  70.782  1.00  0.00    -0.319 A  
ENDROOT
BRANCH   4  21
HETATM   21  C   UNL     1      -8.781  14.885  67.734  1.00  0.00    -0.168 C  
HETATM   22  C   UNL     1      -7.709  15.156  67.255  1.00  0.00    -0.241 C  
ENDBRANCH   4  21
BRANCH  19  23
HETATM   23  O   UNL     1     -10.838   6.672  70.328  1.00  0.00    -0.236 OA 
BRANCH  23  24
HETATM   24  C   UNL     1      -9.563   6.343  70.880  1.00  0.00    -0.175 C  
HETATM   25  C   UNL     1      -9.509   4.929  71.460  1.00  0.00    -0.208 C  
HETATM   26  C   UNL     1      -8.024   4.634  71.503  1.00  0.00    -0.100 C  
HETATM   27  C   UNL     1      -7.481   5.247  70.217  1.00  0.00    -0.071 C  
HETATM   28  C   UNL     1      -8.507   6.291  69.771  1.00  0.00    -0.126 C  
ENDBRANCH  23  24
ENDBRANCH  19  23
TORSDOF 3
ENDMDL
MODEL       33
REMARK 921   NORMALIZED FREE ENERGY PREDICTED BY IDOCK:   -5.88 KCAL/MOL
REMARK 922        TOTAL FREE ENERGY PREDICTED BY IDOCK:   -7.29 KCAL/MOL
REMARK 923 INTER-LIGAND FREE ENERGY PREDICTED BY IDOCK:   -7.02 KCAL/MOL
REMARK 924 INTRA-LIGAND FREE ENERGY PREDICTED BY IDOCK:   -0.27 KCAL/MOL
REMARK 927      BINDING AFFINITY PREDICTED BY RF-SCORE:    0.00 PKD
ROOT
HETATM    1  C   UNL     1      -7.736   9.716  68.223  1.00  0.00    -0.082 C  
HETATM    2  C   UNL     1      -8.009   9.705  69.612  1.00  0.00    -0.137 C  
HETATM    3  C   UNL     1      -9.200   9.693  68.723  1.00  0.00    -0.141 C  
HETATM    4  C   UNL     1      -8.788   9.411  66.726  1.00  0.00    -0.127 C  
HETATM    5  C   UNL     1      -9.125   8.468  67.660  1.00  0.00    -0.144 C  
HETATM    6  C   UNL     1     -11.002  13.839  66.453  1.00  0.00    -0.298 A  
HETATM    7  O   UNL     1      -9.666   9.174  65.625  1.00  0.00    -0.391 OA 
HETATM    8  C   UNL     1     -10.881   9.112  67.497  1.00  0.00    -0.151 C  
HETATM    9  C   UNL     1      -8.901   6.987  67.720  1.00  0.00    -0.123 C  
HETATM   10  C   UNL     1      -8.084  11.416  67.595  1.00  0.00    -0.124 C  
HETATM   11  H   UNL     1      -9.476   9.044  64.704  1.00  0.00     0.000 HD 
HETATM   12  C   UNL     1     -10.895  10.821  67.050  1.00  0.00    -0.311 C  
HETATM   13  C   UNL     1      -9.698  11.905  67.515  1.00  0.00    -0.185 C  
HETATM   14  C   UNL     1      -9.788  13.322  66.940  1.00  0.00    -0.247 A  
HETATM   15  C   UNL     1      -8.701  14.212  67.095  1.00  0.00    -0.239 A  
HETATM   16  C   UNL     1      -8.834  15.554  66.695  1.00  0.00    -0.325 A  
HETATM   17  C   UNL     1      -7.356  13.806  67.657  1.00  0.00    -0.182 C  
HETATM   18  C   UNL     1      -7.336  12.477  68.404  1.00  0.00    -0.114 C  
HETATM   19  C   UNL     1     -10.025  16.035  66.162  1.00  0.00    -0.325 A  
HETATM   20  C   UNL     1     -11.119  15.182  66.075  1.00  0.00    -0.312 A  
ENDROOT
BRANCH   4  21
HETATM   21  C   UNL     1      -7.468   8.906  66.070  1.00  0.00    -0.090 C  
HETATM   22  C   UNL     1      -6.451   8.554  65.530  1.00  0.00    -0.059 C  
ENDBRANCH   4  21
BRANCH  19  23
HETATM   23  O   UNL     1     -10.218  17.316  65.715  1.00  0.00    -0.533 OA 
BRANCH  23  24
HETATM   24  C   UNL     1      -9.671  18.345  66.540  1.00  0.00    -0.348 C  
HETATM   25  C   UNL     1     -10.040  19.751  66.067  1.00  0.00    -0.574 C  
HETATM   26  C   UNL     1      -9.813  20.598  67.302  1.00  0.00    -0.529 C  
HETATM   27  C   UNL     1     -10.312  19.729  68.450  1.00  0.00    -0.513 C  
HETATM   28  C   UNL     1     -10.296  18.287  67.938  1.00  0.00    -0.417 C  
ENDBRANCH  23  24
ENDBRANCH  19  23
TORSDOF 3
ENDMDL
MODEL       34
REMARK 921   NORMALIZED FREE ENERGY PREDICTED BY IDOCK:   -5.86 KCAL/MOL
REMARK 922        TOTAL FREE ENERGY PREDICTED BY IDOCK:   -7.27 KCAL/MOL
REMARK 923 INTER-LIGAND FREE ENERGY PREDICTED BY IDOCK:   -7.42 KCAL/MOL
REMARK 924 INTRA-LIGAND FREE ENERGY PREDICTED BY IDOCK:    0.15 KCAL/MOL
REMARK 927      BINDING AFFINITY PREDICTED BY RF-SCORE:    0.00 PKD
ROOT
HETATM    1  C   UNL     1      -6.630  18.253  67.177  1.00  0.00    -0.203 C  
HETATM    2  C   UNL     1      -6.365  18.092  65.797  1.00  0.00    -0.287 C  
HETATM    3  C   UNL     1      -7.752  18.503  66.141  1.00  0.00    -0.253 C  
HETATM    4  C   UNL     1      -8.038  19.018  68.113  1.00  0.00    -0.312 C  
HETATM    5  C   UNL     1      -7.754  19.843  67.058  1.00  0.00    -0.312 C  
HETATM    6  C   UNL     1     -11.267  15.267  67.804  1.00  0.00    -0.327 A  
HETATM    7  O   UNL     1      -9.163  19.615  68.759  1.00  0.00    -0.348 OA 
HETATM    8  C   UNL     1      -9.550  19.622  66.560  1.00  0.00    -0.483 C  
HETATM    9  C   UNL     1      -7.147  21.211  66.986  1.00  0.00    -0.278 C  
HETATM   10  C   UNL     1      -7.611  16.793  67.737  1.00  0.00    -0.180 C  
HETATM   11  H   UNL     1      -9.295  19.852  69.669  1.00  0.00     0.000 HD 
HETATM   12  C   UNL     1     -10.170  18.053  67.085  1.00  0.00    -0.366 C  
HETATM   13  C   UNL     1      -9.211  16.678  67.208  1.00  0.00    -0.228 C  
HETATM   14  C   UNL     1      -9.869  15.427  67.800  1.00  0.00    -0.220 A  
HETATM   15  C   UNL     1      -9.072  14.314  68.150  1.00  0.00    -0.193 A  
HETATM   16  C   UNL     1      -9.685  13.117  68.559  1.00  0.00    -0.138 A  
HETATM   17  C   UNL     1      -7.559  14.327  68.136  1.00  0.00    -0.134 C  
HETATM   18  C   UNL     1      -6.923  15.479  67.366  1.00  0.00    -0.232 C  
HETATM   19  C   UNL     1     -11.070  12.994  68.612  1.00  0.00    -0.269 A  
HETATM   20  C   UNL     1     -11.858  14.062  68.200  1.00  0.00    -0.402 A  
ENDROOT
BRANCH   4  21
HETATM   21  C   UNL     1      -6.966  19.332  69.199  1.00  0.00    -0.375 C  
HETATM   22  C   UNL     1      -6.105  19.546  70.014  1.00  0.00    -0.315 C  
ENDBRANCH   4  21
BRANCH  19  23
HETATM   23  O   UNL     1     -11.737  11.875  69.035  1.00  0.00    -0.284 OA 
BRANCH  23  24
HETATM   24  C   UNL     1     -11.609  10.726  68.197  1.00  0.00    -0.197 C  
HETATM   25  C   UNL     1     -10.808  11.000  66.924  1.00  0.00    -0.324 C  
HETATM   26  C   UNL     1     -10.381   9.615  66.484  1.00  0.00    -0.264 C  
HETATM   27  C   UNL     1     -10.043   8.895  67.784  1.00  0.00    -0.263 C  
HETATM   28  C   UNL     1     -10.768   9.654  68.898  1.00  0.00    -0.230 C  
ENDBRANCH  23  24
ENDBRANCH  19  23
TORSDOF 3
ENDMDL
MODEL       35
REMARK 921   NORMALIZED FREE ENERGY PREDICTED BY IDOCK:   -5.86 KCAL/MOL
REMARK 922        TOTAL FREE ENERGY PREDICTED BY IDOCK:   -7.26 KCAL/MOL
REMARK 923 INTER-LIGAND FREE ENERGY PREDICTED BY IDOCK:   -6.90 KCAL/MOL
REMARK 924 INTRA-LIGAND FREE ENERGY PREDICTED BY IDOCK:   -0.36 KCAL/MOL
REMARK 927      BINDING AFFINITY PREDICTED BY RF-SCORE:    0.00 PKD
ROOT
HETATM    1  C   UNL     1      -8.674  12.517  67.118  1.00  0.00    -0.200 C  
HETATM    2  C   UNL     1      -8.764  11.696  65.968  1.00  0.00    -0.055 C  
HETATM    3  C   UNL     1     -10.059  12.062  66.600  1.00  0.00    -0.220 C  
HETATM    4  C   UNL     1      -9.930  13.487  68.080  1.00  0.00    -0.248 C  
HETATM    5  C   UNL     1     -10.202  13.673  66.750  1.00  0.00    -0.268 C  
HETATM    6  C   UNL     1     -11.873   9.775  70.731  1.00  0.00    -0.400 A  
HETATM    7  O   UNL     1     -10.956  14.198  68.772  1.00  0.00    -0.241 OA 
HETATM    8  C   UNL     1     -11.919  13.021  67.137  1.00  0.00    -0.389 C  
HETATM    9  C   UNL     1     -10.066  14.866  65.854  1.00  0.00    -0.348 C  
HETATM   10  C   UNL     1      -8.991  11.455  68.594  1.00  0.00    -0.133 C  
HETATM   11  H   UNL     1     -10.896  14.855  69.455  1.00  0.00     0.000 HD 
HETATM   12  C   UNL     1     -11.882  11.891  68.495  1.00  0.00    -0.357 C  
HETATM   13  C   UNL     1     -10.567  10.899  68.833  1.00  0.00    -0.241 C  
HETATM   14  C   UNL     1     -10.641  10.070  70.119  1.00  0.00    -0.350 A  
HETATM   15  C   UNL     1      -9.489   9.399  70.587  1.00  0.00    -0.325 A  
HETATM   16  C   UNL     1      -9.586   8.525  71.684  1.00  0.00    -0.319 A  
HETATM   17  C   UNL     1      -8.111   9.577  69.988  1.00  0.00    -0.176 C  
HETATM   18  C   UNL     1      -8.078  10.229  68.610  1.00  0.00    -0.114 C  
HETATM   19  C   UNL     1     -10.804   8.288  72.315  1.00  0.00    -0.338 A  
HETATM   20  C   UNL     1     -11.952   8.889  71.812  1.00  0.00    -0.429 A  
ENDROOT
BRANCH   4  21
HETATM   21  C   UNL     1      -8.741  14.440  68.407  1.00  0.00    -0.180 C  
HETATM   22  C   UNL     1      -7.808  15.145  68.696  1.00  0.00    -0.140 C  
ENDBRANCH   4  21
BRANCH  19  23
HETATM   23  O   UNL     1     -10.970   7.482  73.410  1.00  0.00    -0.380 OA 
BRANCH  23  24
HETATM   24  C   UNL     1     -10.586   6.118  73.235  1.00  0.00    -0.258 C  
HETATM   25  C   UNL     1      -9.983   5.500  74.497  1.00  0.00    -0.271 C  
HETATM   26  C   UNL     1     -10.130   4.013  74.253  1.00  0.00    -0.219 C  
HETATM   27  C   UNL     1     -11.492   3.875  73.583  1.00  0.00    -0.171 C  
HETATM   28  C   UNL     1     -11.824   5.248  72.995  1.00  0.00    -0.129 C  
ENDBRANCH  23  24
ENDBRANCH  19  23
TORSDOF 3
ENDMDL
MODEL       36
REMARK 921   NORMALIZED FREE ENERGY PREDICTED BY IDOCK:   -5.84 KCAL/MOL
REMARK 922        TOTAL FREE ENERGY PREDICTED BY IDOCK:   -7.24 KCAL/MOL
REMARK 923 INTER-LIGAND FREE ENERGY PREDICTED BY IDOCK:   -6.85 KCAL/MOL
REMARK 924 INTRA-LIGAND FREE ENERGY PREDICTED BY IDOCK:   -0.39 KCAL/MOL
REMARK 927      BINDING AFFINITY PREDICTED BY RF-SCORE:    0.00 PKD
ROOT
HETATM    1  C   UNL     1      -9.248   8.967  67.175  1.00  0.00    -0.164 C  
HETATM    2  C   UNL     1     -10.500   8.336  66.982  1.00  0.00    -0.384 C  
HETATM    3  C   UNL     1     -10.028   9.187  65.857  1.00  0.00    -0.232 C  
HETATM    4  C   UNL     1      -8.088   9.853  66.029  1.00  0.00    -0.120 C  
HETATM    5  C   UNL     1      -8.544   8.743  65.370  1.00  0.00    -0.203 C  
HETATM    6  C   UNL     1     -10.409  14.231  65.851  1.00  0.00    -0.325 A  
HETATM    7  O   UNL     1      -7.255  10.528  65.087  1.00  0.00    -0.263 OA 
HETATM    8  C   UNL     1      -9.131   9.926  64.037  1.00  0.00    -0.300 C  
HETATM    9  C   UNL     1      -7.869   7.469  64.960  1.00  0.00    -0.127 C  
HETATM   10  C   UNL     1      -9.566  10.749  67.541  1.00  0.00    -0.176 C  
HETATM   11  H   UNL     1      -6.360  10.836  65.167  1.00  0.00     0.000 HD 
HETATM   12  C   UNL     1      -9.526  11.509  64.717  1.00  0.00    -0.129 C  
HETATM   13  C   UNL     1     -10.119  11.720  66.275  1.00  0.00    -0.248 C  
HETATM   14  C   UNL     1     -10.291  13.164  66.759  1.00  0.00    -0.252 A  
HETATM   15  C   UNL     1     -10.557  13.419  68.123  1.00  0.00    -0.255 A  
HETATM   16  C   UNL     1     -10.855  14.727  68.544  1.00  0.00    -0.255 A  
HETATM   17  C   UNL     1     -10.522  12.356  69.199  1.00  0.00     0.059 C  
HETATM   18  C   UNL     1     -10.555  10.917  68.696  1.00  0.00    -0.224 C  
HETATM   19  C   UNL     1     -10.912  15.783  67.640  1.00  0.00    -0.302 A  
HETATM   20  C   UNL     1     -10.721  15.524  66.288  1.00  0.00    -0.307 A  
ENDROOT
BRANCH   4  21
HETATM   21  C   UNL     1      -6.971   9.347  66.991  1.00  0.00    -0.085 C  
HETATM   22  C   UNL     1      -6.106   8.913  67.708  1.00  0.00    -0.051 C  
ENDBRANCH   4  21
BRANCH  19  23
HETATM   23  O   UNL     1     -11.157  17.087  67.980  1.00  0.00    -0.324 OA 
BRANCH  23  24
HETATM   24  C   UNL     1     -10.271  18.050  67.409  1.00  0.00    -0.363 C  
HETATM   25  C   UNL     1     -10.885  19.447  67.316  1.00  0.00    -0.561 C  
HETATM   26  C   UNL     1      -9.673  20.345  67.184  1.00  0.00    -0.601 C  
HETATM   27  C   UNL     1      -8.644  19.728  68.123  1.00  0.00    -0.333 C  
HETATM   28  C   UNL     1      -9.069  18.273  68.333  1.00  0.00    -0.331 C  
ENDBRANCH  23  24
ENDBRANCH  19  23
TORSDOF 3
ENDMDL
MODEL       37
REMARK 921   NORMALIZED FREE ENERGY PREDICTED BY IDOCK:   -5.83 KCAL/MOL
REMARK 922        TOTAL FREE ENERGY PREDICTED BY IDOCK:   -7.23 KCAL/MOL
REMARK 923 INTER-LIGAND FREE ENERGY PREDICTED BY IDOCK:   -6.87 KCAL/MOL
REMARK 924 INTRA-LIGAND FREE ENERGY PREDICTED BY IDOCK:   -0.36 KCAL/MOL
REMARK 927      BINDING AFFINITY PREDICTED BY RF-SCORE:    0.00 PKD
ROOT
HETATM    1  C   UNL     1      -7.286   9.672  66.725  1.00  0.00    -0.091 C  
HETATM    2  C   UNL     1      -7.022   9.213  68.037  1.00  0.00    -0.077 C  
HETATM    3  C   UNL     1      -8.454   9.223  67.636  1.00  0.00    -0.116 C  
HETATM    4  C   UNL     1      -8.792   9.607  65.642  1.00  0.00    -0.159 C  
HETATM    5  C   UNL     1      -8.682   8.390  66.261  1.00  0.00    -0.164 C  
HETATM    6  C   UNL     1     -11.293  13.409  67.609  1.00  0.00    -0.321 A  
HETATM    7  O   UNL     1      -9.994   9.526  64.876  1.00  0.00    -0.396 OA 
HETATM    8  C   UNL     1     -10.417   8.699  66.906  1.00  0.00    -0.329 C  
HETATM    9  C   UNL     1      -8.334   7.027  65.744  1.00  0.00    -0.143 C  
HETATM   10  C   UNL     1      -7.977  11.379  66.853  1.00  0.00    -0.158 C  
HETATM   11  H   UNL     1     -10.150   9.703  63.956  1.00  0.00     0.000 HD 
HETATM   12  C   UNL     1     -10.732  10.427  67.089  1.00  0.00    -0.316 C  
HETATM   13  C   UNL     1      -9.538  11.546  67.473  1.00  0.00    -0.179 C  
HETATM   14  C   UNL     1      -9.948  13.022  67.470  1.00  0.00    -0.212 A  
HETATM   15  C   UNL     1      -8.956  14.026  67.550  1.00  0.00    -0.195 A  
HETATM   16  C   UNL     1      -9.334  15.372  67.690  1.00  0.00    -0.203 A  
HETATM   17  C   UNL     1      -7.471  13.747  67.473  1.00  0.00    -0.182 C  
HETATM   18  C   UNL     1      -7.069  12.291  67.680  1.00  0.00    -0.126 C  
HETATM   19  C   UNL     1     -10.673  15.744  67.769  1.00  0.00    -0.307 A  
HETATM   20  C   UNL     1     -11.649  14.755  67.763  1.00  0.00    -0.378 A  
ENDROOT
BRANCH   4  21
HETATM   21  C   UNL     1      -7.774   9.577  64.463  1.00  0.00    -0.118 C  
HETATM   22  C   UNL     1      -6.960   9.588  63.575  1.00  0.00    -0.103 C  
ENDBRANCH   4  21
BRANCH  19  23
HETATM   23  O   UNL     1     -11.118  17.036  67.867  1.00  0.00    -0.300 OA 
BRANCH  23  24
HETATM   24  C   UNL     1     -10.173  18.043  67.507  1.00  0.00    -0.369 C  
HETATM   25  C   UNL     1     -10.415  18.620  66.112  1.00  0.00    -0.473 C  
HETATM   26  C   UNL     1      -9.675  19.941  66.155  1.00  0.00    -0.527 C  
HETATM   27  C   UNL     1      -9.943  20.476  67.556  1.00  0.00    -0.497 C  
HETATM   28  C   UNL     1     -10.340  19.269  68.410  1.00  0.00    -0.435 C  
ENDBRANCH  23  24
ENDBRANCH  19  23
TORSDOF 3
ENDMDL
MODEL       38
REMARK 921   NORMALIZED FREE ENERGY PREDICTED BY IDOCK:   -5.79 KCAL/MOL
REMARK 922        TOTAL FREE ENERGY PREDICTED BY IDOCK:   -7.19 KCAL/MOL
REMARK 923 INTER-LIGAND FREE ENERGY PREDICTED BY IDOCK:   -6.83 KCAL/MOL
REMARK 924 INTRA-LIGAND FREE ENERGY PREDICTED BY IDOCK:   -0.36 KCAL/MOL
REMARK 927      BINDING AFFINITY PREDICTED BY RF-SCORE:    0.00 PKD
ROOT
HETATM    1  C   UNL     1      -9.675  13.308  65.120  1.00  0.00     0.038 C  
HETATM    2  C   UNL     1     -10.156  12.462  64.092  1.00  0.00    -0.322 C  
HETATM    3  C   UNL     1     -11.143  12.819  65.147  1.00  0.00    -0.323 C  
HETATM    4  C   UNL     1     -10.518  14.274  66.461  1.00  0.00    -0.287 C  
HETATM    5  C   UNL     1     -11.258  14.429  65.319  1.00  0.00    -0.345 C  
HETATM    6  C   UNL     1     -11.279  10.582  69.682  1.00  0.00    -0.342 A  
HETATM    7  O   UNL     1     -11.239  14.981  67.470  1.00  0.00    -0.312 OA 
HETATM    8  C   UNL     1     -12.702  13.755  66.311  1.00  0.00    -0.258 C  
HETATM    9  C   UNL     1     -11.485  15.607  64.420  1.00  0.00    -0.266 C  
HETATM   10  C   UNL     1      -9.409  12.270  66.624  1.00  0.00    -0.228 C  
HETATM   11  H   UNL     1     -10.951  15.653  68.077  1.00  0.00     0.000 HD 
HETATM   12  C   UNL     1     -12.148  12.653  67.576  1.00  0.00    -0.170 C  
HETATM   13  C   UNL     1     -10.778  11.692  67.426  1.00  0.00    -0.277 C  
HETATM   14  C   UNL     1     -10.360  10.886  68.661  1.00  0.00    -0.206 A  
HETATM   15  C   UNL     1      -9.101  10.245  68.687  1.00  0.00    -0.152 A  
HETATM   16  C   UNL     1      -8.774   9.392  69.755  1.00  0.00    -0.189 A  
HETATM   17  C   UNL     1      -8.039  10.435  67.626  1.00  0.00    -0.107 C  
HETATM   18  C   UNL     1      -8.524  11.060  66.322  1.00  0.00    -0.165 C  
HETATM   19  C   UNL     1      -9.673   9.146  70.787  1.00  0.00    -0.273 A  
HETATM   20  C   UNL     1     -10.939   9.717  70.729  1.00  0.00    -0.406 A  
ENDROOT
BRANCH   4  21
HETATM   21  C   UNL     1      -9.314  15.254  66.322  1.00  0.00    -0.345 C  
HETATM   22  C   UNL     1      -8.416  16.048  66.206  1.00  0.00    -0.337 C  
ENDBRANCH   4  21
BRANCH  19  23
HETATM   23  O   UNL     1      -9.412   8.359  71.878  1.00  0.00    -0.201 OA 
BRANCH  23  24
HETATM   24  C   UNL     1     -10.261   7.222  72.034  1.00  0.00    -0.190 C  
HETATM   25  C   UNL     1      -9.586   5.912  71.627  1.00  0.00    -0.173 C  
HETATM   26  C   UNL     1     -10.426   4.863  72.327  1.00  0.00    -0.267 C  
HETATM   27  C   UNL     1     -10.748   5.483  73.681  1.00  0.00    -0.321 C  
HETATM   28  C   UNL     1     -10.567   6.994  73.518  1.00  0.00    -0.405 C  
ENDBRANCH  23  24
ENDBRANCH  19  23
TORSDOF 3
ENDMDL
MODEL       39
REMARK 921   NORMALIZED FREE ENERGY PREDICTED BY IDOCK:   -5.77 KCAL/MOL
REMARK 922        TOTAL FREE ENERGY PREDICTED BY IDOCK:   -7.15 KCAL/MOL
REMARK 923 INTER-LIGAND FREE ENERGY PREDICTED BY IDOCK:   -6.84 KCAL/MOL
REMARK 924 INTRA-LIGAND FREE ENERGY PREDICTED BY IDOCK:   -0.32 KCAL/MOL
REMARK 927      BINDING AFFINITY PREDICTED BY RF-SCORE:    0.00 PKD
ROOT
HETATM    1  C   UNL     1      -7.984   5.696  71.916  1.00  0.00    -0.111 C  
HETATM    2  C   UNL     1      -6.967   6.286  72.703  1.00  0.00    -0.075 C  
HETATM    3  C   UNL     1      -8.349   6.414  73.238  1.00  0.00    -0.118 C  
HETATM    4  C   UNL     1      -9.768   5.303  72.243  1.00  0.00    -0.158 C  
HETATM    5  C   UNL     1      -9.063   4.961  73.366  1.00  0.00    -0.117 C  
HETATM    6  C   UNL     1     -11.672   9.826  71.536  1.00  0.00    -0.450 A  
HETATM    7  O   UNL     1     -11.134   5.043  72.569  1.00  0.00    -0.215 OA 
HETATM    8  C   UNL     1     -10.211   6.121  74.292  1.00  0.00    -0.326 C  
HETATM    9  C   UNL     1      -8.728   3.634  73.978  1.00  0.00    -0.088 C  
HETATM   10  C   UNL     1      -8.885   7.054  71.049  1.00  0.00    -0.146 C  
HETATM   11  H   UNL     1     -11.789   4.530  72.110  1.00  0.00     0.000 HD 
HETATM   12  C   UNL     1     -10.781   7.425  73.244  1.00  0.00    -0.441 C  
HETATM   13  C   UNL     1      -9.871   8.058  71.982  1.00  0.00    -0.273 C  
HETATM   14  C   UNL     1     -10.557   9.096  71.088  1.00  0.00    -0.379 A  
HETATM   15  C   UNL     1      -9.943   9.495  69.879  1.00  0.00    -0.259 A  
HETATM   16  C   UNL     1     -10.498  10.547  69.128  1.00  0.00    -0.250 A  
HETATM   17  C   UNL     1      -8.707   8.837  69.307  1.00  0.00    -0.135 C  
HETATM   18  C   UNL     1      -7.924   7.962  70.279  1.00  0.00    -0.102 C  
HETATM   19  C   UNL     1     -11.636  11.222  69.559  1.00  0.00    -0.328 A  
HETATM   20  C   UNL     1     -12.200  10.881  70.782  1.00  0.00    -0.483 A  
ENDROOT
BRANCH   4  21
HETATM   21  C   UNL     1      -9.554   4.135  71.234  1.00  0.00    -0.242 C  
HETATM   22  C   UNL     1      -9.349   3.217  70.482  1.00  0.00    -0.228 C  
ENDBRANCH   4  21
BRANCH  19  23
HETATM   23  O   UNL     1     -12.254  12.228  68.864  1.00  0.00    -0.187 OA 
BRANCH  23  24
HETATM   24  C   UNL     1     -11.514  13.444  68.751  1.00  0.00    -0.305 C  
HETATM   25  C   UNL     1     -11.691  14.128  67.395  1.00  0.00    -0.422 C  
HETATM   26  C   UNL     1     -11.271  15.556  67.675  1.00  0.00    -0.291 C  
HETATM   27  C   UNL     1     -11.832  15.847  69.061  1.00  0.00    -0.328 C  
HETATM   28  C   UNL     1     -12.063  14.489  69.727  1.00  0.00    -0.380 C  
ENDBRANCH  23  24
ENDBRANCH  19  23
TORSDOF 3
ENDMDL
MODEL       40
REMARK 921   NORMALIZED FREE ENERGY PREDICTED BY IDOCK:   -5.73 KCAL/MOL
REMARK 922        TOTAL FREE ENERGY PREDICTED BY IDOCK:   -7.12 KCAL/MOL
REMARK 923 INTER-LIGAND FREE ENERGY PREDICTED BY IDOCK:   -7.20 KCAL/MOL
REMARK 924 INTRA-LIGAND FREE ENERGY PREDICTED BY IDOCK:    0.08 KCAL/MOL
REMARK 927      BINDING AFFINITY PREDICTED BY RF-SCORE:    0.00 PKD
ROOT
HETATM    1  C   UNL     1      -8.500  10.971  66.843  1.00  0.00    -0.139 C  
HETATM    2  C   UNL     1      -7.673  10.428  67.855  1.00  0.00    -0.089 C  
HETATM    3  C   UNL     1      -9.078  10.708  68.254  1.00  0.00    -0.153 C  
HETATM    4  C   UNL     1     -10.334  11.213  66.703  1.00  0.00    -0.241 C  
HETATM    5  C   UNL     1     -10.126   9.976  67.253  1.00  0.00    -0.259 C  
HETATM    6  C   UNL     1     -10.755  15.333  69.430  1.00  0.00    -0.266 A  
HETATM    7  O   UNL     1     -11.753  11.374  66.677  1.00  0.00    -0.434 OA 
HETATM    8  C   UNL     1     -11.190  10.568  68.682  1.00  0.00    -0.328 C  
HETATM    9  C   UNL     1     -10.337   8.591  66.721  1.00  0.00    -0.346 C  
HETATM   10  C   UNL     1      -8.720  12.769  67.199  1.00  0.00    -0.202 C  
HETATM   11  H   UNL     1     -12.332  11.607  65.962  1.00  0.00     0.000 HD 
HETATM   12  C   UNL     1     -11.064  12.318  68.889  1.00  0.00    -0.291 C  
HETATM   13  C   UNL     1      -9.675  13.191  68.526  1.00  0.00    -0.138 C  
HETATM   14  C   UNL     1      -9.769  14.716  68.639  1.00  0.00    -0.220 A  
HETATM   15  C   UNL     1      -8.726  15.523  68.129  1.00  0.00    -0.164 A  
HETATM   16  C   UNL     1      -8.740  16.910  68.357  1.00  0.00    -0.244 A  
HETATM   17  C   UNL     1      -7.571  14.986  67.312  1.00  0.00    -0.227 C  
HETATM   18  C   UNL     1      -7.375  13.475  67.375  1.00  0.00    -0.124 C  
HETATM   19  C   UNL     1      -9.756  17.512  69.094  1.00  0.00    -0.105 A  
HETATM   20  C   UNL     1     -10.744  16.714  69.658  1.00  0.00    -0.286 A  
ENDROOT
BRANCH   4  21
HETATM   21  C   UNL     1     -10.102  11.041  65.172  1.00  0.00    -0.346 C  
HETATM   22  C   UNL     1      -9.938  10.956  63.982  1.00  0.00    -0.403 C  
ENDBRANCH   4  21
BRANCH  19  23
HETATM   23  O   UNL     1      -9.858  18.859  69.324  1.00  0.00    -0.292 OA 
BRANCH  23  24
HETATM   24  C   UNL     1      -9.988  19.675  68.161  1.00  0.00    -0.437 C  
HETATM   25  C   UNL     1      -8.716  19.715  67.312  1.00  0.00    -0.367 C  
HETATM   26  C   UNL     1      -9.222  20.175  65.961  1.00  0.00    -0.271 C  
HETATM   27  C   UNL     1     -10.555  19.456  65.793  1.00  0.00    -0.490 C  
HETATM   28  C   UNL     1     -11.013  19.064  67.200  1.00  0.00    -0.338 C  
ENDBRANCH  23  24
ENDBRANCH  19  23
TORSDOF 3
ENDMDL
MODEL       41
REMARK 921   NORMALIZED FREE ENERGY PREDICTED BY IDOCK:   -5.70 KCAL/MOL
REMARK 922        TOTAL FREE ENERGY PREDICTED BY IDOCK:   -7.07 KCAL/MOL
REMARK 923 INTER-LIGAND FREE ENERGY PREDICTED BY IDOCK:   -6.78 KCAL/MOL
REMARK 924 INTRA-LIGAND FREE ENERGY PREDICTED BY IDOCK:   -0.29 KCAL/MOL
REMARK 927      BINDING AFFINITY PREDICTED BY RF-SCORE:    0.00 PKD
ROOT
HETATM    1  C   UNL     1     -10.486   6.678  72.002  1.00  0.00    -0.227 C  
HETATM    2  C   UNL     1     -11.848   6.303  72.097  1.00  0.00    -0.365 C  
HETATM    3  C   UNL     1     -11.119   5.782  70.910  1.00  0.00    -0.267 C  
HETATM    4  C   UNL     1      -9.083   6.087  70.942  1.00  0.00    -0.153 C  
HETATM    5  C   UNL     1      -9.778   4.980  71.353  1.00  0.00    -0.231 C  
HETATM    6  C   UNL     1     -10.184   8.567  66.792  1.00  0.00    -0.370 A  
HETATM    7  O   UNL     1      -8.059   5.584  70.083  1.00  0.00    -0.094 OA 
HETATM    8  C   UNL     1      -9.974   4.578  69.530  1.00  0.00    -0.235 C  
HETATM    9  C   UNL     1      -9.435   3.874  72.305  1.00  0.00    -0.185 C  
HETATM   10  C   UNL     1     -10.351   7.986  70.707  1.00  0.00    -0.214 C  
HETATM   11  H   UNL     1      -7.120   5.725  70.097  1.00  0.00     0.000 HD 
HETATM   12  C   UNL     1      -9.980   6.047  68.549  1.00  0.00    -0.173 C  
HETATM   13  C   UNL     1     -10.573   7.520  69.099  1.00  0.00    -0.204 C  
HETATM   14  C   UNL     1     -10.390   8.728  68.174  1.00  0.00    -0.266 A  
HETATM   15  C   UNL     1     -10.647  10.030  68.661  1.00  0.00    -0.239 A  
HETATM   16  C   UNL     1     -10.618  11.124  67.779  1.00  0.00    -0.248 A  
HETATM   17  C   UNL     1     -10.939  10.341  70.112  1.00  0.00    -0.377 C  
HETATM   18  C   UNL     1     -11.317   9.142  70.974  1.00  0.00    -0.377 C  
HETATM   19  C   UNL     1     -10.356  10.953  66.423  1.00  0.00    -0.251 A  
HETATM   20  C   UNL     1     -10.174   9.668  65.927  1.00  0.00    -0.219 A  
ENDROOT
BRANCH   4  21
HETATM   21  C   UNL     1      -8.182   6.494  72.146  1.00  0.00    -0.107 C  
HETATM   22  C   UNL     1      -7.482   6.761  73.089  1.00  0.00    -0.082 C  
ENDBRANCH   4  21
BRANCH  19  23
HETATM   23  O   UNL     1     -10.273  11.973  65.511  1.00  0.00    -0.243 OA 
BRANCH  23  24
HETATM   24  C   UNL     1     -10.783  13.233  65.947  1.00  0.00    -0.275 C  
HETATM   25  C   UNL     1      -9.684  14.216  66.351  1.00  0.00    -0.313 C  
HETATM   26  C   UNL     1     -10.382  15.558  66.275  1.00  0.00    -0.312 C  
HETATM   27  C   UNL     1     -11.272  15.450  65.043  1.00  0.00    -0.393 C  
HETATM   28  C   UNL     1     -11.468  13.955  64.783  1.00  0.00    -0.368 C  
ENDBRANCH  23  24
ENDBRANCH  19  23
TORSDOF 3
ENDMDL
MODEL       42
REMARK 921   NORMALIZED FREE ENERGY PREDICTED BY IDOCK:   -5.67 KCAL/MOL
REMARK 922        TOTAL FREE ENERGY PREDICTED BY IDOCK:   -7.05 KCAL/MOL
REMARK 923 INTER-LIGAND FREE ENERGY PREDICTED BY IDOCK:   -6.72 KCAL/MOL
REMARK 924 INTRA-LIGAND FREE ENERGY PREDICTED BY IDOCK:   -0.33 KCAL/MOL
REMARK 927      BINDING AFFINITY PREDICTED BY RF-SCORE:    0.00 PKD
ROOT
HETATM    1  C   UNL     1      -9.026  12.736  67.669  1.00  0.00    -0.191 C  
HETATM    2  C   UNL     1      -7.729  12.637  67.110  1.00  0.00    -0.094 C  
HETATM    3  C   UNL     1      -8.810  11.950  66.354  1.00  0.00    -0.152 C  
HETATM    4  C   UNL     1     -10.718  12.350  67.015  1.00  0.00    -0.239 C  
HETATM    5  C   UNL     1     -10.025  12.971  66.011  1.00  0.00    -0.277 C  
HETATM    6  C   UNL     1     -10.672   7.435  67.674  1.00  0.00    -0.278 A  
HETATM    7  O   UNL     1     -11.984  12.018  66.442  1.00  0.00    -0.611 OA 
HETATM    8  C   UNL     1     -10.397  11.449  64.978  1.00  0.00    -0.342 C  
HETATM    9  C   UNL     1     -10.164  14.324  65.381  1.00  0.00    -0.395 C  
HETATM   10  C   UNL     1      -9.425  11.114  68.454  1.00  0.00    -0.189 C  
HETATM   11  H   UNL     1     -12.864  12.203  66.747  1.00  0.00     0.000 HD 
HETATM   12  C   UNL     1     -10.559  10.012  65.993  1.00  0.00    -0.045 C  
HETATM   13  C   UNL     1      -9.717   9.802  67.432  1.00  0.00    -0.202 C  
HETATM   14  C   UNL     1     -10.063   8.560  68.260  1.00  0.00    -0.225 A  
HETATM   15  C   UNL     1      -9.573   8.438  69.580  1.00  0.00    -0.170 A  
HETATM   16  C   UNL     1      -9.769   7.240  70.290  1.00  0.00    -0.175 A  
HETATM   17  C   UNL     1      -8.849   9.546  70.313  1.00  0.00    -0.281 C  
HETATM   18  C   UNL     1      -8.335  10.681  69.436  1.00  0.00    -0.073 C  
HETATM   19  C   UNL     1     -10.425   6.157  69.715  1.00  0.00    -0.239 A  
HETATM   20  C   UNL     1     -10.845   6.247  68.393  1.00  0.00    -0.394 A  
ENDROOT
BRANCH   4  21
HETATM   21  C   UNL     1     -11.197  13.486  67.968  1.00  0.00    -0.300 C  
HETATM   22  C   UNL     1     -11.602  14.334  68.721  1.00  0.00    -0.357 C  
ENDBRANCH   4  21
BRANCH  19  23
HETATM   23  O   UNL     1     -10.687   4.974  70.355  1.00  0.00    -0.168 OA 
BRANCH  23  24
HETATM   24  C   UNL     1     -10.210   4.882  71.698  1.00  0.00    -0.197 C  
HETATM   25  C   UNL     1     -11.277   5.228  72.737  1.00  0.00    -0.347 C  
HETATM   26  C   UNL     1     -10.739   4.594  74.003  1.00  0.00    -0.352 C  
HETATM   27  C   UNL     1     -10.140   3.273  73.536  1.00  0.00    -0.190 C  
HETATM   28  C   UNL     1      -9.871   3.427  72.037  1.00  0.00    -0.239 C  
ENDBRANCH  23  24
ENDBRANCH  19  23
TORSDOF 3
ENDMDL
MODEL       43
REMARK 921   NORMALIZED FREE ENERGY PREDICTED BY IDOCK:   -5.66 KCAL/MOL
REMARK 922        TOTAL FREE ENERGY PREDICTED BY IDOCK:   -7.03 KCAL/MOL
REMARK 923 INTER-LIGAND FREE ENERGY PREDICTED BY IDOCK:   -6.69 KCAL/MOL
REMARK 924 INTRA-LIGAND FREE ENERGY PREDICTED BY IDOCK:   -0.34 KCAL/MOL
REMARK 927      BINDING AFFINITY PREDICTED BY RF-SCORE:    0.00 PKD
ROOT
HETATM    1  C   UNL     1      -8.611   6.320  66.904  1.00  0.00    -0.113 C  
HETATM    2  C   UNL     1      -7.345   6.489  67.514  1.00  0.00    -0.095 C  
HETATM    3  C   UNL     1      -8.519   6.750  68.388  1.00  0.00    -0.122 C  
HETATM    4  C   UNL     1     -10.336   6.217  67.580  1.00  0.00    -0.195 C  
HETATM    5  C   UNL     1      -9.530   5.479  68.405  1.00  0.00    -0.144 C  
HETATM    6  C   UNL     1     -11.166  11.059  68.256  1.00  0.00    -0.340 A  
HETATM    7  O   UNL     1     -11.632   6.158  68.177  1.00  0.00    -0.356 OA 
HETATM    8  C   UNL     1     -10.150   6.580  69.793  1.00  0.00    -0.207 C  
HETATM    9  C   UNL     1      -9.420   4.004  68.646  1.00  0.00    -0.220 C  
HETATM   10  C   UNL     1      -9.301   7.999  66.567  1.00  0.00    -0.261 C  
HETATM   11  H   UNL     1     -12.470   5.913  67.804  1.00  0.00     0.000 HD 
HETATM   12  C   UNL     1     -10.577   8.186  69.192  1.00  0.00    -0.179 C  
HETATM   13  C   UNL     1      -9.805   8.917  67.891  1.00  0.00    -0.205 C  
HETATM   14  C   UNL     1     -10.377  10.256  67.413  1.00  0.00    -0.282 A  
HETATM   15  C   UNL     1      -9.934  10.811  66.191  1.00  0.00    -0.283 A  
HETATM   16  C   UNL     1     -10.348  12.102  65.819  1.00  0.00    -0.289 A  
HETATM   17  C   UNL     1      -9.036  10.084  65.214  1.00  0.00    -0.243 C  
HETATM   18  C   UNL     1      -8.318   8.861  65.774  1.00  0.00    -0.139 C  
HETATM   19  C   UNL     1     -11.177  12.861  66.640  1.00  0.00    -0.304 A  
HETATM   20  C   UNL     1     -11.555  12.348  67.875  1.00  0.00    -0.415 A  
ENDROOT
BRANCH   4  21
HETATM   21  C   UNL     1     -10.620   5.313  66.343  1.00  0.00    -0.338 C  
HETATM   22  C   UNL     1     -10.873   4.647  65.372  1.00  0.00    -0.093 C  
ENDBRANCH   4  21
BRANCH  19  23
HETATM   23  O   UNL     1     -11.652  14.108  66.329  1.00  0.00    -0.344 OA 
BRANCH  23  24
HETATM   24  C   UNL     1     -10.764  15.192  66.604  1.00  0.00    -0.310 C  
HETATM   25  C   UNL     1     -10.777  16.266  65.516  1.00  0.00    -0.326 C  
HETATM   26  C   UNL     1     -10.205  17.476  66.224  1.00  0.00    -0.356 C  
HETATM   27  C   UNL     1     -10.808  17.413  67.622  1.00  0.00    -0.233 C  
HETATM   28  C   UNL     1     -11.240  15.961  67.840  1.00  0.00    -0.297 C  
ENDBRANCH  23  24
ENDBRANCH  19  23
TORSDOF 3
ENDMDL
MODEL       44
REMARK 921   NORMALIZED FREE ENERGY PREDICTED BY IDOCK:   -5.63 KCAL/MOL
REMARK 922        TOTAL FREE ENERGY PREDICTED BY IDOCK:   -7.00 KCAL/MOL
REMARK 923 INTER-LIGAND FREE ENERGY PREDICTED BY IDOCK:   -6.59 KCAL/MOL
REMARK 924 INTRA-LIGAND FREE ENERGY PREDICTED BY IDOCK:   -0.41 KCAL/MOL
REMARK 927      BINDING AFFINITY PREDICTED BY RF-SCORE:    0.00 PKD
ROOT
HETATM    1  C   UNL     1     -11.424  13.943  67.730  1.00  0.00    -0.354 C  
HETATM    2  C   UNL     1     -11.056  14.948  68.656  1.00  0.00    -0.272 C  
HETATM    3  C   UNL     1      -9.946  14.091  68.161  1.00  0.00    -0.242 C  
HETATM    4  C   UNL     1     -10.445  12.840  66.604  1.00  0.00    -0.257 C  
HETATM    5  C   UNL     1      -9.887  14.089  66.538  1.00  0.00    -0.298 C  
HETATM    6  C   UNL     1      -9.040   9.438  69.926  1.00  0.00    -0.221 A  
HETATM    7  O   UNL     1      -9.620  12.021  65.775  1.00  0.00    -0.241 OA 
HETATM    8  C   UNL     1      -8.282  13.266  67.058  1.00  0.00    -0.058 C  
HETATM    9  C   UNL     1      -9.852  15.119  65.449  1.00  0.00    -0.309 C  
HETATM   10  C   UNL     1     -11.416  12.326  68.620  1.00  0.00    -0.355 C  
HETATM   11  H   UNL     1      -9.850  11.444  65.057  1.00  0.00     0.000 HD 
HETATM   12  C   UNL     1      -8.590  11.835  68.046  1.00  0.00    -0.158 C  
HETATM   13  C   UNL     1      -9.918  11.687  69.066  1.00  0.00    -0.002 C  
HETATM   14  C   UNL     1     -10.111  10.334  69.758  1.00  0.00    -0.244 A  
HETATM   15  C   UNL     1     -11.319  10.060  70.438  1.00  0.00    -0.392 A  
HETATM   16  C   UNL     1     -11.445   8.880  71.192  1.00  0.00    -0.364 A  
HETATM   17  C   UNL     1     -12.532  10.963  70.393  1.00  0.00    -0.411 C  
HETATM   18  C   UNL     1     -12.274  12.377  69.885  1.00  0.00    -0.227 C  
HETATM   19  C   UNL     1     -10.393   7.975  71.300  1.00  0.00    -0.193 A  
HETATM   20  C   UNL     1      -9.180   8.276  70.693  1.00  0.00    -0.167 A  
ENDROOT
BRANCH   4  21
HETATM   21  C   UNL     1     -11.703  12.888  65.687  1.00  0.00    -0.430 C  
HETATM   22  C   UNL     1     -12.661  12.883  64.956  1.00  0.00    -0.538 C  
ENDBRANCH   4  21
BRANCH  19  23
HETATM   23  O   UNL     1     -10.453   6.789  71.983  1.00  0.00    -0.201 OA 
BRANCH  23  24
HETATM   24  C   UNL     1      -9.207   6.299  72.478  1.00  0.00    -0.140 C  
HETATM   25  C   UNL     1      -9.007   6.571  73.969  1.00  0.00    -0.169 C  
HETATM   26  C   UNL     1      -7.938   5.571  74.359  1.00  0.00    -0.104 C  
HETATM   27  C   UNL     1      -8.298   4.314  73.576  1.00  0.00    -0.093 C  
HETATM   28  C   UNL     1      -9.178   4.768  72.410  1.00  0.00    -0.149 C  
ENDBRANCH  23  24
ENDBRANCH  19  23
TORSDOF 3
ENDMDL
MODEL       45
REMARK 921   NORMALIZED FREE ENERGY PREDICTED BY IDOCK:   -5.61 KCAL/MOL
REMARK 922        TOTAL FREE ENERGY PREDICTED BY IDOCK:   -6.97 KCAL/MOL
REMARK 923 INTER-LIGAND FREE ENERGY PREDICTED BY IDOCK:   -6.55 KCAL/MOL
REMARK 924 INTRA-LIGAND FREE ENERGY PREDICTED BY IDOCK:   -0.42 KCAL/MOL
REMARK 927      BINDING AFFINITY PREDICTED BY RF-SCORE:    0.00 PKD
ROOT
HETATM    1  C   UNL     1      -8.825  15.741  67.749  1.00  0.00    -0.173 C  
HETATM    2  C   UNL     1      -7.724  16.101  66.935  1.00  0.00    -0.284 C  
HETATM    3  C   UNL     1      -8.935  15.636  66.209  1.00  0.00    -0.377 C  
HETATM    4  C   UNL     1     -10.611  15.401  67.381  1.00  0.00    -0.289 C  
HETATM    5  C   UNL     1     -10.243  16.494  66.643  1.00  0.00    -0.302 C  
HETATM    6  C   UNL     1     -10.162  10.753  65.715  1.00  0.00    -0.319 A  
HETATM    7  O   UNL     1     -11.967  15.145  67.015  1.00  0.00    -0.195 OA 
HETATM    8  C   UNL     1     -10.810  15.519  65.143  1.00  0.00    -0.452 C  
HETATM    9  C   UNL     1     -10.609  17.945  66.743  1.00  0.00    -0.253 C  
HETATM   10  C   UNL     1      -8.922  13.898  67.780  1.00  0.00    -0.188 C  
HETATM   11  H   UNL     1     -12.741  15.037  67.556  1.00  0.00     0.000 HD 
HETATM   12  C   UNL     1     -10.625  13.781  65.405  1.00  0.00    -0.330 C  
HETATM   13  C   UNL     1      -9.417  13.118  66.367  1.00  0.00    -0.226 C  
HETATM   14  C   UNL     1      -9.470  11.603  66.596  1.00  0.00    -0.213 A  
HETATM   15  C   UNL     1      -8.637  11.012  67.573  1.00  0.00    -0.128 A  
HETATM   16  C   UNL     1      -8.580   9.612  67.687  1.00  0.00    -0.126 A  
HETATM   17  C   UNL     1      -7.795  11.804  68.549  1.00  0.00    -0.144 C  
HETATM   18  C   UNL     1      -7.589  13.272  68.192  1.00  0.00    -0.141 C  
HETATM   19  C   UNL     1      -9.316   8.786  66.844  1.00  0.00    -0.167 A  
HETATM   20  C   UNL     1     -10.080   9.361  65.835  1.00  0.00    -0.243 A  
ENDROOT
BRANCH   4  21
HETATM   21  C   UNL     1     -10.867  15.930  68.824  1.00  0.00    -0.284 C  
HETATM   22  C   UNL     1     -11.111  16.321  69.938  1.00  0.00    -0.347 C  
ENDBRANCH   4  21
BRANCH  19  23
HETATM   23  O   UNL     1      -9.340   7.419  66.919  1.00  0.00    -0.142 OA 
BRANCH  23  24
HETATM   24  C   UNL     1      -9.444   6.876  68.236  1.00  0.00    -0.126 C  
HETATM   25  C   UNL     1     -10.882   6.838  68.756  1.00  0.00    -0.280 C  
HETATM   26  C   UNL     1     -10.816   5.812  69.868  1.00  0.00    -0.417 C  
HETATM   27  C   UNL     1      -9.881   4.735  69.332  1.00  0.00    -0.282 C  
HETATM   28  C   UNL     1      -9.051   5.395  68.228  1.00  0.00    -0.116 C  
ENDBRANCH  23  24
ENDBRANCH  19  23
TORSDOF 3
ENDMDL
MODEL       46
REMARK 921   NORMALIZED FREE ENERGY PREDICTED BY IDOCK:   -5.60 KCAL/MOL
REMARK 922        TOTAL FREE ENERGY PREDICTED BY IDOCK:   -6.96 KCAL/MOL
REMARK 923 INTER-LIGAND FREE ENERGY PREDICTED BY IDOCK:   -6.57 KCAL/MOL
REMARK 924 INTRA-LIGAND FREE ENERGY PREDICTED BY IDOCK:   -0.39 KCAL/MOL
REMARK 927      BINDING AFFINITY PREDICTED BY RF-SCORE:    0.00 PKD
ROOT
HETATM    1  C   UNL     1     -10.494   8.988  68.715  1.00  0.00    -0.230 C  
HETATM    2  C   UNL     1     -10.477   8.334  67.460  1.00  0.00    -0.325 C  
HETATM    3  C   UNL     1      -9.172   8.878  67.920  1.00  0.00    -0.148 C  
HETATM    4  C   UNL     1      -9.152   9.557  69.863  1.00  0.00    -0.216 C  
HETATM    5  C   UNL     1      -8.794   8.320  69.398  1.00  0.00    -0.146 C  
HETATM    6  C   UNL     1      -7.920  13.765  67.547  1.00  0.00    -0.190 A  
HETATM    7  O   UNL     1      -8.063   9.974  70.686  1.00  0.00    -0.411 OA 
HETATM    8  C   UNL     1      -7.216   9.139  68.797  1.00  0.00    -0.074 C  
HETATM    9  C   UNL     1      -8.704   6.981  70.066  1.00  0.00    -0.142 C  
HETATM   10  C   UNL     1     -10.411  10.806  68.404  1.00  0.00    -0.207 C  
HETATM   11  H   UNL     1      -8.054  10.288  71.583  1.00  0.00     0.000 HD 
HETATM   12  C   UNL     1      -7.486  10.842  68.413  1.00  0.00    -0.098 C  
HETATM   13  C   UNL     1      -8.950  11.435  67.838  1.00  0.00    -0.153 C  
HETATM   14  C   UNL     1      -9.063  12.955  67.674  1.00  0.00    -0.194 A  
HETATM   15  C   UNL     1     -10.325  13.541  67.424  1.00  0.00    -0.237 A  
HETATM   16  C   UNL     1     -10.412  14.914  67.133  1.00  0.00    -0.271 A  
HETATM   17  C   UNL     1     -11.630  12.777  67.470  1.00  0.00    -0.412 C  
HETATM   18  C   UNL     1     -11.500  11.259  67.430  1.00  0.00    -0.300 C  
HETATM   19  C   UNL     1      -9.275  15.713  67.068  1.00  0.00    -0.222 A  
HETATM   20  C   UNL     1      -8.027  15.127  67.242  1.00  0.00    -0.234 A  
ENDROOT
BRANCH   4  21
HETATM   21  C   UNL     1     -10.196   9.300  70.991  1.00  0.00    -0.384 C  
HETATM   22  C   UNL     1     -10.996   9.148  71.878  1.00  0.00    -0.372 C  
ENDBRANCH   4  21
BRANCH  19  23
HETATM   23  O   UNL     1      -9.283  17.062  66.828  1.00  0.00    -0.234 OA 
BRANCH  23  24
HETATM   24  C   UNL     1      -8.146  17.780  67.306  1.00  0.00    -0.211 C  
HETATM   25  C   UNL     1      -7.476  18.628  66.224  1.00  0.00    -0.288 C  
HETATM   26  C   UNL     1      -6.677  19.635  67.025  1.00  0.00    -0.212 C  
HETATM   27  C   UNL     1      -7.584  19.985  68.200  1.00  0.00    -0.288 C  
HETATM   28  C   UNL     1      -8.580  18.830  68.334  1.00  0.00    -0.373 C  
ENDBRANCH  23  24
ENDBRANCH  19  23
TORSDOF 3
ENDMDL
MODEL       47
REMARK 921   NORMALIZED FREE ENERGY PREDICTED BY IDOCK:   -5.50 KCAL/MOL
REMARK 922        TOTAL FREE ENERGY PREDICTED BY IDOCK:   -6.85 KCAL/MOL
REMARK 923 INTER-LIGAND FREE ENERGY PREDICTED BY IDOCK:   -6.47 KCAL/MOL
REMARK 924 INTRA-LIGAND FREE ENERGY PREDICTED BY IDOCK:   -0.37 KCAL/MOL
REMARK 927      BINDING AFFINITY PREDICTED BY RF-SCORE:    0.00 PKD
ROOT
HETATM    1  C   UNL     1      -9.366  13.064  67.549  1.00  0.00    -0.200 C  
HETATM    2  C   UNL     1      -8.022  13.055  67.106  1.00  0.00    -0.095 C  
HETATM    3  C   UNL     1      -8.994  12.355  66.226  1.00  0.00    -0.041 C  
HETATM    4  C   UNL     1     -10.972  12.631  66.727  1.00  0.00    -0.262 C  
HETATM    5  C   UNL     1     -10.225  13.333  65.819  1.00  0.00    -0.296 C  
HETATM    6  C   UNL     1     -10.731   7.698  67.167  1.00  0.00    -0.361 A  
HETATM    7  O   UNL     1     -12.162  12.269  66.027  1.00  0.00    -0.646 OA 
HETATM    8  C   UNL     1     -10.425  11.848  64.690  1.00  0.00    -0.340 C  
HETATM    9  C   UNL     1     -10.377  14.708  65.240  1.00  0.00    -0.425 C  
HETATM   10  C   UNL     1      -9.749  11.388  68.222  1.00  0.00    -0.202 C  
HETATM   11  H   UNL     1     -13.075  12.396  66.258  1.00  0.00     0.000 HD 
HETATM   12  C   UNL     1     -10.602  10.357  65.621  1.00  0.00    -0.096 C  
HETATM   13  C   UNL     1      -9.881  10.116  67.120  1.00  0.00    -0.231 C  
HETATM   14  C   UNL     1     -10.235   8.820  67.856  1.00  0.00    -0.272 A  
HETATM   15  C   UNL     1      -9.859   8.656  69.208  1.00  0.00    -0.188 A  
HETATM   16  C   UNL     1     -10.055   7.418  69.844  1.00  0.00    -0.195 A  
HETATM   17  C   UNL     1      -9.260   9.760  70.053  1.00  0.00    -0.266 C  
HETATM   18  C   UNL     1      -8.729  10.960  69.278  1.00  0.00     0.013 C  
HETATM   19  C   UNL     1     -10.601   6.334  69.163  1.00  0.00    -0.268 A  
HETATM   20  C   UNL     1     -10.905   6.469  67.814  1.00  0.00    -0.395 A  
ENDROOT
BRANCH   4  21
HETATM   21  C   UNL     1     -11.590  13.695  67.682  1.00  0.00    -0.381 C  
HETATM   22  C   UNL     1     -12.105  14.486  68.431  1.00  0.00    -0.249 C  
ENDBRANCH   4  21
BRANCH  19  23
HETATM   23  O   UNL     1     -10.858   5.111  69.724  1.00  0.00    -0.141 OA 
BRANCH  23  24
HETATM   24  C   UNL     1      -9.738   4.463  70.328  1.00  0.00    -0.211 C  
HETATM   25  C   UNL     1     -10.030   3.959  71.742  1.00  0.00    -0.234 C  
HETATM   26  C   UNL     1      -8.952   2.918  71.963  1.00  0.00    -0.133 C  
HETATM   27  C   UNL     1      -8.831   2.212  70.618  1.00  0.00    -0.131 C  
HETATM   28  C   UNL     1      -9.407   3.171  69.574  1.00  0.00    -0.228 C  
ENDBRANCH  23  24
ENDBRANCH  19  23
TORSDOF 3
ENDMDL
MODEL       48
REMARK 921   NORMALIZED FREE ENERGY PREDICTED BY IDOCK:   -5.44 KCAL/MOL
REMARK 922        TOTAL FREE ENERGY PREDICTED BY IDOCK:   -6.77 KCAL/MOL
REMARK 923 INTER-LIGAND FREE ENERGY PREDICTED BY IDOCK:   -6.81 KCAL/MOL
REMARK 924 INTRA-LIGAND FREE ENERGY PREDICTED BY IDOCK:    0.04 KCAL/MOL
REMARK 927      BINDING AFFINITY PREDICTED BY RF-SCORE:    0.00 PKD
ROOT
HETATM    1  C   UNL     1     -11.418  14.409  67.970  1.00  0.00    -0.336 C  
HETATM    2  C   UNL     1     -10.934  15.179  69.055  1.00  0.00    -0.245 C  
HETATM    3  C   UNL     1      -9.897  14.477  68.251  1.00  0.00    -0.229 C  
HETATM    4  C   UNL     1     -10.586  13.612  66.515  1.00  0.00    -0.282 C  
HETATM    5  C   UNL     1     -10.026  14.851  66.676  1.00  0.00    -0.267 C  
HETATM    6  C   UNL     1      -8.844   9.558  68.777  1.00  0.00    -0.132 A  
HETATM    7  O   UNL     1      -9.872  13.019  65.430  1.00  0.00    -0.438 OA 
HETATM    8  C   UNL     1      -8.382  13.956  66.804  1.00  0.00     0.081 C  
HETATM    9  C   UNL     1     -10.106  16.104  65.858  1.00  0.00    -0.379 C  
HETATM   10  C   UNL     1     -11.324  12.630  68.455  1.00  0.00    -0.333 C  
HETATM   11  H   UNL     1     -10.189  12.620  64.629  1.00  0.00     0.000 HD 
HETATM   12  C   UNL     1      -8.589  12.330  67.464  1.00  0.00    -0.174 C  
HETATM   13  C   UNL     1      -9.792  11.930  68.567  1.00  0.00    -0.187 C  
HETATM   14  C   UNL     1      -9.918  10.451  68.945  1.00  0.00    -0.208 A  
HETATM   15  C   UNL     1     -11.043  10.008  69.677  1.00  0.00    -0.300 A  
HETATM   16  C   UNL     1     -11.093   8.684  70.147  1.00  0.00    -0.199 A  
HETATM   17  C   UNL     1     -12.243  10.877  69.982  1.00  0.00    -0.422 C  
HETATM   18  C   UNL     1     -12.030  12.375  69.788  1.00  0.00    -0.359 C  
HETATM   19  C   UNL     1     -10.046   7.796  69.922  1.00  0.00    -0.203 A  
HETATM   20  C   UNL     1      -8.907   8.248  69.266  1.00  0.00    -0.143 A  
ENDROOT
BRANCH   4  21
HETATM   21  C   UNL     1     -11.942  13.849  65.784  1.00  0.00    -0.419 C  
HETATM   22  C   UNL     1     -13.010  14.044  65.264  1.00  0.00    -0.315 C  
ENDBRANCH   4  21
BRANCH  19  23
HETATM   23  O   UNL     1     -10.040   6.483  70.315  1.00  0.00    -0.176 OA 
BRANCH  23  24
HETATM   24  C   UNL     1     -10.408   5.538  69.311  1.00  0.00    -0.265 C  
HETATM   25  C   UNL     1     -10.914   6.195  68.026  1.00  0.00    -0.399 C  
HETATM   26  C   UNL     1     -10.754   5.097  66.995  1.00  0.00    -0.103 C  
HETATM   27  C   UNL     1      -9.437   4.424  67.363  1.00  0.00    -0.201 C  
HETATM   28  C   UNL     1      -9.172   4.770  68.830  1.00  0.00    -0.172 C  
ENDBRANCH  23  24
ENDBRANCH  19  23
TORSDOF 3
ENDMDL
MODEL       49
REMARK 921   NORMALIZED FREE ENERGY PREDICTED BY IDOCK:   -5.40 KCAL/MOL
REMARK 922        TOTAL FREE ENERGY PREDICTED BY IDOCK:   -6.72 KCAL/MOL
REMARK 923 INTER-LIGAND FREE ENERGY PREDICTED BY IDOCK:   -6.78 KCAL/MOL
REMARK 924 INTRA-LIGAND FREE ENERGY PREDICTED BY IDOCK:    0.05 KCAL/MOL
REMARK 927      BINDING AFFINITY PREDICTED BY RF-SCORE:    0.00 PKD
ROOT
HETATM    1  C   UNL     1     -10.180   7.210  70.301  1.00  0.00    -0.207 C  
HETATM    2  C   UNL     1     -11.362   6.435  70.219  1.00  0.00    -0.468 C  
HETATM    3  C   UNL     1     -10.619   6.611  68.943  1.00  0.00    -0.264 C  
HETATM    4  C   UNL     1      -8.764   7.482  69.134  1.00  0.00    -0.136 C  
HETATM    5  C   UNL     1      -9.070   6.147  69.099  1.00  0.00    -0.128 C  
HETATM    6  C   UNL     1     -10.890  10.812  66.138  1.00  0.00    -0.124 A  
HETATM    7  O   UNL     1      -7.717   7.647  68.177  1.00  0.00    -0.114 OA 
HETATM    8  C   UNL     1      -9.299   6.374  67.250  1.00  0.00    -0.125 C  
HETATM    9  C   UNL     1      -8.342   4.935  69.594  1.00  0.00    -0.085 C  
HETATM   10  C   UNL     1     -10.542   8.866  69.571  1.00  0.00    -0.233 C  
HETATM   11  H   UNL     1      -6.861   8.049  68.265  1.00  0.00     0.000 HD 
HETATM   12  C   UNL     1      -9.815   8.021  66.867  1.00  0.00    -0.318 C  
HETATM   13  C   UNL     1     -10.758   8.954  67.899  1.00  0.00    -0.185 C  
HETATM   14  C   UNL     1     -11.012  10.405  67.479  1.00  0.00    -0.358 A  
HETATM   15  C   UNL     1     -11.592  11.310  68.397  1.00  0.00    -0.378 A  
HETATM   16  C   UNL     1     -11.957  12.599  67.972  1.00  0.00    -0.300 A  
HETATM   17  C   UNL     1     -11.835  10.986  69.855  1.00  0.00    -0.431 C  
HETATM   18  C   UNL     1     -11.774   9.506  70.214  1.00  0.00    -0.168 C  
HETATM   19  C   UNL     1     -11.775  13.005  66.654  1.00  0.00    -0.381 A  
HETATM   20  C   UNL     1     -11.273  12.095  65.731  1.00  0.00    -0.384 A  
ENDROOT
BRANCH   4  21
HETATM   21  C   UNL     1      -7.918   7.689  70.426  1.00  0.00    -0.097 C  
HETATM   22  C   UNL     1      -7.223   7.850  71.397  1.00  0.00    -0.065 C  
ENDBRANCH   4  21
BRANCH  19  23
HETATM   23  O   UNL     1     -12.070  14.255  66.175  1.00  0.00    -0.407 OA 
BRANCH  23  24
HETATM   24  C   UNL     1     -11.102  15.266  66.456  1.00  0.00    -0.271 C  
HETATM   25  C   UNL     1     -10.407  15.072  67.804  1.00  0.00    -0.245 C  
HETATM   26  C   UNL     1      -9.144  15.895  67.659  1.00  0.00    -0.200 C  
HETATM   27  C   UNL     1      -8.699  15.651  66.222  1.00  0.00    -0.325 C  
HETATM   28  C   UNL     1      -9.939  15.171  65.463  1.00  0.00    -0.384 C  
ENDBRANCH  23  24
ENDBRANCH  19  23
TORSDOF 3
ENDMDL
MODEL       50
REMARK 921   NORMALIZED FREE ENERGY PREDICTED BY IDOCK:   -5.38 KCAL/MOL
REMARK 922        TOTAL FREE ENERGY PREDICTED BY IDOCK:   -6.71 KCAL/MOL
REMARK 923 INTER-LIGAND FREE ENERGY PREDICTED BY IDOCK:   -6.38 KCAL/MOL
REMARK 924 INTRA-LIGAND FREE ENERGY PREDICTED BY IDOCK:   -0.32 KCAL/MOL
REMARK 927      BINDING AFFINITY PREDICTED BY RF-SCORE:    0.00 PKD
ROOT
HETATM    1  C   UNL     1      -9.665   4.480  70.385  1.00  0.00    -0.287 C  
HETATM    2  C   UNL     1      -8.928   3.479  69.708  1.00  0.00    -0.174 C  
HETATM    3  C   UNL     1      -8.131   4.617  70.237  1.00  0.00    -0.067 C  
HETATM    4  C   UNL     1      -9.166   5.903  71.466  1.00  0.00    -0.146 C  
HETATM    5  C   UNL     1      -8.396   4.829  71.825  1.00  0.00    -0.114 C  
HETATM    6  C   UNL     1      -7.835   9.104  67.920  1.00  0.00    -0.100 A  
HETATM    7  O   UNL     1      -8.700   6.982  72.278  1.00  0.00    -0.125 OA 
HETATM    8  C   UNL     1      -6.916   5.923  71.454  1.00  0.00    -0.072 C  
HETATM    9  C   UNL     1      -8.373   3.975  73.056  1.00  0.00    -0.093 C  
HETATM   10  C   UNL     1      -9.801   5.937  69.260  1.00  0.00    -0.205 C  
HETATM   11  H   UNL     1      -9.178   7.576  72.845  1.00  0.00     0.000 HD 
HETATM   12  C   UNL     1      -7.300   7.117  70.210  1.00  0.00    -0.083 C  
HETATM   13  C   UNL     1      -8.402   6.836  68.973  1.00  0.00    -0.124 C  
HETATM   14  C   UNL     1      -8.718   8.017  68.049  1.00  0.00    -0.125 A  
HETATM   15  C   UNL     1      -9.798   7.928  67.142  1.00  0.00    -0.273 A  
HETATM   16  C   UNL     1     -10.004   8.949  66.197  1.00  0.00    -0.290 A  
HETATM   17  C   UNL     1     -10.793   6.787  67.129  1.00  0.00    -0.462 C  
HETATM   18  C   UNL     1     -10.364   5.540  67.894  1.00  0.00    -0.240 C  
HETATM   19  C   UNL     1      -9.152  10.046  66.121  1.00  0.00    -0.156 A  
HETATM   20  C   UNL     1      -8.048  10.103  66.963  1.00  0.00    -0.117 A  
ENDROOT
BRANCH   4  21
HETATM   21  C   UNL     1     -10.546   5.686  72.155  1.00  0.00    -0.274 C  
HETATM   22  C   UNL     1     -11.632   5.507  72.644  1.00  0.00    -0.293 C  
ENDBRANCH   4  21
BRANCH  19  23
HETATM   23  O   UNL     1      -9.310  11.096  65.256  1.00  0.00    -0.216 OA 
BRANCH  23  24
HETATM   24  C   UNL     1     -10.649  11.347  64.828  1.00  0.00    -0.316 C  
HETATM   25  C   UNL     1     -11.459  12.159  65.838  1.00  0.00    -0.418 C  
HETATM   26  C   UNL     1     -12.592  12.715  65.000  1.00  0.00    -0.504 C  
HETATM   27  C   UNL     1     -11.936  13.073  63.672  1.00  0.00    -0.608 C  
HETATM   28  C   UNL     1     -10.646  12.254  63.593  1.00  0.00    -0.501 C  
ENDBRANCH  23  24
ENDBRANCH  19  23
TORSDOF 3
ENDMDL
MODEL       51
REMARK 921   NORMALIZED FREE ENERGY PREDICTED BY IDOCK:   -5.35 KCAL/MOL
REMARK 922        TOTAL FREE ENERGY PREDICTED BY IDOCK:   -6.67 KCAL/MOL
REMARK 923 INTER-LIGAND FREE ENERGY PREDICTED BY IDOCK:   -6.27 KCAL/MOL
REMARK 924 INTRA-LIGAND FREE ENERGY PREDICTED BY IDOCK:   -0.40 KCAL/MOL
REMARK 927      BINDING AFFINITY PREDICTED BY RF-SCORE:    0.00 PKD
ROOT
HETATM    1  C   UNL     1     -10.167  16.667  67.829  1.00  0.00    -0.292 C  
HETATM    2  C   UNL     1      -9.565  17.293  68.947  1.00  0.00    -0.229 C  
HETATM    3  C   UNL     1      -8.786  16.184  68.334  1.00  0.00    -0.188 C  
HETATM    4  C   UNL     1      -9.531  15.487  66.546  1.00  0.00    -0.273 C  
HETATM    5  C   UNL     1      -8.562  16.435  66.745  1.00  0.00    -0.270 C  
HETATM    6  C   UNL     1      -9.783  11.298  69.186  1.00  0.00     0.008 A  
HETATM    7  O   UNL     1      -8.969  14.574  65.603  1.00  0.00    -0.295 OA 
HETATM    8  C   UNL     1      -7.419  15.003  67.151  1.00  0.00    -0.145 C  
HETATM    9  C   UNL     1      -8.050  17.546  65.881  1.00  0.00    -0.050 C  
HETATM   10  C   UNL     1     -10.827  15.035  68.386  1.00  0.00    -0.256 C  
HETATM   11  H   UNL     1      -9.312  14.253  64.778  1.00  0.00     0.000 HD 
HETATM   12  C   UNL     1      -8.317  13.641  67.829  1.00  0.00    -0.181 C  
HETATM   13  C   UNL     1      -9.710  13.824  68.752  1.00  0.00    -0.069 C  
HETATM   14  C   UNL     1     -10.442  12.541  69.159  1.00  0.00     0.071 A  
HETATM   15  C   UNL     1     -11.734  12.621  69.728  1.00  0.00    -0.354 A  
HETATM   16  C   UNL     1     -12.348  11.461  70.231  1.00  0.00    -0.379 A  
HETATM   17  C   UNL     1     -12.534  13.902  69.817  1.00  0.00    -0.240 C  
HETATM   18  C   UNL     1     -11.739  15.185  69.605  1.00  0.00    -0.353 C  
HETATM   19  C   UNL     1     -11.705  10.228  70.199  1.00  0.00    -0.284 A  
HETATM   20  C   UNL     1     -10.407  10.158  69.706  1.00  0.00    -0.297 A  
ENDROOT
BRANCH   4  21
HETATM   21  C   UNL     1     -10.586  16.150  65.611  1.00  0.00    -0.377 C  
HETATM   22  C   UNL     1     -11.405  16.620  64.862  1.00  0.00     0.048 C  
ENDBRANCH   4  21
BRANCH  19  23
HETATM   23  O   UNL     1     -12.254   9.051  70.633  1.00  0.00    -0.149 OA 
BRANCH  23  24
HETATM   24  C   UNL     1     -11.324   8.070  71.093  1.00  0.00    -0.266 C  
HETATM   25  C   UNL     1     -11.126   8.095  72.609  1.00  0.00    -0.450 C  
HETATM   26  C   UNL     1     -10.549   6.726  72.901  1.00  0.00    -0.278 C  
HETATM   27  C   UNL     1     -11.314   5.790  71.973  1.00  0.00    -0.289 C  
HETATM   28  C   UNL     1     -11.880   6.663  70.851  1.00  0.00    -0.434 C  
ENDBRANCH  23  24
ENDBRANCH  19  23
TORSDOF 3
ENDMDL
MODEL       52
REMARK 921   NORMALIZED FREE ENERGY PREDICTED BY IDOCK:   -5.31 KCAL/MOL
REMARK 922        TOTAL FREE ENERGY PREDICTED BY IDOCK:   -6.62 KCAL/MOL
REMARK 923 INTER-LIGAND FREE ENERGY PREDICTED BY IDOCK:   -6.66 KCAL/MOL
REMARK 924 INTRA-LIGAND FREE ENERGY PREDICTED BY IDOCK:    0.04 KCAL/MOL
REMARK 927      BINDING AFFINITY PREDICTED BY RF-SCORE:    0.00 PKD
ROOT
HETATM    1  C   UNL     1      -9.661  19.056  68.348  1.00  0.00    -0.442 C  
HETATM    2  C   UNL     1      -9.251  19.277  69.684  1.00  0.00     0.338 C  
HETATM    3  C   UNL     1      -8.223  18.689  68.785  1.00  0.00    -0.299 C  
HETATM    4  C   UNL     1      -8.736  18.651  66.791  1.00  0.00    -0.292 C  
HETATM    5  C   UNL     1      -8.013  19.603  67.460  1.00  0.00    -0.316 C  
HETATM    6  C   UNL     1      -8.114  13.788  67.534  1.00  0.00    -0.192 A  
HETATM    7  O   UNL     1      -7.953  18.330  65.641  1.00  0.00    -0.494 OA 
HETATM    8  C   UNL     1      -6.588  18.383  67.407  1.00  0.00    -0.199 C  
HETATM    9  C   UNL     1      -7.739  21.047  67.166  1.00  0.00    -0.156 C  
HETATM   10  C   UNL     1      -9.952  17.245  68.139  1.00  0.00    -0.303 C  
HETATM   11  H   UNL     1      -8.190  18.313  64.721  1.00  0.00     0.000 HD 
HETATM   12  C   UNL     1      -7.175  16.717  67.387  1.00  0.00    -0.184 C  
HETATM   13  C   UNL     1      -8.601  16.233  68.134  1.00  0.00    -0.183 C  
HETATM   14  C   UNL     1      -9.036  14.780  67.916  1.00  0.00    -0.172 A  
HETATM   15  C   UNL     1     -10.329  14.368  68.312  1.00  0.00    -0.239 A  
HETATM   16  C   UNL     1     -10.680  13.008  68.245  1.00  0.00    -0.261 A  
HETATM   17  C   UNL     1     -11.401  15.318  68.798  1.00  0.00    -0.318 C  
HETATM   18  C   UNL     1     -10.910  16.704  69.201  1.00  0.00    -0.315 C  
HETATM   19  C   UNL     1      -9.773  12.047  67.810  1.00  0.00    -0.192 A  
HETATM   20  C   UNL     1      -8.479  12.438  67.489  1.00  0.00    -0.175 A  
ENDROOT
BRANCH   4  21
HETATM   21  C   UNL     1      -9.885  19.418  66.071  1.00  0.00    -0.383 C  
HETATM   22  C   UNL     1     -10.740  20.028  65.481  1.00  0.00    -0.259 C  
ENDBRANCH   4  21
BRANCH  19  23
HETATM   23  O   UNL     1     -10.054  10.712  67.682  1.00  0.00    -0.169 OA 
BRANCH  23  24
HETATM   24  C   UNL     1     -10.290  10.258  66.349  1.00  0.00    -0.195 C  
HETATM   25  C   UNL     1     -10.475  11.401  65.351  1.00  0.00    -0.336 C  
HETATM   26  C   UNL     1     -10.201  10.737  64.017  1.00  0.00    -0.390 C  
HETATM   27  C   UNL     1      -9.042   9.789  64.300  1.00  0.00    -0.293 C  
HETATM   28  C   UNL     1      -9.048   9.540  65.810  1.00  0.00    -0.243 C  
ENDBRANCH  23  24
ENDBRANCH  19  23
TORSDOF 3
ENDMDL
MODEL       53
REMARK 921   NORMALIZED FREE ENERGY PREDICTED BY IDOCK:   -5.29 KCAL/MOL
REMARK 922        TOTAL FREE ENERGY PREDICTED BY IDOCK:   -6.60 KCAL/MOL
REMARK 923 INTER-LIGAND FREE ENERGY PREDICTED BY IDOCK:   -6.27 KCAL/MOL
REMARK 924 INTRA-LIGAND FREE ENERGY PREDICTED BY IDOCK:   -0.33 KCAL/MOL
REMARK 927      BINDING AFFINITY PREDICTED BY RF-SCORE:    0.00 PKD
ROOT
HETATM    1  C   UNL     1      -9.448  12.949  66.162  1.00  0.00    -0.161 C  
HETATM    2  C   UNL     1     -10.309  12.492  65.135  1.00  0.00    -0.312 C  
HETATM    3  C   UNL     1     -10.980  12.949  66.382  1.00  0.00    -0.310 C  
HETATM    4  C   UNL     1      -9.743  13.880  67.739  1.00  0.00    -0.225 C  
HETATM    5  C   UNL     1     -10.523  14.457  66.773  1.00  0.00    -0.273 C  
HETATM    6  C   UNL     1     -11.302  10.107  70.554  1.00  0.00    -0.416 A  
HETATM    7  O   UNL     1     -10.054  14.588  68.939  1.00  0.00    -0.234 OA 
HETATM    8  C   UNL     1     -11.975  14.107  67.908  1.00  0.00    -0.378 C  
HETATM    9  C   UNL     1     -10.448  15.786  66.082  1.00  0.00    -0.326 C  
HETATM   10  C   UNL     1      -9.365  11.633  67.454  1.00  0.00    -0.168 C  
HETATM   11  H   UNL     1      -9.484  15.017  69.566  1.00  0.00     0.000 HD 
HETATM   12  C   UNL     1     -11.675  12.683  68.909  1.00  0.00    -0.370 C  
HETATM   13  C   UNL     1     -10.739  11.382  68.403  1.00  0.00    -0.237 C  
HETATM   14  C   UNL     1     -10.469  10.282  69.435  1.00  0.00    -0.259 A  
HETATM   15  C   UNL     1      -9.506   9.284  69.160  1.00  0.00    -0.157 A  
HETATM   16  C   UNL     1      -9.357   8.197  70.039  1.00  0.00    -0.159 A  
HETATM   17  C   UNL     1      -8.582   9.315  67.963  1.00  0.00    -0.121 C  
HETATM   18  C   UNL     1      -8.984  10.279  66.853  1.00  0.00    -0.149 C  
HETATM   19  C   UNL     1     -10.153   8.069  71.174  1.00  0.00    -0.188 A  
HETATM   20  C   UNL     1     -11.148   9.009  71.409  1.00  0.00    -0.399 A  
ENDROOT
BRANCH   4  21
HETATM   21  C   UNL     1      -8.307  14.440  67.517  1.00  0.00    -0.198 C  
HETATM   22  C   UNL     1      -7.195  14.887  67.393  1.00  0.00    -0.213 C  
ENDBRANCH   4  21
BRANCH  19  23
HETATM   23  O   UNL     1     -10.040   7.061  72.094  1.00  0.00    -0.180 OA 
BRANCH  23  24
HETATM   24  C   UNL     1     -10.235   5.740  71.589  1.00  0.00    -0.203 C  
HETATM   25  C   UNL     1      -8.935   4.941  71.485  1.00  0.00    -0.160 C  
HETATM   26  C   UNL     1      -9.418   3.507  71.435  1.00  0.00    -0.226 C  
HETATM   27  C   UNL     1     -10.581   3.467  72.419  1.00  0.00    -0.019 C  
HETATM   28  C   UNL     1     -11.058   4.912  72.581  1.00  0.00    -0.227 C  
ENDBRANCH  23  24
ENDBRANCH  19  23
TORSDOF 3
ENDMDL
MODEL       54
REMARK 921   NORMALIZED FREE ENERGY PREDICTED BY IDOCK:   -5.28 KCAL/MOL
REMARK 922        TOTAL FREE ENERGY PREDICTED BY IDOCK:   -6.58 KCAL/MOL
REMARK 923 INTER-LIGAND FREE ENERGY PREDICTED BY IDOCK:   -6.26 KCAL/MOL
REMARK 924 INTRA-LIGAND FREE ENERGY PREDICTED BY IDOCK:   -0.32 KCAL/MOL
REMARK 927      BINDING AFFINITY PREDICTED BY RF-SCORE:    0.00 PKD
ROOT
HETATM    1  C   UNL     1     -11.302   6.334  70.167  1.00  0.00    -0.476 C  
HETATM    2  C   UNL     1     -10.504   5.241  69.752  1.00  0.00    -0.340 C  
HETATM    3  C   UNL     1      -9.904   6.117  70.793  1.00  0.00    -0.220 C  
HETATM    4  C   UNL     1     -11.185   7.515  71.594  1.00  0.00    -0.243 C  
HETATM    5  C   UNL     1     -10.892   6.266  72.073  1.00  0.00    -0.286 C  
HETATM    6  C   UNL     1      -7.740  10.570  69.755  1.00  0.00    -0.079 A  
HETATM    7  O   UNL     1     -11.019   8.390  72.710  1.00  0.00    -0.317 OA 
HETATM    8  C   UNL     1      -9.268   7.006  72.656  1.00  0.00    -0.154 C  
HETATM    9  C   UNL     1     -11.634   5.340  72.988  1.00  0.00    -0.290 C  
HETATM   10  C   UNL     1     -10.609   7.862  69.398  1.00  0.00    -0.209 C  
HETATM   11  H   UNL     1     -11.610   9.035  73.079  1.00  0.00     0.000 HD 
HETATM   12  C   UNL     1      -8.769   8.347  71.619  1.00  0.00    -0.240 C  
HETATM   13  C   UNL     1      -9.128   8.427  69.979  1.00  0.00    -0.150 C  
HETATM   14  C   UNL     1      -8.735   9.715  69.248  1.00  0.00    -0.159 A  
HETATM   15  C   UNL     1      -9.210   9.950  67.938  1.00  0.00    -0.138 A  
HETATM   16  C   UNL     1      -8.739  11.059  67.213  1.00  0.00    -0.129 A  
HETATM   17  C   UNL     1     -10.237   9.079  67.247  1.00  0.00    -0.323 C  
HETATM   18  C   UNL     1     -10.466   7.713  67.883  1.00  0.00    -0.270 C  
HETATM   19  C   UNL     1      -7.796  11.928  67.752  1.00  0.00    -0.138 A  
HETATM   20  C   UNL     1      -7.273  11.660  69.011  1.00  0.00    -0.094 A  
ENDROOT
BRANCH   4  21
HETATM   21  C   UNL     1     -12.739   7.576  71.493  1.00  0.00    -0.391 C  
HETATM   22  C   UNL     1     -13.941   7.574  71.410  1.00  0.00    -0.468 C  
ENDBRANCH   4  21
BRANCH  19  23
HETATM   23  O   UNL     1      -7.320  13.048  67.122  1.00  0.00    -0.096 OA 
BRANCH  23  24
HETATM   24  C   UNL     1      -7.764  14.294  67.661  1.00  0.00    -0.177 C  
HETATM   25  C   UNL     1      -6.654  15.343  67.735  1.00  0.00    -0.178 C  
HETATM   26  C   UNL     1      -7.421  16.645  67.831  1.00  0.00    -0.169 C  
HETATM   27  C   UNL     1      -8.604  16.455  66.889  1.00  0.00    -0.245 C  
HETATM   28  C   UNL     1      -8.778  14.945  66.715  1.00  0.00    -0.278 C  
ENDBRANCH  23  24
ENDBRANCH  19  23
TORSDOF 3
ENDMDL
MODEL       55
REMARK 921   NORMALIZED FREE ENERGY PREDICTED BY IDOCK:   -5.26 KCAL/MOL
REMARK 922        TOTAL FREE ENERGY PREDICTED BY IDOCK:   -6.56 KCAL/MOL
REMARK 923 INTER-LIGAND FREE ENERGY PREDICTED BY IDOCK:   -6.18 KCAL/MOL
REMARK 924 INTRA-LIGAND FREE ENERGY PREDICTED BY IDOCK:   -0.38 KCAL/MOL
REMARK 927      BINDING AFFINITY PREDICTED BY RF-SCORE:    0.00 PKD
ROOT
HETATM    1  C   UNL     1      -8.882  15.323  68.152  1.00  0.00    -0.171 C  
HETATM    2  C   UNL     1      -7.835  15.705  67.280  1.00  0.00    -0.230 C  
HETATM    3  C   UNL     1      -9.067  15.196  66.621  1.00  0.00    -0.310 C  
HETATM    4  C   UNL     1     -10.675  14.928  67.879  1.00  0.00    -0.265 C  
HETATM    5  C   UNL     1     -10.377  16.022  67.111  1.00  0.00    -0.295 C  
HETATM    6  C   UNL     1     -10.174  10.275  66.241  1.00  0.00    -0.287 A  
HETATM    7  O   UNL     1     -12.039  14.628  67.585  1.00  0.00    -0.558 OA 
HETATM    8  C   UNL     1     -10.989  15.013  65.653  1.00  0.00    -0.357 C  
HETATM    9  C   UNL     1     -10.780  17.462  67.214  1.00  0.00    -0.219 C  
HETATM   10  C   UNL     1      -8.924  13.479  68.208  1.00  0.00    -0.180 C  
HETATM   11  H   UNL     1     -12.781  14.504  68.165  1.00  0.00     0.000 HD 
HETATM   12  C   UNL     1     -10.740  13.284  65.923  1.00  0.00    -0.284 C  
HETATM   13  C   UNL     1      -9.467  12.667  66.830  1.00  0.00    -0.237 C  
HETATM   14  C   UNL     1      -9.464  11.155  67.077  1.00  0.00    -0.193 A  
HETATM   15  C   UNL     1      -8.566  10.600  68.017  1.00  0.00    -0.122 A  
HETATM   16  C   UNL     1      -8.461   9.204  68.143  1.00  0.00    -0.125 A  
HETATM   17  C   UNL     1      -7.698  11.428  68.940  1.00  0.00    -0.108 C  
HETATM   18  C   UNL     1      -7.554  12.896  68.558  1.00  0.00    -0.120 C  
HETATM   19  C   UNL     1      -9.214   8.347  67.346  1.00  0.00    -0.140 A  
HETATM   20  C   UNL     1     -10.044   8.887  66.371  1.00  0.00    -0.333 A  
ENDROOT
BRANCH   4  21
HETATM   21  C   UNL     1     -10.873  15.467  69.327  1.00  0.00    -0.253 C  
HETATM   22  C   UNL     1     -11.070  15.859  70.449  1.00  0.00    -0.382 C  
ENDBRANCH   4  21
BRANCH  19  23
HETATM   23  O   UNL     1      -9.195   6.980  67.438  1.00  0.00    -0.124 OA 
BRANCH  23  24
HETATM   24  C   UNL     1      -9.458   6.277  66.223  1.00  0.00    -0.100 C  
HETATM   25  C   UNL     1      -8.287   5.405  65.770  1.00  0.00    -0.126 C  
HETATM   26  C   UNL     1      -8.941   4.420  64.823  1.00  0.00    -0.149 C  
HETATM   27  C   UNL     1     -10.277   4.098  65.480  1.00  0.00    -0.173 C  
HETATM   28  C   UNL     1     -10.576   5.252  66.440  1.00  0.00    -0.338 C  
ENDBRANCH  23  24
ENDBRANCH  19  23
TORSDOF 3
ENDMDL
MODEL       56
REMARK 921   NORMALIZED FREE ENERGY PREDICTED BY IDOCK:   -5.21 KCAL/MOL
REMARK 922        TOTAL FREE ENERGY PREDICTED BY IDOCK:   -6.50 KCAL/MOL
REMARK 923 INTER-LIGAND FREE ENERGY PREDICTED BY IDOCK:   -6.12 KCAL/MOL
REMARK 924 INTRA-LIGAND FREE ENERGY PREDICTED BY IDOCK:   -0.37 KCAL/MOL
REMARK 927      BINDING AFFINITY PREDICTED BY RF-SCORE:    0.00 PKD
ROOT
HETATM    1  C   UNL     1      -8.412   9.995  67.366  1.00  0.00    -0.121 C  
HETATM    2  C   UNL     1      -7.928   9.454  68.582  1.00  0.00    -0.092 C  
HETATM    3  C   UNL     1      -9.280  10.071  68.645  1.00  0.00    -0.152 C  
HETATM    4  C   UNL     1     -10.086  10.581  66.821  1.00  0.00    -0.219 C  
HETATM    5  C   UNL     1     -10.270   9.425  67.532  1.00  0.00    -0.288 C  
HETATM    6  C   UNL     1     -10.036  15.064  68.940  1.00  0.00    -0.234 A  
HETATM    7  O   UNL     1     -11.401  11.022  66.481  1.00  0.00    -0.235 OA 
HETATM    8  C   UNL     1     -11.409  10.430  68.634  1.00  0.00    -0.277 C  
HETATM    9  C   UNL     1     -10.692   8.048  67.119  1.00  0.00    -0.285 C  
HETATM   10  C   UNL     1      -8.274  11.833  67.473  1.00  0.00    -0.152 C  
HETATM   11  H   UNL     1     -11.772  11.258  65.640  1.00  0.00     0.000 HD 
HETATM   12  C   UNL     1     -10.925  12.128  68.674  1.00  0.00    -0.284 C  
HETATM   13  C   UNL     1      -9.331  12.636  68.517  1.00  0.00    -0.082 C  
HETATM   14  C   UNL     1      -9.091  14.148  68.445  1.00  0.00    -0.191 A  
HETATM   15  C   UNL     1      -7.817  14.638  68.080  1.00  0.00    -0.128 A  
HETATM   16  C   UNL     1      -7.553  16.018  68.150  1.00  0.00    -0.139 A  
HETATM   17  C   UNL     1      -6.688  13.761  67.585  1.00  0.00    -0.189 C  
HETATM   18  C   UNL     1      -6.858  12.269  67.850  1.00  0.00    -0.093 C  
HETATM   19  C   UNL     1      -8.520  16.918  68.589  1.00  0.00    -0.260 A  
HETATM   20  C   UNL     1      -9.749  16.432  69.016  1.00  0.00    -0.262 A  
ENDROOT
BRANCH   4  21
HETATM   21  C   UNL     1      -9.627  10.138  65.400  1.00  0.00    -0.325 C  
HETATM   22  C   UNL     1      -9.227   9.815  64.310  1.00  0.00    -0.286 C  
ENDBRANCH   4  21
BRANCH  19  23
HETATM   23  O   UNL     1      -8.350  18.276  68.647  1.00  0.00    -0.318 OA 
BRANCH  23  24
HETATM   24  C   UNL     1      -7.522  18.838  67.629  1.00  0.00    -0.229 C  
HETATM   25  C   UNL     1      -8.305  19.263  66.386  1.00  0.00    -0.330 C  
HETATM   26  C   UNL     1      -7.368  20.243  65.710  1.00  0.00    -0.236 C  
HETATM   27  C   UNL     1      -6.750  21.027  66.862  1.00  0.00    -0.388 C  
HETATM   28  C   UNL     1      -6.917  20.160  68.112  1.00  0.00    -0.326 C  
ENDBRANCH  23  24
ENDBRANCH  19  23
TORSDOF 3
ENDMDL
MODEL       57
REMARK 921   NORMALIZED FREE ENERGY PREDICTED BY IDOCK:   -5.18 KCAL/MOL
REMARK 922        TOTAL FREE ENERGY PREDICTED BY IDOCK:   -6.46 KCAL/MOL
REMARK 923 INTER-LIGAND FREE ENERGY PREDICTED BY IDOCK:   -6.10 KCAL/MOL
REMARK 924 INTRA-LIGAND FREE ENERGY PREDICTED BY IDOCK:   -0.36 KCAL/MOL
REMARK 927      BINDING AFFINITY PREDICTED BY RF-SCORE:    0.00 PKD
ROOT
HETATM    1  C   UNL     1     -11.351  15.531  67.578  1.00  0.00    -0.232 C  
HETATM    2  C   UNL     1     -11.611  15.945  68.906  1.00  0.00    -0.392 C  
HETATM    3  C   UNL     1     -10.177  15.769  68.557  1.00  0.00    -0.216 C  
HETATM    4  C   UNL     1      -9.803  15.458  66.557  1.00  0.00    -0.272 C  
HETATM    5  C   UNL     1      -9.782  16.642  67.245  1.00  0.00    -0.245 C  
HETATM    6  C   UNL     1      -7.904  11.254  68.375  1.00  0.00    -0.136 A  
HETATM    7  O   UNL     1      -8.569  15.423  65.840  1.00  0.00    -0.324 OA 
HETATM    8  C   UNL     1      -8.132  16.071  67.932  1.00  0.00    -0.149 C  
HETATM    9  C   UNL     1      -9.928  18.066  66.801  1.00  0.00    -0.346 C  
HETATM   10  C   UNL     1     -10.894  13.743  67.626  1.00  0.00    -0.264 C  
HETATM   11  H   UNL     1      -8.396  15.279  64.918  1.00  0.00     0.000 HD 
HETATM   12  C   UNL     1      -8.051  14.309  68.019  1.00  0.00    -0.145 C  
HETATM   13  C   UNL     1      -9.395  13.337  68.290  1.00  0.00    -0.205 C  
HETATM   14  C   UNL     1      -9.180  11.822  68.211  1.00  0.00    -0.188 A  
HETATM   15  C   UNL     1     -10.296  10.955  68.194  1.00  0.00    -0.202 A  
HETATM   16  C   UNL     1     -10.102   9.565  68.264  1.00  0.00    -0.210 A  
HETATM   17  C   UNL     1     -11.728  11.431  68.079  1.00  0.00    -0.324 C  
HETATM   18  C   UNL     1     -11.947  12.913  68.361  1.00  0.00    -0.289 C  
HETATM   19  C   UNL     1      -8.827   9.016  68.368  1.00  0.00    -0.134 A  
HETATM   20  C   UNL     1      -7.732   9.867  68.458  1.00  0.00    -0.081 A  
ENDROOT
BRANCH   4  21
HETATM   21  C   UNL     1     -10.756  15.688  65.345  1.00  0.00    -0.424 C  
HETATM   22  C   UNL     1     -11.530  15.869  64.441  1.00  0.00    -0.268 C  
ENDBRANCH   4  21
BRANCH  19  23
HETATM   23  O   UNL     1      -8.557   7.674  68.402  1.00  0.00    -0.125 OA 
BRANCH  23  24
HETATM   24  C   UNL     1      -9.377   6.902  69.280  1.00  0.00    -0.144 C  
HETATM   25  C   UNL     1      -9.344   5.406  68.969  1.00  0.00    -0.163 C  
HETATM   26  C   UNL     1      -9.829   4.777  70.260  1.00  0.00    -0.313 C  
HETATM   27  C   UNL     1      -9.185   5.621  71.353  1.00  0.00    -0.163 C  
HETATM   28  C   UNL     1      -8.822   6.960  70.707  1.00  0.00    -0.150 C  
ENDBRANCH  23  24
ENDBRANCH  19  23
TORSDOF 3
ENDMDL
MODEL       58
REMARK 921   NORMALIZED FREE ENERGY PREDICTED BY IDOCK:   -5.10 KCAL/MOL
REMARK 922        TOTAL FREE ENERGY PREDICTED BY IDOCK:   -6.37 KCAL/MOL
REMARK 923 INTER-LIGAND FREE ENERGY PREDICTED BY IDOCK:   -6.05 KCAL/MOL
REMARK 924 INTRA-LIGAND FREE ENERGY PREDICTED BY IDOCK:   -0.32 KCAL/MOL
REMARK 927      BINDING AFFINITY PREDICTED BY RF-SCORE:    0.00 PKD
ROOT
HETATM    1  C   UNL     1     -11.664  14.544  67.774  1.00  0.00    -0.403 C  
HETATM    2  C   UNL     1     -11.739  15.044  69.096  1.00  0.00    -0.345 C  
HETATM    3  C   UNL     1     -10.374  14.978  68.510  1.00  0.00    -0.230 C  
HETATM    4  C   UNL     1     -10.314  14.533  66.501  1.00  0.00    -0.283 C  
HETATM    5  C   UNL     1     -10.306  15.768  67.093  1.00  0.00    -0.291 C  
HETATM    6  C   UNL     1      -7.683  10.703  68.233  1.00  0.00    -0.107 A  
HETATM    7  O   UNL     1      -9.222  14.556  65.581  1.00  0.00    -0.501 OA 
HETATM    8  C   UNL     1      -8.510  15.420  67.513  1.00  0.00    -0.188 C  
HETATM    9  C   UNL     1     -10.680  17.128  66.587  1.00  0.00    -0.082 C  
HETATM   10  C   UNL     1     -11.012  12.819  67.861  1.00  0.00    -0.262 C  
HETATM   11  H   UNL     1      -9.194  14.350  64.655  1.00  0.00     0.000 HD 
HETATM   12  C   UNL     1      -8.223  13.688  67.704  1.00  0.00    -0.178 C  
HETATM   13  C   UNL     1      -9.387  12.618  68.274  1.00  0.00    -0.195 C  
HETATM   14  C   UNL     1      -9.023  11.130  68.261  1.00  0.00    -0.166 A  
HETATM   15  C   UNL     1     -10.024  10.161  68.501  1.00  0.00    -0.177 A  
HETATM   16  C   UNL     1      -9.669   8.807  68.629  1.00  0.00    -0.170 A  
HETATM   17  C   UNL     1     -11.498  10.485  68.611  1.00  0.00    -0.290 C  
HETATM   18  C   UNL     1     -11.828  11.958  68.826  1.00  0.00    -0.371 C  
HETATM   19  C   UNL     1      -8.343   8.395  68.543  1.00  0.00    -0.131 A  
HETATM   20  C   UNL     1      -7.349   9.352  68.379  1.00  0.00    -0.077 A  
ENDROOT
BRANCH   4  21
HETATM   21  C   UNL     1     -11.477  14.566  65.466  1.00  0.00    -0.343 C  
HETATM   22  C   UNL     1     -12.409  14.584  64.702  1.00  0.00    -0.419 C  
ENDBRANCH   4  21
BRANCH  19  23
HETATM   23  O   UNL     1      -7.925   7.092  68.619  1.00  0.00    -0.119 OA 
BRANCH  23  24
HETATM   24  C   UNL     1      -8.724   6.146  67.909  1.00  0.00    -0.113 C  
HETATM   25  C   UNL     1      -7.937   5.372  66.851  1.00  0.00    -0.101 C  
HETATM   26  C   UNL     1      -8.797   4.148  66.613  1.00  0.00    -0.119 C  
HETATM   27  C   UNL     1      -9.312   3.775  67.998  1.00  0.00    -0.232 C  
HETATM   28  C   UNL     1      -9.193   5.037  68.856  1.00  0.00    -0.155 C  
ENDBRANCH  23  24
ENDBRANCH  19  23
TORSDOF 3
ENDMDL
MODEL       59
REMARK 921   NORMALIZED FREE ENERGY PREDICTED BY IDOCK:   -5.02 KCAL/MOL
REMARK 922        TOTAL FREE ENERGY PREDICTED BY IDOCK:   -6.28 KCAL/MOL
REMARK 923 INTER-LIGAND FREE ENERGY PREDICTED BY IDOCK:   -6.09 KCAL/MOL
REMARK 924 INTRA-LIGAND FREE ENERGY PREDICTED BY IDOCK:   -0.19 KCAL/MOL
REMARK 927      BINDING AFFINITY PREDICTED BY RF-SCORE:    0.00 PKD
ROOT
HETATM    1  C   UNL     1      -9.607   7.685  68.527  1.00  0.00    -0.149 C  
HETATM    2  C   UNL     1     -10.772   7.014  68.082  1.00  0.00    -0.242 C  
HETATM    3  C   UNL     1      -9.995   7.720  67.029  1.00  0.00    -0.314 C  
HETATM    4  C   UNL     1      -8.162   8.434  67.636  1.00  0.00    -0.126 C  
HETATM    5  C   UNL     1      -8.443   7.241  67.026  1.00  0.00    -0.118 C  
HETATM    6  C   UNL     1     -10.259  12.715  66.272  1.00  0.00    -0.264 A  
HETATM    7  O   UNL     1      -7.090   8.995  66.877  1.00  0.00    -0.077 OA 
HETATM    8  C   UNL     1      -8.622   8.233  65.443  1.00  0.00    -0.176 C  
HETATM    9  C   UNL     1      -7.708   5.935  66.982  1.00  0.00    -0.101 C  
HETATM   10  C   UNL     1      -9.977   9.493  68.560  1.00  0.00    -0.184 C  
HETATM   11  H   UNL     1      -6.245   9.325  67.157  1.00  0.00     0.000 HD 
HETATM   12  C   UNL     1      -9.155   9.883  65.780  1.00  0.00    -0.208 C  
HETATM   13  C   UNL     1     -10.145  10.284  67.078  1.00  0.00    -0.268 C  
HETATM   14  C   UNL     1     -10.414  11.775  67.307  1.00  0.00    -0.242 A  
HETATM   15  C   UNL     1     -11.036  12.200  68.502  1.00  0.00    -0.295 A  
HETATM   16  C   UNL     1     -11.411  13.546  68.654  1.00  0.00    -0.343 A  
HETATM   17  C   UNL     1     -11.316  11.285  69.675  1.00  0.00    -0.359 C  
HETATM   18  C   UNL     1     -11.239   9.793  69.371  1.00  0.00    -0.154 C  
HETATM   19  C   UNL     1     -11.199  14.476  67.641  1.00  0.00    -0.322 A  
HETATM   20  C   UNL     1     -10.653  14.047  66.437  1.00  0.00    -0.280 A  
ENDROOT
BRANCH   4  21
HETATM   21  C   UNL     1      -7.359   8.074  68.922  1.00  0.00    -0.081 C  
HETATM   22  C   UNL     1      -6.697   7.818  69.896  1.00  0.00    -0.042 C  
ENDBRANCH   4  21
BRANCH  19  23
HETATM   23  O   UNL     1     -11.502  15.809  67.731  1.00  0.00    -0.290 OA 
BRANCH  23  24
HETATM   24  C   UNL     1     -10.590  16.598  68.495  1.00  0.00    -0.338 C  
HETATM   25  C   UNL     1      -9.125  16.265  68.208  1.00  0.00    -0.197 C  
HETATM   26  C   UNL     1      -8.393  17.498  68.698  1.00  0.00    -0.258 C  
HETATM   27  C   UNL     1      -9.290  18.658  68.284  1.00  0.00    -0.359 C  
HETATM   28  C   UNL     1     -10.688  18.069  68.076  1.00  0.00    -0.301 C  
ENDBRANCH  23  24
ENDBRANCH  19  23
TORSDOF 3
ENDMDL
MODEL       60
REMARK 921   NORMALIZED FREE ENERGY PREDICTED BY IDOCK:   -4.93 KCAL/MOL
REMARK 922        TOTAL FREE ENERGY PREDICTED BY IDOCK:   -6.17 KCAL/MOL
REMARK 923 INTER-LIGAND FREE ENERGY PREDICTED BY IDOCK:   -5.86 KCAL/MOL
REMARK 924 INTRA-LIGAND FREE ENERGY PREDICTED BY IDOCK:   -0.31 KCAL/MOL
REMARK 927      BINDING AFFINITY PREDICTED BY RF-SCORE:    0.00 PKD
ROOT
HETATM    1  C   UNL     1      -8.037  10.500  67.947  1.00  0.00    -0.107 C  
HETATM    2  C   UNL     1      -8.593  10.034  69.162  1.00  0.00    -0.158 C  
HETATM    3  C   UNL     1      -9.539  10.726  68.247  1.00  0.00    -0.170 C  
HETATM    4  C   UNL     1      -8.790  11.131  66.373  1.00  0.00    -0.178 C  
HETATM    5  C   UNL     1      -9.527  10.048  66.771  1.00  0.00    -0.209 C  
HETATM    6  C   UNL     1      -9.805  15.760  67.830  1.00  0.00    -0.217 A  
HETATM    7  O   UNL     1      -9.444  11.614  65.199  1.00  0.00    -0.327 OA 
HETATM    8  C   UNL     1     -11.009  11.199  66.737  1.00  0.00    -0.309 C  
HETATM    9  C   UNL     1      -9.670   8.667  66.207  1.00  0.00    -0.322 C  
HETATM   10  C   UNL     1      -7.839  12.331  68.085  1.00  0.00    -0.148 C  
HETATM   11  H   UNL     1      -9.099  11.801  64.335  1.00  0.00     0.000 HD 
HETATM   12  C   UNL     1     -10.531  12.866  67.073  1.00  0.00    -0.244 C  
HETATM   13  C   UNL     1      -9.241  13.272  68.071  1.00  0.00    -0.217 C  
HETATM   14  C   UNL     1      -8.876  14.757  68.158  1.00  0.00    -0.170 A  
HETATM   15  C   UNL     1      -7.670  15.147  68.784  1.00  0.00    -0.143 A  
HETATM   16  C   UNL     1      -7.400  16.511  68.992  1.00  0.00    -0.228 A  
HETATM   17  C   UNL     1      -6.607  14.172  69.241  1.00  0.00    -0.120 C  
HETATM   18  C   UNL     1      -7.054  12.717  69.339  1.00  0.00     0.186 C  
HETATM   19  C   UNL     1      -8.306  17.495  68.609  1.00  0.00    -0.258 A  
HETATM   20  C   UNL     1      -9.524  17.112  68.059  1.00  0.00    -0.262 A  
ENDROOT
BRANCH   4  21
HETATM   21  C   UNL     1      -7.515  10.550  65.692  1.00  0.00    -0.129 C  
HETATM   22  C   UNL     1      -6.552  10.056  65.163  1.00  0.00    -0.115 C  
ENDBRANCH   4  21
BRANCH  19  23
HETATM   23  O   UNL     1      -8.097  18.842  68.743  1.00  0.00    -0.332 OA 
BRANCH  23  24
HETATM   24  C   UNL     1      -7.022  19.378  67.972  1.00  0.00    -0.255 C  
HETATM   25  C   UNL     1      -7.430  20.596  67.142  1.00  0.00    -0.381 C  
HETATM   26  C   UNL     1      -6.104  21.266  66.843  1.00  0.00    -0.401 C  
HETATM   27  C   UNL     1      -5.307  21.113  68.133  1.00  0.00    -0.345 C  
HETATM   28  C   UNL     1      -5.943  19.950  68.899  1.00  0.00    -0.298 C  
ENDBRANCH  23  24
ENDBRANCH  19  23
TORSDOF 3
ENDMDL
MODEL       61
REMARK 921   NORMALIZED FREE ENERGY PREDICTED BY IDOCK:   -4.88 KCAL/MOL
REMARK 922        TOTAL FREE ENERGY PREDICTED BY IDOCK:   -6.12 KCAL/MOL
REMARK 923 INTER-LIGAND FREE ENERGY PREDICTED BY IDOCK:   -5.77 KCAL/MOL
REMARK 924 INTRA-LIGAND FREE ENERGY PREDICTED BY IDOCK:   -0.35 KCAL/MOL
REMARK 927      BINDING AFFINITY PREDICTED BY RF-SCORE:    0.00 PKD
ROOT
HETATM    1  C   UNL     1      -9.083   5.300  71.473  1.00  0.00    -0.165 C  
HETATM    2  C   UNL     1      -7.761   4.936  71.119  1.00  0.00    -0.083 C  
HETATM    3  C   UNL     1      -7.917   6.286  71.724  1.00  0.00    -0.102 C  
HETATM    4  C   UNL     1      -9.783   6.678  72.499  1.00  0.00    -0.157 C  
HETATM    5  C   UNL     1      -8.679   6.202  73.155  1.00  0.00    -0.120 C  
HETATM    6  C   UNL     1      -9.553  10.309  69.130  1.00  0.00    -0.229 A  
HETATM    7  O   UNL     1     -10.243   7.772  73.293  1.00  0.00    -0.317 OA 
HETATM    8  C   UNL     1      -8.028   7.961  73.082  1.00  0.00    -0.198 C  
HETATM    9  C   UNL     1      -8.523   5.425  74.427  1.00  0.00    -0.109 C  
HETATM   10  C   UNL     1      -9.693   6.501  70.212  1.00  0.00    -0.181 C  
HETATM   11  H   UNL     1     -11.104   7.954  73.651  1.00  0.00     0.000 HD 
HETATM   12  C   UNL     1      -8.654   8.815  71.668  1.00  0.00    -0.228 C  
HETATM   13  C   UNL     1      -9.020   8.050  70.217  1.00  0.00    -0.147 C  
HETATM   14  C   UNL     1      -9.673   8.908  69.129  1.00  0.00    -0.168 A  
HETATM   15  C   UNL     1     -10.220   8.290  67.982  1.00  0.00    -0.265 A  
HETATM   16  C   UNL     1     -10.691   9.080  66.919  1.00  0.00    -0.150 A  
HETATM   17  C   UNL     1     -10.359   6.792  67.820  1.00  0.00    -0.245 C  
HETATM   18  C   UNL     1      -9.538   5.952  68.793  1.00  0.00    -0.152 C  
HETATM   19  C   UNL     1     -10.616  10.469  66.962  1.00  0.00    -0.253 A  
HETATM   20  C   UNL     1     -10.014  11.079  68.056  1.00  0.00    -0.188 A  
ENDROOT
BRANCH   4  21
HETATM   21  C   UNL     1     -10.931   5.675  72.817  1.00  0.00    -0.320 C  
HETATM   22  C   UNL     1     -11.847   4.921  73.027  1.00  0.00    -0.127 C  
ENDBRANCH   4  21
BRANCH  19  23
HETATM   23  O   UNL     1     -11.088  11.305  65.984  1.00  0.00    -0.228 OA 
BRANCH  23  24
HETATM   24  C   UNL     1     -10.736  12.681  66.128  1.00  0.00    -0.267 C  
HETATM   25  C   UNL     1     -10.169  13.291  64.846  1.00  0.00    -0.313 C  
HETATM   26  C   UNL     1     -10.352  14.779  65.065  1.00  0.00    -0.420 C  
HETATM   27  C   UNL     1     -11.706  14.894  65.754  1.00  0.00    -0.179 C  
HETATM   28  C   UNL     1     -11.993  13.523  66.373  1.00  0.00    -0.459 C  
ENDBRANCH  23  24
ENDBRANCH  19  23
TORSDOF 3
ENDMDL
MODEL       62
REMARK 921   NORMALIZED FREE ENERGY PREDICTED BY IDOCK:   -4.88 KCAL/MOL
REMARK 922        TOTAL FREE ENERGY PREDICTED BY IDOCK:   -6.11 KCAL/MOL
REMARK 923 INTER-LIGAND FREE ENERGY PREDICTED BY IDOCK:   -5.75 KCAL/MOL
REMARK 924 INTRA-LIGAND FREE ENERGY PREDICTED BY IDOCK:   -0.37 KCAL/MOL
REMARK 927      BINDING AFFINITY PREDICTED BY RF-SCORE:    0.00 PKD
ROOT
HETATM    1  C   UNL     1      -8.380   7.015  65.580  1.00  0.00    -0.135 C  
HETATM    2  C   UNL     1      -7.144   7.233  64.924  1.00  0.00    -0.064 C  
HETATM    3  C   UNL     1      -7.170   7.564  66.373  1.00  0.00    -0.075 C  
HETATM    4  C   UNL     1      -8.870   6.967  67.368  1.00  0.00    -0.118 C  
HETATM    5  C   UNL     1      -7.680   6.299  67.254  1.00  0.00    -0.100 C  
HETATM    6  C   UNL     1      -9.148  11.847  68.200  1.00  0.00    -0.190 A  
HETATM    7  O   UNL     1      -9.169   6.956  68.764  1.00  0.00    -0.133 OA 
HETATM    8  C   UNL     1      -7.019   7.509  68.527  1.00  0.00    -0.079 C  
HETATM    9  C   UNL     1      -7.324   4.848  67.382  1.00  0.00    -0.078 C  
HETATM   10  C   UNL     1      -9.173   8.660  65.847  1.00  0.00    -0.264 C  
HETATM   11  H   UNL     1      -9.953   6.680  69.224  1.00  0.00     0.000 HD 
HETATM   12  C   UNL     1      -7.859   9.060  68.430  1.00  0.00    -0.103 C  
HETATM   13  C   UNL     1      -8.481   9.683  66.998  1.00  0.00    -0.124 C  
HETATM   14  C   UNL     1      -9.293  10.978  67.103  1.00  0.00    -0.177 A  
HETATM   15  C   UNL     1     -10.038  11.431  65.991  1.00  0.00    -0.275 A  
HETATM   16  C   UNL     1     -10.668  12.687  66.036  1.00  0.00    -0.295 A  
HETATM   17  C   UNL     1     -10.229  10.627  64.724  1.00  0.00    -0.401 C  
HETATM   18  C   UNL     1      -9.271   9.455  64.544  1.00  0.00    -0.155 C  
HETATM   19  C   UNL     1     -10.561  13.510  67.153  1.00  0.00    -0.264 A  
HETATM   20  C   UNL     1      -9.771  13.100  68.220  1.00  0.00    -0.223 A  
ENDROOT
BRANCH   4  21
HETATM   21  C   UNL     1      -9.967   5.964  66.899  1.00  0.00    -0.205 C  
HETATM   22  C   UNL     1     -10.845   5.227  66.529  1.00  0.00    -0.196 C  
ENDBRANCH   4  21
BRANCH  19  23
HETATM   23  O   UNL     1     -11.177  14.727  67.286  1.00  0.00    -0.324 OA 
BRANCH  23  24
HETATM   24  C   UNL     1     -10.304  15.855  67.351  1.00  0.00    -0.288 C  
HETATM   25  C   UNL     1     -10.235  16.635  66.037  1.00  0.00    -0.366 C  
HETATM   26  C   UNL     1      -9.706  17.987  66.470  1.00  0.00    -0.338 C  
HETATM   27  C   UNL     1     -10.405  18.256  67.797  1.00  0.00    -0.419 C  
HETATM   28  C   UNL     1     -10.860  16.895  68.329  1.00  0.00    -0.357 C  
ENDBRANCH  23  24
ENDBRANCH  19  23
TORSDOF 3
ENDMDL
MODEL       63
REMARK 921   NORMALIZED FREE ENERGY PREDICTED BY IDOCK:   -4.87 KCAL/MOL
REMARK 922        TOTAL FREE ENERGY PREDICTED BY IDOCK:   -6.11 KCAL/MOL
REMARK 923 INTER-LIGAND FREE ENERGY PREDICTED BY IDOCK:   -5.75 KCAL/MOL
REMARK 924 INTRA-LIGAND FREE ENERGY PREDICTED BY IDOCK:   -0.36 KCAL/MOL
REMARK 927      BINDING AFFINITY PREDICTED BY RF-SCORE:    0.00 PKD
ROOT
HETATM    1  C   UNL     1      -7.767   5.918  65.211  1.00  0.00    -0.095 C  
HETATM    2  C   UNL     1      -6.423   6.310  65.421  1.00  0.00    -0.039 C  
HETATM    3  C   UNL     1      -7.191   5.962  66.646  1.00  0.00    -0.074 C  
HETATM    4  C   UNL     1      -9.035   5.116  66.301  1.00  0.00    -0.130 C  
HETATM    5  C   UNL     1      -7.844   4.480  66.526  1.00  0.00    -0.099 C  
HETATM    6  C   UNL     1     -10.471   9.119  68.850  1.00  0.00    -0.239 A  
HETATM    7  O   UNL     1      -9.958   4.507  67.206  1.00  0.00    -0.188 OA 
HETATM    8  C   UNL     1      -8.078   4.941  68.330  1.00  0.00    -0.085 C  
HETATM    9  C   UNL     1      -7.360   3.102  66.189  1.00  0.00    -0.072 C  
HETATM   10  C   UNL     1      -8.849   7.327  65.712  1.00  0.00    -0.095 C  
HETATM   11  H   UNL     1     -10.809   4.117  67.046  1.00  0.00     0.000 HD 
HETATM   12  C   UNL     1      -9.012   6.433  68.491  1.00  0.00    -0.125 C  
HETATM   13  C   UNL     1      -8.968   7.674  67.360  1.00  0.00    -0.130 C  
HETATM   14  C   UNL     1      -9.931   8.845  67.581  1.00  0.00    -0.248 A  
HETATM   15  C   UNL     1     -10.118   9.802  66.558  1.00  0.00    -0.307 A  
HETATM   16  C   UNL     1     -10.889  10.950  66.808  1.00  0.00    -0.283 A  
HETATM   17  C   UNL     1      -9.547   9.663  65.163  1.00  0.00    -0.324 C  
HETATM   18  C   UNL     1      -8.442   8.624  65.011  1.00  0.00    -0.192 C  
HETATM   19  C   UNL     1     -11.465  11.179  68.054  1.00  0.00    -0.293 A  
HETATM   20  C   UNL     1     -11.224  10.277  69.083  1.00  0.00    -0.268 A  
ENDROOT
BRANCH   4  21
HETATM   21  C   UNL     1      -9.594   4.515  64.977  1.00  0.00    -0.150 C  
HETATM   22  C   UNL     1     -10.073   4.057  63.970  1.00  0.00    -0.162 C  
ENDBRANCH   4  21
BRANCH  19  23
HETATM   23  O   UNL     1     -12.258  12.252  68.361  1.00  0.00    -0.282 OA 
BRANCH  23  24
HETATM   24  C   UNL     1     -11.592  13.358  68.970  1.00  0.00    -0.312 C  
HETATM   25  C   UNL     1     -11.737  14.656  68.175  1.00  0.00    -0.360 C  
HETATM   26  C   UNL     1     -11.425  15.723  69.204  1.00  0.00    -0.383 C  
HETATM   27  C   UNL     1     -12.079  15.214  70.484  1.00  0.00    -0.390 C  
HETATM   28  C   UNL     1     -12.259  13.705  70.305  1.00  0.00    -0.423 C  
ENDBRANCH  23  24
ENDBRANCH  19  23
TORSDOF 3
ENDMDL
MODEL       64
REMARK 921   NORMALIZED FREE ENERGY PREDICTED BY IDOCK:   -4.77 KCAL/MOL
REMARK 922        TOTAL FREE ENERGY PREDICTED BY IDOCK:   -5.99 KCAL/MOL
REMARK 923 INTER-LIGAND FREE ENERGY PREDICTED BY IDOCK:   -5.59 KCAL/MOL
REMARK 924 INTRA-LIGAND FREE ENERGY PREDICTED BY IDOCK:   -0.40 KCAL/MOL
REMARK 927      BINDING AFFINITY PREDICTED BY RF-SCORE:    0.00 PKD
ROOT
HETATM    1  C   UNL     1      -7.104   5.136  66.566  1.00  0.00    -0.069 C  
HETATM    2  C   UNL     1      -5.817   5.597  66.932  1.00  0.00    -0.018 C  
HETATM    3  C   UNL     1      -6.823   5.562  68.027  1.00  0.00    -0.060 C  
HETATM    4  C   UNL     1      -8.589   4.618  67.551  1.00  0.00    -0.103 C  
HETATM    5  C   UNL     1      -7.487   4.086  68.165  1.00  0.00    -0.067 C  
HETATM    6  C   UNL     1     -10.372   9.114  68.639  1.00  0.00    -0.233 A  
HETATM    7  O   UNL     1      -9.692   4.245  68.378  1.00  0.00    -0.152 OA 
HETATM    8  C   UNL     1      -8.059   4.995  69.704  1.00  0.00    -0.078 C  
HETATM    9  C   UNL     1      -6.991   2.678  68.299  1.00  0.00    -0.048 C  
HETATM   10  C   UNL     1      -8.219   6.604  66.459  1.00  0.00    -0.114 C  
HETATM   11  H   UNL     1     -10.506   3.810  68.159  1.00  0.00     0.000 HD 
HETATM   12  C   UNL     1      -8.958   6.457  69.286  1.00  0.00    -0.133 C  
HETATM   13  C   UNL     1      -8.650   7.364  67.904  1.00  0.00    -0.125 C  
HETATM   14  C   UNL     1      -9.601   8.531  67.618  1.00  0.00    -0.187 A  
HETATM   15  C   UNL     1      -9.550   9.186  66.367  1.00  0.00    -0.309 A  
HETATM   16  C   UNL     1     -10.318  10.344  66.152  1.00  0.00    -0.269 A  
HETATM   17  C   UNL     1      -8.719   8.702  65.198  1.00  0.00    -0.179 C  
HETATM   18  C   UNL     1      -7.639   7.682  65.543  1.00  0.00    -0.092 C  
HETATM   19  C   UNL     1     -11.121  10.875  67.156  1.00  0.00    -0.240 A  
HETATM   20  C   UNL     1     -11.118  10.276  68.410  1.00  0.00    -0.302 A  
ENDROOT
BRANCH   4  21
HETATM   21  C   UNL     1      -8.894   3.682  66.342  1.00  0.00    -0.129 C  
HETATM   22  C   UNL     1      -9.171   2.946  65.431  1.00  0.00    -0.131 C  
ENDBRANCH   4  21
BRANCH  19  23
HETATM   23  O   UNL     1     -11.926  11.975  67.011  1.00  0.00    -0.609 OA 
BRANCH  23  24
HETATM   24  C   UNL     1     -11.556  12.874  65.965  1.00  0.00    -0.375 C  
HETATM   25  C   UNL     1     -12.753  13.600  65.350  1.00  0.00    -0.500 C  
HETATM   26  C   UNL     1     -12.117  14.801  64.681  1.00  0.00    -0.437 C  
HETATM   27  C   UNL     1     -11.029  15.240  65.653  1.00  0.00    -0.348 C  
HETATM   28  C   UNL     1     -10.721  14.026  66.532  1.00  0.00    -0.281 C  
ENDBRANCH  23  24
ENDBRANCH  19  23
TORSDOF 3
ENDMDL
MODEL       65
REMARK 921   NORMALIZED FREE ENERGY PREDICTED BY IDOCK:   -4.72 KCAL/MOL
REMARK 922        TOTAL FREE ENERGY PREDICTED BY IDOCK:   -5.93 KCAL/MOL
REMARK 923 INTER-LIGAND FREE ENERGY PREDICTED BY IDOCK:   -5.59 KCAL/MOL
REMARK 924 INTRA-LIGAND FREE ENERGY PREDICTED BY IDOCK:   -0.34 KCAL/MOL
REMARK 927      BINDING AFFINITY PREDICTED BY RF-SCORE:    0.00 PKD
ROOT
HETATM    1  C   UNL     1      -6.269  18.143  67.199  1.00  0.00    -0.182 C  
HETATM    2  C   UNL     1      -5.878  18.157  65.838  1.00  0.00    -0.243 C  
HETATM    3  C   UNL     1      -7.328  17.940  66.089  1.00  0.00    -0.327 C  
HETATM    4  C   UNL     1      -7.920  18.216  68.042  1.00  0.00    -0.264 C  
HETATM    5  C   UNL     1      -7.945  19.123  67.016  1.00  0.00    -0.273 C  
HETATM    6  C   UNL     1      -9.260  13.476  67.477  1.00  0.00    -0.219 A  
HETATM    7  O   UNL     1      -9.227  18.266  68.613  1.00  0.00    -0.313 OA 
HETATM    8  C   UNL     1      -9.451  18.192  66.393  1.00  0.00    -0.284 C  
HETATM    9  C   UNL     1      -7.963  20.621  66.998  1.00  0.00    -0.292 C  
HETATM   10  C   UNL     1      -6.581  16.387  67.676  1.00  0.00    -0.172 C  
HETATM   11  H   UNL     1      -9.501  18.393  69.514  1.00  0.00     0.000 HD 
HETATM   12  C   UNL     1      -9.388  16.489  66.860  1.00  0.00    -0.248 C  
HETATM   13  C   UNL     1      -7.951  15.635  67.037  1.00  0.00    -0.268 C  
HETATM   14  C   UNL     1      -8.060  14.203  67.571  1.00  0.00    -0.199 A  
HETATM   15  C   UNL     1      -6.892  13.512  67.966  1.00  0.00    -0.136 A  
HETATM   16  C   UNL     1      -6.971  12.154  68.321  1.00  0.00    -0.080 A  
HETATM   17  C   UNL     1      -5.525  14.154  68.057  1.00  0.00    -0.120 C  
HETATM   18  C   UNL     1      -5.385  15.494  67.342  1.00  0.00     0.101 C  
HETATM   19  C   UNL     1      -8.178  11.463  68.277  1.00  0.00    -0.150 A  
HETATM   20  C   UNL     1      -9.315  12.120  67.821  1.00  0.00    -0.193 A  
ENDROOT
BRANCH   4  21
HETATM   21  C   UNL     1      -7.144  18.909  69.201  1.00  0.00    -0.303 C  
HETATM   22  C   UNL     1      -6.502  19.440  70.071  1.00  0.00    -0.192 C  
ENDBRANCH   4  21
BRANCH  19  23
HETATM   23  O   UNL     1      -8.340  10.153  68.644  1.00  0.00    -0.106 OA 
BRANCH  23  24
HETATM   24  C   UNL     1      -9.500   9.871  69.427  1.00  0.00    -0.213 C  
HETATM   25  C   UNL     1     -10.276   8.652  68.930  1.00  0.00    -0.221 C  
HETATM   26  C   UNL     1     -11.102   8.257  70.137  1.00  0.00    -0.189 C  
HETATM   27  C   UNL     1     -10.167   8.476  71.320  1.00  0.00    -0.287 C  
HETATM   28  C   UNL     1      -9.090   9.454  70.843  1.00  0.00    -0.220 C  
ENDBRANCH  23  24
ENDBRANCH  19  23
TORSDOF 3
ENDMDL
MODEL       66
REMARK 921   NORMALIZED FREE ENERGY PREDICTED BY IDOCK:   -4.72 KCAL/MOL
REMARK 922        TOTAL FREE ENERGY PREDICTED BY IDOCK:   -5.93 KCAL/MOL
REMARK 923 INTER-LIGAND FREE ENERGY PREDICTED BY IDOCK:   -5.56 KCAL/MOL
REMARK 924 INTRA-LIGAND FREE ENERGY PREDICTED BY IDOCK:   -0.36 KCAL/MOL
REMARK 927      BINDING AFFINITY PREDICTED BY RF-SCORE:    0.00 PKD
ROOT
HETATM    1  C   UNL     1     -11.104  15.967  68.286  1.00  0.00    -0.351 C  
HETATM    2  C   UNL     1     -11.527  15.923  69.636  1.00  0.00    -0.346 C  
HETATM    3  C   UNL     1     -10.059  15.823  69.418  1.00  0.00    -0.268 C  
HETATM    4  C   UNL     1      -9.443  16.185  67.488  1.00  0.00    -0.223 C  
HETATM    5  C   UNL     1      -9.513  17.069  68.531  1.00  0.00    -0.269 C  
HETATM    6  C   UNL     1      -7.756  11.550  67.996  1.00  0.00    -0.119 A  
HETATM    7  O   UNL     1      -8.130  16.347  66.951  1.00  0.00    -0.179 OA 
HETATM    8  C   UNL     1      -7.955  16.243  69.174  1.00  0.00    -0.221 C  
HETATM    9  C   UNL     1      -9.611  18.564  68.578  1.00  0.00    -0.388 C  
HETATM   10  C   UNL     1     -10.646  14.251  67.783  1.00  0.00    -0.253 C  
HETATM   11  H   UNL     1      -7.846  16.513  66.060  1.00  0.00     0.000 HD 
HETATM   12  C   UNL     1      -7.876  14.551  68.673  1.00  0.00    -0.140 C  
HETATM   13  C   UNL     1      -9.237  13.593  68.443  1.00  0.00    -0.169 C  
HETATM   14  C   UNL     1      -9.005  12.185  67.884  1.00  0.00    -0.184 A  
HETATM   15  C   UNL     1     -10.106  11.415  67.447  1.00  0.00    -0.208 A  
HETATM   16  C   UNL     1      -9.914  10.074  67.068  1.00  0.00    -0.257 A  
HETATM   17  C   UNL     1     -11.516  11.952  67.333  1.00  0.00    -0.393 C  
HETATM   18  C   UNL     1     -11.777  13.262  68.069  1.00  0.00    -0.394 C  
HETATM   19  C   UNL     1      -8.659   9.477  67.130  1.00  0.00    -0.132 A  
HETATM   20  C   UNL     1      -7.588  10.210  67.628  1.00  0.00    -0.090 A  
ENDROOT
BRANCH   4  21
HETATM   21  C   UNL     1     -10.242  16.840  66.322  1.00  0.00    -0.341 C  
HETATM   22  C   UNL     1     -10.887  17.305  65.417  1.00  0.00    -0.024 C  
ENDBRANCH   4  21
BRANCH  19  23
HETATM   23  O   UNL     1      -8.387   8.192  66.742  1.00  0.00    -0.111 OA 
BRANCH  23  24
HETATM   24  C   UNL     1      -8.620   7.901  65.364  1.00  0.00    -0.095 C  
HETATM   25  C   UNL     1      -7.578   8.528  64.436  1.00  0.00    -0.117 C  
HETATM   26  C   UNL     1      -7.711   7.708  63.170  1.00  0.00    -0.127 C  
HETATM   27  C   UNL     1      -7.931   6.284  63.666  1.00  0.00    -0.090 C  
HETATM   28  C   UNL     1      -8.441   6.402  65.104  1.00  0.00    -0.072 C  
ENDBRANCH  23  24
ENDBRANCH  19  23
TORSDOF 3
ENDMDL
MODEL       67
REMARK 921   NORMALIZED FREE ENERGY PREDICTED BY IDOCK:   -4.72 KCAL/MOL
REMARK 922        TOTAL FREE ENERGY PREDICTED BY IDOCK:   -5.92 KCAL/MOL
REMARK 923 INTER-LIGAND FREE ENERGY PREDICTED BY IDOCK:   -5.56 KCAL/MOL
REMARK 924 INTRA-LIGAND FREE ENERGY PREDICTED BY IDOCK:   -0.37 KCAL/MOL
REMARK 927      BINDING AFFINITY PREDICTED BY RF-SCORE:    0.00 PKD
ROOT
HETATM    1  C   UNL     1      -8.644   6.413  69.633  1.00  0.00    -0.134 C  
HETATM    2  C   UNL     1      -9.631   6.382  70.648  1.00  0.00    -0.186 C  
HETATM    3  C   UNL     1     -10.144   6.435  69.253  1.00  0.00    -0.203 C  
HETATM    4  C   UNL     1      -8.715   6.180  67.794  1.00  0.00    -0.112 C  
HETATM    5  C   UNL     1      -9.526   5.231  68.356  1.00  0.00    -0.159 C  
HETATM    6  C   UNL     1     -10.333  10.694  66.531  1.00  0.00    -0.299 A  
HETATM    7  O   UNL     1      -8.854   6.000  66.384  1.00  0.00    -0.127 OA 
HETATM    8  C   UNL     1     -10.895   5.944  67.289  1.00  0.00    -0.351 C  
HETATM    9  C   UNL     1      -9.400   3.742  68.472  1.00  0.00    -0.227 C  
HETATM   10  C   UNL     1      -8.559   8.138  68.983  1.00  0.00    -0.133 C  
HETATM   11  H   UNL     1      -8.195   5.883  65.711  1.00  0.00     0.000 HD 
HETATM   12  C   UNL     1     -10.629   7.661  66.973  1.00  0.00    -0.406 C  
HETATM   13  C   UNL     1      -9.858   8.689  68.056  1.00  0.00    -0.201 C  
HETATM   14  C   UNL     1      -9.592  10.121  67.580  1.00  0.00    -0.180 A  
HETATM   15  C   UNL     1      -8.748  10.966  68.336  1.00  0.00    -0.147 A  
HETATM   16  C   UNL     1      -8.614  12.319  67.980  1.00  0.00    -0.176 A  
HETATM   17  C   UNL     1      -7.936  10.497  69.524  1.00  0.00    -0.119 C  
HETATM   18  C   UNL     1      -8.352   9.153  70.109  1.00  0.00    -0.174 C  
HETATM   19  C   UNL     1      -9.312  12.857  66.904  1.00  0.00    -0.240 A  
HETATM   20  C   UNL     1     -10.198  12.048  66.202  1.00  0.00    -0.255 A  
ENDROOT
BRANCH   4  21
HETATM   21  C   UNL     1      -7.261   5.641  67.944  1.00  0.00    -0.072 C  
HETATM   22  C   UNL     1      -6.128   5.239  68.013  1.00  0.00    -0.026 C  
ENDBRANCH   4  21
BRANCH  19  23
HETATM   23  O   UNL     1      -9.204  14.154  66.474  1.00  0.00    -0.268 OA 
BRANCH  23  24
HETATM   24  C   UNL     1      -9.384  15.152  67.479  1.00  0.00    -0.198 C  
HETATM   25  C   UNL     1      -9.251  16.576  66.937  1.00  0.00    -0.244 C  
HETATM   26  C   UNL     1      -9.954  17.409  67.990  1.00  0.00    -0.302 C  
HETATM   27  C   UNL     1     -11.156  16.564  68.396  1.00  0.00    -0.333 C  
HETATM   28  C   UNL     1     -10.825  15.124  67.998  1.00  0.00    -0.284 C  
ENDBRANCH  23  24
ENDBRANCH  19  23
TORSDOF 3
ENDMDL
MODEL       68
REMARK 921   NORMALIZED FREE ENERGY PREDICTED BY IDOCK:   -4.68 KCAL/MOL
REMARK 922        TOTAL FREE ENERGY PREDICTED BY IDOCK:   -5.88 KCAL/MOL
REMARK 923 INTER-LIGAND FREE ENERGY PREDICTED BY IDOCK:   -5.48 KCAL/MOL
REMARK 924 INTRA-LIGAND FREE ENERGY PREDICTED BY IDOCK:   -0.39 KCAL/MOL
REMARK 927      BINDING AFFINITY PREDICTED BY RF-SCORE:    0.00 PKD
ROOT
HETATM    1  C   UNL     1      -8.486   7.978  64.825  1.00  0.00    -0.037 C  
HETATM    2  C   UNL     1      -7.637   8.410  63.778  1.00  0.00    -0.135 C  
HETATM    3  C   UNL     1      -7.103   8.589  65.154  1.00  0.00    -0.075 C  
HETATM    4  C   UNL     1      -8.214   7.692  66.637  1.00  0.00    -0.124 C  
HETATM    5  C   UNL     1      -7.125   7.189  65.977  1.00  0.00    -0.073 C  
HETATM    6  C   UNL     1      -8.485  12.394  68.187  1.00  0.00    -0.180 A  
HETATM    7  O   UNL     1      -7.926   7.505  68.024  1.00  0.00    -0.119 OA 
HETATM    8  C   UNL     1      -6.098   8.337  67.049  1.00  0.00    -0.054 C  
HETATM    9  C   UNL     1      -6.644   5.787  65.752  1.00  0.00    -0.044 C  
HETATM   10  C   UNL     1      -9.222   9.479  65.608  1.00  0.00    -0.281 C  
HETATM   11  H   UNL     1      -8.439   7.091  68.708  1.00  0.00     0.000 HD 
HETATM   12  C   UNL     1      -7.016   9.776  67.505  1.00  0.00    -0.083 C  
HETATM   13  C   UNL     1      -8.202  10.459  66.530  1.00  0.00    -0.131 C  
HETATM   14  C   UNL     1      -8.995  11.628  67.123  1.00  0.00    -0.173 A  
HETATM   15  C   UNL     1     -10.154  12.096  66.463  1.00  0.00    -0.229 A  
HETATM   16  C   UNL     1     -10.801  13.255  66.926  1.00  0.00    -0.286 A  
HETATM   17  C   UNL     1     -10.779  11.405  65.271  1.00  0.00    -0.326 C  
HETATM   18  C   UNL     1      -9.891  10.383  64.571  1.00  0.00    -0.405 C  
HETATM   19  C   UNL     1     -10.315  13.969  68.017  1.00  0.00    -0.240 A  
HETATM   20  C   UNL     1      -9.136  13.554  68.623  1.00  0.00    -0.008 A  
ENDROOT
BRANCH   4  21
HETATM   21  C   UNL     1      -9.331   6.615  66.496  1.00  0.00    -0.191 C  
HETATM   22  C   UNL     1     -10.187   5.770  66.434  1.00  0.00    -0.192 C  
ENDBRANCH   4  21
BRANCH  19  23
HETATM   23  O   UNL     1     -10.912  15.083  68.547  1.00  0.00    -0.239 OA 
BRANCH  23  24
HETATM   24  C   UNL     1     -11.342  14.964  69.903  1.00  0.00    -0.277 C  
HETATM   25  C   UNL     1     -11.210  16.269  70.689  1.00  0.00    -0.310 C  
HETATM   26  C   UNL     1     -12.150  16.061  71.858  1.00  0.00    -0.590 C  
HETATM   27  C   UNL     1     -13.346  15.334  71.254  1.00  0.00    -0.586 C  
HETATM   28  C   UNL     1     -12.849  14.692  69.956  1.00  0.00    -0.094 C  
ENDBRANCH  23  24
ENDBRANCH  19  23
TORSDOF 3
ENDMDL
MODEL       69
REMARK 921   NORMALIZED FREE ENERGY PREDICTED BY IDOCK:   -4.66 KCAL/MOL
REMARK 922        TOTAL FREE ENERGY PREDICTED BY IDOCK:   -5.86 KCAL/MOL
REMARK 923 INTER-LIGAND FREE ENERGY PREDICTED BY IDOCK:   -5.51 KCAL/MOL
REMARK 924 INTRA-LIGAND FREE ENERGY PREDICTED BY IDOCK:   -0.35 KCAL/MOL
REMARK 927      BINDING AFFINITY PREDICTED BY RF-SCORE:    0.00 PKD
ROOT
HETATM    1  C   UNL     1      -9.462  13.440  67.911  1.00  0.00    -0.216 C  
HETATM    2  C   UNL     1      -8.417  14.044  67.171  1.00  0.00    -0.207 C  
HETATM    3  C   UNL     1      -9.355  13.198  66.387  1.00  0.00    -0.188 C  
HETATM    4  C   UNL     1     -11.026  12.574  67.415  1.00  0.00    -0.259 C  
HETATM    5  C   UNL     1     -10.893  13.671  66.606  1.00  0.00    -0.283 C  
HETATM    6  C   UNL     1      -9.101   8.147  66.281  1.00  0.00    -0.231 A  
HETATM    7  O   UNL     1     -12.203  11.911  66.952  1.00  0.00    -0.493 OA 
HETATM    8  C   UNL     1     -10.982  12.469  65.168  1.00  0.00    -0.332 C  
HETATM    9  C   UNL     1     -11.659  14.957  66.523  1.00  0.00    -0.254 C  
HETATM   10  C   UNL     1      -9.044  11.655  68.121  1.00  0.00    -0.183 C  
HETATM   11  H   UNL     1     -12.974  11.623  67.427  1.00  0.00     0.000 HD 
HETATM   12  C   UNL     1     -10.352  10.882  65.622  1.00  0.00    -0.305 C  
HETATM   13  C   UNL     1      -9.130  10.666  66.755  1.00  0.00    -0.167 C  
HETATM   14  C   UNL     1      -8.784   9.221  67.132  1.00  0.00    -0.134 A  
HETATM   15  C   UNL     1      -7.941   8.967  68.238  1.00  0.00    -0.104 A  
HETATM   16  C   UNL     1      -7.509   7.656  68.499  1.00  0.00    -0.104 A  
HETATM   17  C   UNL     1      -7.475  10.036  69.202  1.00  0.00    -0.092 C  
HETATM   18  C   UNL     1      -7.647  11.472  68.717  1.00  0.00    -0.129 C  
HETATM   19  C   UNL     1      -7.879   6.594  67.680  1.00  0.00    -0.111 A  
HETATM   20  C   UNL     1      -8.647   6.850  66.551  1.00  0.00    -0.129 A  
ENDROOT
BRANCH   4  21
HETATM   21  C   UNL     1     -11.589  13.108  68.766  1.00  0.00    -0.348 C  
HETATM   22  C   UNL     1     -12.008  13.478  69.833  1.00  0.00    -0.416 C  
ENDBRANCH   4  21
BRANCH  19  23
HETATM   23  O   UNL     1      -7.529   5.287  67.892  1.00  0.00    -0.075 OA 
BRANCH  23  24
HETATM   24  C   UNL     1      -8.592   4.422  68.292  1.00  0.00    -0.094 C  
HETATM   25  C   UNL     1      -8.169   2.955  68.380  1.00  0.00    -0.079 C  
HETATM   26  C   UNL     1      -9.233   2.345  69.268  1.00  0.00    -0.193 C  
HETATM   27  C   UNL     1      -9.497   3.411  70.325  1.00  0.00    -0.247 C  
HETATM   28  C   UNL     1      -9.013   4.736  69.731  1.00  0.00    -0.139 C  
ENDBRANCH  23  24
ENDBRANCH  19  23
TORSDOF 3
ENDMDL
MODEL       70
REMARK 921   NORMALIZED FREE ENERGY PREDICTED BY IDOCK:   -4.56 KCAL/MOL
REMARK 922        TOTAL FREE ENERGY PREDICTED BY IDOCK:   -5.74 KCAL/MOL
REMARK 923 INTER-LIGAND FREE ENERGY PREDICTED BY IDOCK:   -5.33 KCAL/MOL
REMARK 924 INTRA-LIGAND FREE ENERGY PREDICTED BY IDOCK:   -0.41 KCAL/MOL
REMARK 927      BINDING AFFINITY PREDICTED BY RF-SCORE:    0.00 PKD
ROOT
HETATM    1  C   UNL     1      -8.198  17.984  67.146  1.00  0.00    -0.231 C  
HETATM    2  C   UNL     1      -7.421  18.010  65.963  1.00  0.00    -0.271 C  
HETATM    3  C   UNL     1      -8.767  17.390  65.836  1.00  0.00     0.039 C  
HETATM    4  C   UNL     1      -9.988  17.626  67.476  1.00  0.00    -0.322 C  
HETATM    5  C   UNL     1      -9.928  18.402  66.349  1.00  0.00    -0.399 C  
HETATM    6  C   UNL     1      -9.798  12.673  67.342  1.00  0.00    -0.205 A  
HETATM    7  O   UNL     1     -11.374  17.327  67.647  1.00  0.00     0.012 OA 
HETATM    8  C   UNL     1     -10.867  17.020  65.495  1.00  0.00    -0.073 C  
HETATM    9  C   UNL     1     -10.331  19.822  66.084  1.00  0.00    -0.627 C  
HETATM   10  C   UNL     1      -8.173  16.257  67.798  1.00  0.00    -0.158 C  
HETATM   11  H   UNL     1     -11.938  17.436  68.404  1.00  0.00     0.000 HD 
HETATM   12  C   UNL     1     -10.510  15.455  66.232  1.00  0.00    -0.310 C  
HETATM   13  C   UNL     1      -9.030  15.084  66.936  1.00  0.00    -0.276 C  
HETATM   14  C   UNL     1      -8.921  13.730  67.645  1.00  0.00    -0.194 A  
HETATM   15  C   UNL     1      -7.797  13.450  68.454  1.00  0.00    -0.138 A  
HETATM   16  C   UNL     1      -7.625  12.162  68.990  1.00  0.00     0.081 A  
HETATM   17  C   UNL     1      -6.744  14.476  68.814  1.00  0.00    -0.091 C  
HETATM   18  C   UNL     1      -6.744  15.738  67.958  1.00  0.00    -0.144 C  
HETATM   19  C   UNL     1      -8.534  11.141  68.727  1.00  0.00    -0.134 A  
HETATM   20  C   UNL     1      -9.601  11.393  67.873  1.00  0.00    -0.180 A  
ENDROOT
BRANCH   4  21
HETATM   21  C   UNL     1      -9.822  18.605  68.676  1.00  0.00    -0.427 C  
HETATM   22  C   UNL     1      -9.743  19.361  69.611  1.00  0.00     0.072 C  
ENDBRANCH   4  21
BRANCH  19  23
HETATM   23  O   UNL     1      -8.454   9.875  69.243  1.00  0.00    -0.132 OA 
BRANCH  23  24
HETATM   24  C   UNL     1      -9.702   9.253  69.547  1.00  0.00    -0.173 C  
HETATM   25  C   UNL     1      -9.763   7.788  69.114  1.00  0.00    -0.161 C  
HETATM   26  C   UNL     1     -10.895   7.231  69.953  1.00  0.00    -0.264 C  
HETATM   27  C   UNL     1     -10.723   7.902  71.310  1.00  0.00    -0.257 C  
HETATM   28  C   UNL     1      -9.890   9.163  71.065  1.00  0.00    -0.366 C  
ENDBRANCH  23  24
ENDBRANCH  19  23
TORSDOF 3
ENDMDL
MODEL       71
REMARK 921   NORMALIZED FREE ENERGY PREDICTED BY IDOCK:   -4.55 KCAL/MOL
REMARK 922        TOTAL FREE ENERGY PREDICTED BY IDOCK:   -5.72 KCAL/MOL
REMARK 923 INTER-LIGAND FREE ENERGY PREDICTED BY IDOCK:   -5.74 KCAL/MOL
REMARK 924 INTRA-LIGAND FREE ENERGY PREDICTED BY IDOCK:    0.02 KCAL/MOL
REMARK 927      BINDING AFFINITY PREDICTED BY RF-SCORE:    0.00 PKD
ROOT
HETATM    1  C   UNL     1      -7.731   5.752  68.805  1.00  0.00    -0.090 C  
HETATM    2  C   UNL     1      -6.685   5.934  69.742  1.00  0.00    -0.052 C  
HETATM    3  C   UNL     1      -8.054   6.236  70.239  1.00  0.00    -0.116 C  
HETATM    4  C   UNL     1      -9.578   5.688  68.968  1.00  0.00    -0.135 C  
HETATM    5  C   UNL     1      -9.051   4.975  70.012  1.00  0.00    -0.166 C  
HETATM    6  C   UNL     1     -10.478  10.557  69.220  1.00  0.00    -0.258 A  
HETATM    7  O   UNL     1     -10.990   5.661  69.176  1.00  0.00    -0.274 OA 
HETATM    8  C   UNL     1     -10.018   6.131  71.130  1.00  0.00    -0.218 C  
HETATM    9  C   UNL     1      -9.039   3.509  70.324  1.00  0.00    -0.202 C  
HETATM   10  C   UNL     1      -8.267   7.423  68.230  1.00  0.00    -0.125 C  
HETATM   11  H   UNL     1     -11.693   5.408  68.590  1.00  0.00     0.000 HD 
HETATM   12  C   UNL     1     -10.229   7.717  70.380  1.00  0.00    -0.203 C  
HETATM   13  C   UNL     1      -9.108   8.394  69.326  1.00  0.00    -0.150 C  
HETATM   14  C   UNL     1      -9.497   9.718  68.661  1.00  0.00    -0.151 A  
HETATM   15  C   UNL     1      -8.718  10.224  67.596  1.00  0.00    -0.121 A  
HETATM   16  C   UNL     1      -8.987  11.503  67.080  1.00  0.00    -0.174 A  
HETATM   17  C   UNL     1      -7.594   9.453  66.938  1.00  0.00    -0.091 C  
HETATM   18  C   UNL     1      -7.085   8.247  67.719  1.00  0.00    -0.083 C  
HETATM   19  C   UNL     1     -10.000  12.298  67.607  1.00  0.00    -0.198 A  
HETATM   20  C   UNL     1     -10.721  11.834  68.701  1.00  0.00    -0.252 A  
ENDROOT
BRANCH   4  21
HETATM   21  C   UNL     1      -9.517   4.741  67.733  1.00  0.00    -0.180 C  
HETATM   22  C   UNL     1      -9.516   4.022  66.766  1.00  0.00    -0.219 C  
ENDBRANCH   4  21
BRANCH  19  23
HETATM   23  O   UNL     1     -10.345  13.536  67.132  1.00  0.00    -0.248 OA 
BRANCH  23  24
HETATM   24  C   UNL     1     -11.460  13.565  66.241  1.00  0.00    -0.326 C  
HETATM   25  C   UNL     1     -11.231  14.463  65.025  1.00  0.00    -0.376 C  
HETATM   26  C   UNL     1     -12.256  13.959  64.030  1.00  0.00    -0.413 C  
HETATM   27  C   UNL     1     -12.248  12.446  64.216  1.00  0.00    -0.538 C  
HETATM   28  C   UNL     1     -11.664  12.186  65.607  1.00  0.00    -0.385 C  
ENDBRANCH  23  24
ENDBRANCH  19  23
TORSDOF 3
ENDMDL
MODEL       72
REMARK 921   NORMALIZED FREE ENERGY PREDICTED BY IDOCK:   -4.54 KCAL/MOL
REMARK 922        TOTAL FREE ENERGY PREDICTED BY IDOCK:   -5.71 KCAL/MOL
REMARK 923 INTER-LIGAND FREE ENERGY PREDICTED BY IDOCK:   -5.83 KCAL/MOL
REMARK 924 INTRA-LIGAND FREE ENERGY PREDICTED BY IDOCK:    0.12 KCAL/MOL
REMARK 927      BINDING AFFINITY PREDICTED BY RF-SCORE:    0.00 PKD
ROOT
HETATM    1  C   UNL     1      -7.909  10.875  66.083  1.00  0.00    -0.144 C  
HETATM    2  C   UNL     1      -6.700  11.149  66.765  1.00  0.00    -0.135 C  
HETATM    3  C   UNL     1      -6.910   9.730  66.372  1.00  0.00    -0.088 C  
HETATM    4  C   UNL     1      -8.519   9.404  65.131  1.00  0.00    -0.154 C  
HETATM    5  C   UNL     1      -7.210   9.602  64.781  1.00  0.00    -0.119 C  
HETATM    6  C   UNL     1      -9.882   6.553  68.952  1.00  0.00    -0.142 A  
HETATM    7  O   UNL     1      -8.919   8.230  64.424  1.00  0.00    -0.366 OA 
HETATM    8  C   UNL     1      -6.922   7.834  65.339  1.00  0.00    -0.055 C  
HETATM    9  C   UNL     1      -6.569  10.074  63.511  1.00  0.00    -0.132 C  
HETATM   10  C   UNL     1      -9.050  10.043  67.272  1.00  0.00    -0.152 C  
HETATM   11  H   UNL     1      -9.662   8.079  63.852  1.00  0.00     0.000 HD 
HETATM   12  C   UNL     1      -8.059   7.371  66.610  1.00  0.00    -0.123 C  
HETATM   13  C   UNL     1      -8.682   8.459  67.729  1.00  0.00    -0.137 C  
HETATM   14  C   UNL     1      -9.754   7.928  68.687  1.00  0.00    -0.162 A  
HETATM   15  C   UNL     1     -10.486   8.831  69.490  1.00  0.00    -0.222 A  
HETATM   16  C   UNL     1     -11.368   8.339  70.468  1.00  0.00    -0.225 A  
HETATM   17  C   UNL     1     -10.403  10.336  69.353  1.00  0.00    -0.256 C  
HETATM   18  C   UNL     1      -9.208  10.853  68.559  1.00  0.00    -0.181 C  
HETATM   19  C   UNL     1     -11.525   6.973  70.679  1.00  0.00    -0.324 A  
HETATM   20  C   UNL     1     -10.754   6.083  69.941  1.00  0.00    -0.393 A  
ENDROOT
BRANCH   4  21
HETATM   21  C   UNL     1      -9.340  10.446  64.313  1.00  0.00    -0.324 C  
HETATM   22  C   UNL     1     -10.015  11.223  63.688  1.00  0.00    -0.402 C  
ENDBRANCH   4  21
BRANCH  19  23
HETATM   23  O   UNL     1     -12.391   6.419  71.585  1.00  0.00    -0.312 OA 
BRANCH  23  24
HETATM   24  C   UNL     1     -11.885   6.272  72.912  1.00  0.00     0.181 C  
HETATM   25  C   UNL     1     -11.057   5.001  73.099  1.00  0.00    -0.395 C  
HETATM   26  C   UNL     1     -10.243   5.303  74.340  1.00  0.00    -0.299 C  
HETATM   27  C   UNL     1      -9.864   6.772  74.193  1.00  0.00    -0.352 C  
HETATM   28  C   UNL     1     -10.871   7.380  73.214  1.00  0.00    -0.417 C  
ENDBRANCH  23  24
ENDBRANCH  19  23
TORSDOF 3
ENDMDL
MODEL       73
REMARK 921   NORMALIZED FREE ENERGY PREDICTED BY IDOCK:   -4.49 KCAL/MOL
REMARK 922        TOTAL FREE ENERGY PREDICTED BY IDOCK:   -5.66 KCAL/MOL
REMARK 923 INTER-LIGAND FREE ENERGY PREDICTED BY IDOCK:   -5.31 KCAL/MOL
REMARK 924 INTRA-LIGAND FREE ENERGY PREDICTED BY IDOCK:   -0.35 KCAL/MOL
REMARK 927      BINDING AFFINITY PREDICTED BY RF-SCORE:    0.00 PKD
ROOT
HETATM    1  C   UNL     1     -12.162  13.576  66.408  1.00  0.00    -0.454 C  
HETATM    2  C   UNL     1     -12.507  14.518  67.406  1.00  0.00     0.235 C  
HETATM    3  C   UNL     1     -11.087  14.538  66.967  1.00  0.00    -0.324 C  
HETATM    4  C   UNL     1     -10.673  13.376  65.319  1.00  0.00    -0.313 C  
HETATM    5  C   UNL     1     -10.975  14.711  65.356  1.00  0.00    -0.358 C  
HETATM    6  C   UNL     1      -7.639  11.210  68.588  1.00  0.00    -0.127 A  
HETATM    7  O   UNL     1      -9.490  13.285  64.524  1.00  0.00    -0.293 OA 
HETATM    8  C   UNL     1      -9.220  14.965  65.969  1.00  0.00    -0.210 C  
HETATM    9  C   UNL     1     -11.523  15.648  64.322  1.00  0.00    -0.199 C  
HETATM   10  C   UNL     1     -11.220  12.213  67.221  1.00  0.00    -0.366 C  
HETATM   11  H   UNL     1      -9.299  12.749  63.764  1.00  0.00     0.000 HD 
HETATM   12  C   UNL     1      -8.645  13.554  66.863  1.00  0.00    -0.114 C  
HETATM   13  C   UNL     1      -9.657  12.557  67.761  1.00  0.00    -0.203 C  
HETATM   14  C   UNL     1      -9.026  11.302  68.373  1.00  0.00    -0.167 A  
HETATM   15  C   UNL     1      -9.853  10.304  68.936  1.00  0.00    -0.200 A  
HETATM   16  C   UNL     1      -9.274   9.222  69.622  1.00  0.00    -0.182 A  
HETATM   17  C   UNL     1     -11.363  10.307  68.831  1.00  0.00    -0.230 C  
HETATM   18  C   UNL     1     -11.985  11.633  68.412  1.00  0.00    -0.266 C  
HETATM   19  C   UNL     1      -7.896   9.117  69.777  1.00  0.00    -0.088 A  
HETATM   20  C   UNL     1      -7.083  10.133  69.287  1.00  0.00    -0.076 A  
ENDROOT
BRANCH   4  21
HETATM   21  C   UNL     1     -11.671  12.743  64.303  1.00  0.00    -0.443 C  
HETATM   22  C   UNL     1     -12.409  12.219  63.508  1.00  0.00    -0.670 C  
ENDBRANCH   4  21
BRANCH  19  23
HETATM   23  O   UNL     1      -7.258   8.075  70.397  1.00  0.00    -0.048 OA 
BRANCH  23  24
HETATM   24  C   UNL     1      -6.693   7.093  69.529  1.00  0.00    -0.049 C  
HETATM   25  C   UNL     1      -5.598   6.262  70.198  1.00  0.00    -0.014 C  
HETATM   26  C   UNL     1      -5.523   5.028  69.323  1.00  0.00    -0.008 C  
HETATM   27  C   UNL     1      -6.975   4.731  68.966  1.00  0.00    -0.052 C  
HETATM   28  C   UNL     1      -7.745   6.037  69.173  1.00  0.00    -0.095 C  
ENDBRANCH  23  24
ENDBRANCH  19  23
TORSDOF 3
ENDMDL
MODEL       74
REMARK 921   NORMALIZED FREE ENERGY PREDICTED BY IDOCK:   -4.47 KCAL/MOL
REMARK 922        TOTAL FREE ENERGY PREDICTED BY IDOCK:   -5.63 KCAL/MOL
REMARK 923 INTER-LIGAND FREE ENERGY PREDICTED BY IDOCK:   -5.37 KCAL/MOL
REMARK 924 INTRA-LIGAND FREE ENERGY PREDICTED BY IDOCK:   -0.26 KCAL/MOL
REMARK 927      BINDING AFFINITY PREDICTED BY RF-SCORE:    0.00 PKD
ROOT
HETATM    1  C   UNL     1      -9.073  18.155  67.251  1.00  0.00    -0.252 C  
HETATM    2  C   UNL     1     -10.088  18.278  68.229  1.00  0.00    -0.406 C  
HETATM    3  C   UNL     1      -8.882  17.515  68.647  1.00  0.00    -0.255 C  
HETATM    4  C   UNL     1      -7.304  17.598  67.328  1.00  0.00    -0.182 C  
HETATM    5  C   UNL     1      -7.531  18.388  68.423  1.00  0.00    -0.300 C  
HETATM    6  C   UNL     1      -8.062  12.698  67.340  1.00  0.00    -0.182 A  
HETATM    7  O   UNL     1      -5.957  17.147  67.468  1.00  0.00    -0.121 OA 
HETATM    8  C   UNL     1      -6.967  16.919  69.446  1.00  0.00    -0.164 C  
HETATM    9  C   UNL     1      -7.046  19.757  68.794  1.00  0.00    -0.365 C  
HETATM   10  C   UNL     1      -9.139  16.435  66.585  1.00  0.00    -0.278 C  
HETATM   11  H   UNL     1      -5.229  17.185  66.859  1.00  0.00     0.000 HD 
HETATM   12  C   UNL     1      -7.318  15.396  68.624  1.00  0.00    -0.127 C  
HETATM   13  C   UNL     1      -8.633  15.183  67.599  1.00  0.00    -0.180 C  
HETATM   14  C   UNL     1      -8.726  13.842  66.864  1.00  0.00    -0.177 A  
HETATM   15  C   UNL     1      -9.663  13.680  65.818  1.00  0.00    -0.162 A  
HETATM   16  C   UNL     1      -9.850  12.413  65.238  1.00  0.00    -0.180 A  
HETATM   17  C   UNL     1     -10.489  14.812  65.246  1.00  0.00    -0.427 C  
HETATM   18  C   UNL     1     -10.544  16.075  66.099  1.00  0.00    -0.302 C  
HETATM   19  C   UNL     1      -9.142  11.302  65.683  1.00  0.00    -0.189 A  
HETATM   20  C   UNL     1      -8.273  11.442  66.759  1.00  0.00    -0.160 A  
ENDROOT
BRANCH   4  21
HETATM   21  C   UNL     1      -7.088  18.578  66.136  1.00  0.00    -0.301 C  
HETATM   22  C   UNL     1      -6.970  19.337  65.208  1.00  0.00    -0.106 C  
ENDBRANCH   4  21
BRANCH  19  23
HETATM   23  O   UNL     1      -9.241  10.046  65.143  1.00  0.00    -0.185 OA 
BRANCH  23  24
HETATM   24  C   UNL     1      -8.693   9.893  63.834  1.00  0.00    -0.214 C  
HETATM   25  C   UNL     1      -7.225  10.313  63.747  1.00  0.00    -0.060 C  
HETATM   26  C   UNL     1      -6.744   9.616  62.492  1.00  0.00    -0.098 C  
HETATM   27  C   UNL     1      -7.430   8.255  62.531  1.00  0.00    -0.103 C  
HETATM   28  C   UNL     1      -8.640   8.409  63.456  1.00  0.00     0.107 C  
ENDBRANCH  23  24
ENDBRANCH  19  23
TORSDOF 3
ENDMDL
MODEL       75
REMARK 921   NORMALIZED FREE ENERGY PREDICTED BY IDOCK:   -4.45 KCAL/MOL
REMARK 922        TOTAL FREE ENERGY PREDICTED BY IDOCK:   -5.61 KCAL/MOL
REMARK 923 INTER-LIGAND FREE ENERGY PREDICTED BY IDOCK:   -5.26 KCAL/MOL
REMARK 924 INTRA-LIGAND FREE ENERGY PREDICTED BY IDOCK:   -0.35 KCAL/MOL
REMARK 927      BINDING AFFINITY PREDICTED BY RF-SCORE:    0.00 PKD
ROOT
HETATM    1  C   UNL     1      -9.312   4.409  71.283  1.00  0.00    -0.210 C  
HETATM    2  C   UNL     1      -9.550   3.587  70.156  1.00  0.00    -0.225 C  
HETATM    3  C   UNL     1      -8.306   4.399  70.107  1.00  0.00    -0.079 C  
HETATM    4  C   UNL     1      -7.826   5.355  71.866  1.00  0.00    -0.112 C  
HETATM    5  C   UNL     1      -7.385   4.138  71.419  1.00  0.00    -0.051 C  
HETATM    6  C   UNL     1      -8.253   9.314  68.912  1.00  0.00    -0.111 A  
HETATM    7  O   UNL     1      -6.645   6.064  72.241  1.00  0.00    -0.060 OA 
HETATM    8  C   UNL     1      -6.271   5.106  70.259  1.00  0.00    -0.022 C  
HETATM    9  C   UNL     1      -6.823   2.947  72.135  1.00  0.00    -0.023 C  
HETATM   10  C   UNL     1      -9.700   6.148  70.803  1.00  0.00    -0.205 C  
HETATM   11  H   UNL     1      -6.423   6.505  73.052  1.00  0.00     0.000 HD 
HETATM   12  C   UNL     1      -6.988   6.665  69.838  1.00  0.00    -0.063 C  
HETATM   13  C   UNL     1      -8.646   6.918  69.732  1.00  0.00    -0.141 C  
HETATM   14  C   UNL     1      -9.111   8.356  69.481  1.00  0.00    -0.153 A  
HETATM   15  C   UNL     1     -10.480   8.683  69.613  1.00  0.00    -0.220 A  
HETATM   16  C   UNL     1     -10.930   9.964  69.247  1.00  0.00    -0.244 A  
HETATM   17  C   UNL     1     -11.523   7.732  70.156  1.00  0.00    -0.055 C  
HETATM   18  C   UNL     1     -11.105   6.267  70.209  1.00  0.00    -0.430 C  
HETATM   19  C   UNL     1     -10.057  10.920  68.738  1.00  0.00    -0.194 A  
HETATM   20  C   UNL     1      -8.724  10.579  68.540  1.00  0.00    -0.140 A  
ENDROOT
BRANCH   4  21
HETATM   21  C   UNL     1      -8.396   5.102  73.294  1.00  0.00    -0.111 C  
HETATM   22  C   UNL     1      -8.854   4.953  74.398  1.00  0.00    -0.112 C  
ENDBRANCH   4  21
BRANCH  19  23
HETATM   23  O   UNL     1     -10.413  12.199  68.398  1.00  0.00    -0.219 OA 
BRANCH  23  24
HETATM   24  C   UNL     1     -11.508  12.311  67.488  1.00  0.00    -0.347 C  
HETATM   25  C   UNL     1     -11.841  13.759  67.129  1.00  0.00    -0.441 C  
HETATM   26  C   UNL     1     -12.625  13.620  65.841  1.00  0.00    -0.478 C  
HETATM   27  C   UNL     1     -11.913  12.504  65.086  1.00  0.00    -0.484 C  
HETATM   28  C   UNL     1     -11.131  11.707  66.132  1.00  0.00    -0.335 C  
ENDBRANCH  23  24
ENDBRANCH  19  23
TORSDOF 3
ENDMDL
MODEL       76
REMARK 921   NORMALIZED FREE ENERGY PREDICTED BY IDOCK:   -4.44 KCAL/MOL
REMARK 922        TOTAL FREE ENERGY PREDICTED BY IDOCK:   -5.60 KCAL/MOL
REMARK 923 INTER-LIGAND FREE ENERGY PREDICTED BY IDOCK:   -5.28 KCAL/MOL
REMARK 924 INTRA-LIGAND FREE ENERGY PREDICTED BY IDOCK:   -0.32 KCAL/MOL
REMARK 927      BINDING AFFINITY PREDICTED BY RF-SCORE:    0.00 PKD
ROOT
HETATM    1  C   UNL     1      -9.414  13.106  68.135  1.00  0.00    -0.222 C  
HETATM    2  C   UNL     1      -8.430  14.071  67.814  1.00  0.00    -0.184 C  
HETATM    3  C   UNL     1      -9.338  13.684  66.701  1.00  0.00    -0.265 C  
HETATM    4  C   UNL     1     -10.937  12.513  67.256  1.00  0.00    -0.261 C  
HETATM    5  C   UNL     1     -10.895  13.875  67.124  1.00  0.00    -0.288 C  
HETATM    6  C   UNL     1      -8.785   9.427  64.027  1.00  0.00    -0.225 A  
HETATM    7  O   UNL     1     -12.086  12.103  66.513  1.00  0.00    -0.627 OA 
HETATM    8  C   UNL     1     -10.954  13.574  65.272  1.00  0.00    -0.303 C  
HETATM    9  C   UNL     1     -11.738  14.969  67.706  1.00  0.00    -0.294 C  
HETATM   10  C   UNL     1      -8.884  11.496  67.403  1.00  0.00    -0.157 C  
HETATM   11  H   UNL     1     -12.824  11.562  66.769  1.00  0.00     0.000 HD 
HETATM   12  C   UNL     1     -10.216  12.024  64.854  1.00  0.00    -0.302 C  
HETATM   13  C   UNL     1      -8.951  11.341  65.723  1.00  0.00    -0.191 C  
HETATM   14  C   UNL     1      -8.508   9.934  65.309  1.00  0.00    -0.158 A  
HETATM   15  C   UNL     1      -7.620   9.207  66.133  1.00  0.00    -0.095 A  
HETATM   16  C   UNL     1      -7.102   7.978  65.689  1.00  0.00    -0.063 A  
HETATM   17  C   UNL     1      -7.190   9.662  67.511  1.00  0.00    -0.090 C  
HETATM   18  C   UNL     1      -7.462  11.128  67.829  1.00  0.00    -0.095 C  
HETATM   19  C   UNL     1      -7.431   7.463  64.440  1.00  0.00    -0.100 A  
HETATM   20  C   UNL     1      -8.247   8.208  63.597  1.00  0.00    -0.057 A  
ENDROOT
BRANCH   4  21
HETATM   21  C   UNL     1     -11.491  12.242  68.687  1.00  0.00    -0.355 C  
HETATM   22  C   UNL     1     -11.964  12.024  69.774  1.00  0.00    -0.370 C  
ENDBRANCH   4  21
BRANCH  19  23
HETATM   23  O   UNL     1      -6.998   6.257  63.955  1.00  0.00    -0.040 OA 
BRANCH  23  24
HETATM   24  C   UNL     1      -8.009   5.265  63.776  1.00  0.00    -0.105 C  
HETATM   25  C   UNL     1      -7.442   3.887  63.433  1.00  0.00    -0.051 C  
HETATM   26  C   UNL     1      -8.579   2.952  63.788  1.00  0.00    -0.086 C  
HETATM   27  C   UNL     1      -9.165   3.540  65.066  1.00  0.00    -0.149 C  
HETATM   28  C   UNL     1      -8.735   5.008  65.101  1.00  0.00    -0.150 C  
ENDBRANCH  23  24
ENDBRANCH  19  23
TORSDOF 3
ENDMDL
MODEL       77
REMARK 921   NORMALIZED FREE ENERGY PREDICTED BY IDOCK:   -4.43 KCAL/MOL
REMARK 922        TOTAL FREE ENERGY PREDICTED BY IDOCK:   -5.58 KCAL/MOL
REMARK 923 INTER-LIGAND FREE ENERGY PREDICTED BY IDOCK:   -5.76 KCAL/MOL
REMARK 924 INTRA-LIGAND FREE ENERGY PREDICTED BY IDOCK:    0.18 KCAL/MOL
REMARK 927      BINDING AFFINITY PREDICTED BY RF-SCORE:    0.00 PKD
ROOT
HETATM    1  C   UNL     1     -11.034   8.679  72.290  1.00  0.00    -0.392 C  
HETATM    2  C   UNL     1     -12.448   8.697  72.359  1.00  0.00    -0.428 C  
HETATM    3  C   UNL     1     -11.856   7.577  71.580  1.00  0.00    -0.322 C  
HETATM    4  C   UNL     1      -9.812   7.397  71.738  1.00  0.00    -0.167 C  
HETATM    5  C   UNL     1     -10.775   6.754  72.469  1.00  0.00    -0.261 C  
HETATM    6  C   UNL     1     -10.164   8.086  66.841  1.00  0.00    -0.385 A  
HETATM    7  O   UNL     1      -8.936   6.364  71.286  1.00  0.00    -0.142 OA 
HETATM    8  C   UNL     1     -11.036   5.681  70.952  1.00  0.00    -0.257 C  
HETATM    9  C   UNL     1     -10.745   6.104  73.819  1.00  0.00    -0.188 C  
HETATM   10  C   UNL     1     -10.545   9.256  70.607  1.00  0.00    -0.324 C  
HETATM   11  H   UNL     1      -7.993   6.281  71.359  1.00  0.00     0.000 HD 
HETATM   12  C   UNL     1     -10.646   6.562  69.472  1.00  0.00    -0.293 C  
HETATM   13  C   UNL     1     -10.850   8.222  69.307  1.00  0.00    -0.063 C  
HETATM   14  C   UNL     1     -10.346   8.854  68.005  1.00  0.00    -0.271 A  
HETATM   15  C   UNL     1     -10.269  10.261  67.893  1.00  0.00    -0.217 A  
HETATM   16  C   UNL     1      -9.943  10.846  66.657  1.00  0.00    -0.250 A  
HETATM   17  C   UNL     1     -10.497  11.210  69.049  1.00  0.00    -0.233 C  
HETATM   18  C   UNL     1     -11.186  10.602  70.266  1.00  0.00    -0.365 C  
HETATM   19  C   UNL     1      -9.710  10.068  65.527  1.00  0.00    -0.289 A  
HETATM   20  C   UNL     1      -9.856   8.689  65.616  1.00  0.00     0.212 A  
ENDROOT
BRANCH   4  21
HETATM   21  C   UNL     1      -8.858   8.056  72.779  1.00  0.00    -0.277 C  
HETATM   22  C   UNL     1      -8.160   8.591  73.602  1.00  0.00    -0.069 C  
ENDBRANCH   4  21
BRANCH  19  23
HETATM   23  O   UNL     1      -9.352  10.563  64.301  1.00  0.00    -0.220 OA 
BRANCH  23  24
HETATM   24  C   UNL     1      -8.008  10.298  63.898  1.00  0.00    -0.126 C  
HETATM   25  C   UNL     1      -7.105   9.884  65.060  1.00  0.00    -0.131 C  
HETATM   26  C   UNL     1      -5.951   9.191  64.366  1.00  0.00    -0.070 C  
HETATM   27  C   UNL     1      -6.607   8.408  63.235  1.00  0.00    -0.085 C  
HETATM   28  C   UNL     1      -7.965   9.069  62.984  1.00  0.00    -0.149 C  
ENDBRANCH  23  24
ENDBRANCH  19  23
TORSDOF 3
ENDMDL
MODEL       78
REMARK 921   NORMALIZED FREE ENERGY PREDICTED BY IDOCK:   -4.40 KCAL/MOL
REMARK 922        TOTAL FREE ENERGY PREDICTED BY IDOCK:   -5.55 KCAL/MOL
REMARK 923 INTER-LIGAND FREE ENERGY PREDICTED BY IDOCK:   -6.55 KCAL/MOL
REMARK 924 INTRA-LIGAND FREE ENERGY PREDICTED BY IDOCK:    1.00 KCAL/MOL
REMARK 927      BINDING AFFINITY PREDICTED BY RF-SCORE:    0.00 PKD
ROOT
HETATM    1  C   UNL     1      -8.841  11.940  67.317  1.00  0.00    -0.179 C  
HETATM    2  C   UNL     1      -8.477  11.504  68.614  1.00  0.00    -0.115 C  
HETATM    3  C   UNL     1      -9.820  12.133  68.500  1.00  0.00    -0.167 C  
HETATM    4  C   UNL     1     -10.451  12.487  66.573  1.00  0.00    -0.238 C  
HETATM    5  C   UNL     1     -10.715  11.399  67.361  1.00  0.00    -0.274 C  
HETATM    6  C   UNL     1     -10.527  17.137  68.293  1.00  0.00    -0.373 A  
HETATM    7  O   UNL     1     -11.723  12.906  66.078  1.00  0.00    -0.360 OA 
HETATM    8  C   UNL     1     -11.934  12.503  68.264  1.00  0.00    -0.274 C  
HETATM    9  C   UNL     1     -11.118   9.993  67.032  1.00  0.00    -0.005 C  
HETATM   10  C   UNL     1      -8.688  13.779  67.277  1.00  0.00    -0.226 C  
HETATM   11  H   UNL     1     -12.014  13.069  65.189  1.00  0.00     0.000 HD 
HETATM   12  C   UNL     1     -11.431  14.195  68.201  1.00  0.00    -0.340 C  
HETATM   13  C   UNL     1      -9.822  14.677  68.148  1.00  0.00    -0.224 C  
HETATM   14  C   UNL     1      -9.555  16.175  67.967  1.00  0.00    -0.220 A  
HETATM   15  C   UNL     1      -8.246  16.624  67.679  1.00  0.00    -0.183 A  
HETATM   16  C   UNL     1      -7.970  18.002  67.653  1.00  0.00    -0.221 A  
HETATM   17  C   UNL     1      -7.090  15.699  67.367  1.00  0.00    -0.241 C  
HETATM   18  C   UNL     1      -7.304  14.237  67.742  1.00  0.00    -0.185 C  
HETATM   19  C   UNL     1      -8.959  18.943  67.923  1.00  0.00    -0.297 A  
HETATM   20  C   UNL     1     -10.229  18.505  68.277  1.00  0.00    -0.412 A  
ENDROOT
BRANCH   4  21
HETATM   21  C   UNL     1      -9.872  11.918  65.243  1.00  0.00    -0.255 C  
HETATM   22  C   UNL     1      -9.467  11.454  64.208  1.00  0.00    -0.153 C  
ENDBRANCH   4  21
BRANCH  19  23
HETATM   23  O   UNL     1      -8.776  20.300  67.879  1.00  0.00    -0.258 OA 
BRANCH  23  24
HETATM   24  C   UNL     1      -7.587  20.741  67.223  1.00  0.00    -0.305 C  
HETATM   25  C   UNL     1      -6.317  20.442  68.021  1.00  0.00    -0.321 C  
HETATM   26  C   UNL     1      -5.229  20.512  66.969  1.00  0.00    -0.195 C  
HETATM   27  C   UNL     1      -5.853  19.866  65.738  1.00  0.00    -0.197 C  
HETATM   28  C   UNL     1      -7.369  19.941  65.934  1.00  0.00    -0.335 C  
ENDBRANCH  23  24
ENDBRANCH  19  23
TORSDOF 3
ENDMDL
MODEL       79
REMARK 921   NORMALIZED FREE ENERGY PREDICTED BY IDOCK:   -4.34 KCAL/MOL
REMARK 922        TOTAL FREE ENERGY PREDICTED BY IDOCK:   -5.47 KCAL/MOL
REMARK 923 INTER-LIGAND FREE ENERGY PREDICTED BY IDOCK:   -6.39 KCAL/MOL
REMARK 924 INTRA-LIGAND FREE ENERGY PREDICTED BY IDOCK:    0.92 KCAL/MOL
REMARK 927      BINDING AFFINITY PREDICTED BY RF-SCORE:    0.00 PKD
ROOT
HETATM    1  C   UNL     1      -9.481   6.410  69.850  1.00  0.00    -0.163 C  
HETATM    2  C   UNL     1      -8.383   5.732  69.269  1.00  0.00    -0.108 C  
HETATM    3  C   UNL     1      -8.039   6.909  70.109  1.00  0.00    -0.127 C  
HETATM    4  C   UNL     1      -9.611   7.699  71.179  1.00  0.00    -0.158 C  
HETATM    5  C   UNL     1      -8.686   6.778  71.593  1.00  0.00    -0.126 C  
HETATM    6  C   UNL     1      -8.420  11.682  68.476  1.00  0.00    -0.135 A  
HETATM    7  O   UNL     1      -9.627   8.696  72.200  1.00  0.00    -0.287 OA 
HETATM    8  C   UNL     1      -7.495   8.222  71.736  1.00  0.00    -0.112 C  
HETATM    9  C   UNL     1      -8.709   5.750  72.683  1.00  0.00    -0.119 C  
HETATM   10  C   UNL     1      -9.743   7.972  68.903  1.00  0.00    -0.159 C  
HETATM   11  H   UNL     1     -10.352   9.061  72.694  1.00  0.00     0.000 HD 
HETATM   12  C   UNL     1      -7.897   9.498  70.582  1.00  0.00    -0.149 C  
HETATM   13  C   UNL     1      -8.596   9.198  69.083  1.00  0.00    -0.133 C  
HETATM   14  C   UNL     1      -9.000  10.420  68.252  1.00  0.00    -0.135 A  
HETATM   15  C   UNL     1      -9.798  10.251  67.098  1.00  0.00    -0.228 A  
HETATM   16  C   UNL     1     -10.052  11.348  66.257  1.00  0.00    -0.263 A  
HETATM   17  C   UNL     1     -10.437   8.937  66.704  1.00  0.00    -0.231 C  
HETATM   18  C   UNL     1      -9.877   7.703  67.403  1.00  0.00    -0.226 C  
HETATM   19  C   UNL     1      -9.517  12.604  66.525  1.00  0.00    -0.247 A  
HETATM   20  C   UNL     1      -8.673  12.759  67.618  1.00  0.00    -0.180 A  
ENDROOT
BRANCH   4  21
HETATM   21  C   UNL     1     -11.003   7.062  71.469  1.00  0.00    -0.260 C  
HETATM   22  C   UNL     1     -12.095   6.615  71.710  1.00  0.00    -0.400 C  
ENDBRANCH   4  21
BRANCH  19  23
HETATM   23  O   UNL     1      -9.751  13.727  65.775  1.00  0.00    -0.244 OA 
BRANCH  23  24
HETATM   24  C   UNL     1     -10.790  13.613  64.803  1.00  0.00    -0.394 C  
HETATM   25  C   UNL     1     -10.568  12.463  63.820  1.00  0.00    -0.486 C  
HETATM   26  C   UNL     1     -11.953  12.222  63.257  1.00  0.00    -0.499 C  
HETATM   27  C   UNL     1     -12.880  12.396  64.454  1.00  0.00    -0.344 C  
HETATM   28  C   UNL     1     -12.107  13.224  65.482  1.00  0.00    -0.480 C  
ENDBRANCH  23  24
ENDBRANCH  19  23
TORSDOF 3
ENDMDL
MODEL       80
REMARK 921   NORMALIZED FREE ENERGY PREDICTED BY IDOCK:   -4.33 KCAL/MOL
REMARK 922        TOTAL FREE ENERGY PREDICTED BY IDOCK:   -5.47 KCAL/MOL
REMARK 923 INTER-LIGAND FREE ENERGY PREDICTED BY IDOCK:   -5.10 KCAL/MOL
REMARK 924 INTRA-LIGAND FREE ENERGY PREDICTED BY IDOCK:   -0.37 KCAL/MOL
REMARK 927      BINDING AFFINITY PREDICTED BY RF-SCORE:    0.00 PKD
ROOT
HETATM    1  C   UNL     1      -8.433   5.823  69.112  1.00  0.00    -0.107 C  
HETATM    2  C   UNL     1      -9.335   4.845  68.631  1.00  0.00    -0.182 C  
HETATM    3  C   UNL     1      -8.560   5.572  67.591  1.00  0.00    -0.108 C  
HETATM    4  C   UNL     1      -7.051   6.771  68.314  1.00  0.00    -0.086 C  
HETATM    5  C   UNL     1      -6.964   5.477  67.876  1.00  0.00    -0.066 C  
HETATM    6  C   UNL     1      -9.753  10.222  65.995  1.00  0.00    -0.274 A  
HETATM    7  O   UNL     1      -6.012   7.467  67.626  1.00  0.00    -0.036 OA 
HETATM    8  C   UNL     1      -7.080   6.186  66.142  1.00  0.00    -0.067 C  
HETATM    9  C   UNL     1      -5.970   4.388  68.147  1.00  0.00    -0.027 C  
HETATM   10  C   UNL     1      -9.181   7.482  68.798  1.00  0.00    -0.145 C  
HETATM   11  H   UNL     1      -5.316   8.020  67.959  1.00  0.00     0.000 HD 
HETATM   12  C   UNL     1      -8.003   7.692  66.129  1.00  0.00    -0.110 C  
HETATM   13  C   UNL     1      -9.260   8.012  67.197  1.00  0.00    -0.172 C  
HETATM   14  C   UNL     1      -9.876   9.414  67.139  1.00  0.00    -0.242 A  
HETATM   15  C   UNL     1     -10.767   9.830  68.154  1.00  0.00    -0.280 A  
HETATM   16  C   UNL     1     -11.442  11.058  68.031  1.00  0.00    -0.365 A  
HETATM   17  C   UNL     1     -11.040   9.035  69.412  1.00  0.00    -0.000 C  
HETATM   18  C   UNL     1     -10.595   7.577  69.371  1.00  0.00    -0.225 C  
HETATM   19  C   UNL     1     -11.264  11.873  66.917  1.00  0.00    -0.325 A  
HETATM   20  C   UNL     1     -10.445  11.434  65.884  1.00  0.00    -0.309 A  
ENDROOT
BRANCH   4  21
HETATM   21  C   UNL     1      -6.419   6.781  69.738  1.00  0.00    -0.044 C  
HETATM   22  C   UNL     1      -5.893   6.759  70.822  1.00  0.00    -0.027 C  
ENDBRANCH   4  21
BRANCH  19  23
HETATM   23  O   UNL     1     -11.855  13.096  66.745  1.00  0.00    -0.360 OA 
BRANCH  23  24
HETATM   24  C   UNL     1     -11.221  13.960  65.801  1.00  0.00    -0.303 C  
HETATM   25  C   UNL     1     -12.212  14.822  65.019  1.00  0.00    -0.252 C  
HETATM   26  C   UNL     1     -11.346  15.951  64.499  1.00  0.00    -0.316 C  
HETATM   27  C   UNL     1     -10.394  16.255  65.650  1.00  0.00    -0.385 C  
HETATM   28  C   UNL     1     -10.372  15.005  66.532  1.00  0.00    -0.287 C  
ENDBRANCH  23  24
ENDBRANCH  19  23
TORSDOF 3
ENDMDL
MODEL       81
REMARK 921   NORMALIZED FREE ENERGY PREDICTED BY IDOCK:   -4.29 KCAL/MOL
REMARK 922        TOTAL FREE ENERGY PREDICTED BY IDOCK:   -5.42 KCAL/MOL
REMARK 923 INTER-LIGAND FREE ENERGY PREDICTED BY IDOCK:   -5.46 KCAL/MOL
REMARK 924 INTRA-LIGAND FREE ENERGY PREDICTED BY IDOCK:    0.04 KCAL/MOL
REMARK 927      BINDING AFFINITY PREDICTED BY RF-SCORE:    0.00 PKD
ROOT
HETATM    1  C   UNL     1     -11.602  13.539  67.719  1.00  0.00    -0.374 C  
HETATM    2  C   UNL     1     -11.960  13.621  69.086  1.00  0.00    -0.394 C  
HETATM    3  C   UNL     1     -10.529  13.883  68.780  1.00  0.00    -0.229 C  
HETATM    4  C   UNL     1     -10.088  14.052  66.776  1.00  0.00    -0.264 C  
HETATM    5  C   UNL     1     -10.373  15.053  67.665  1.00  0.00    -0.243 C  
HETATM    6  C   UNL     1      -7.167  10.206  67.902  1.00  0.00    -0.086 A  
HETATM    7  O   UNL     1      -8.886  14.464  66.125  1.00  0.00    -0.470 OA 
HETATM    8  C   UNL     1      -8.631  14.804  68.316  1.00  0.00    -0.164 C  
HETATM    9  C   UNL     1     -10.881  16.451  67.476  1.00  0.00    -0.249 C  
HETATM   10  C   UNL     1     -10.698  11.949  67.468  1.00  0.00    -0.263 C  
HETATM   11  H   UNL     1      -8.683  14.542  65.200  1.00  0.00     0.000 HD 
HETATM   12  C   UNL     1      -8.098  13.135  68.091  1.00  0.00    -0.155 C  
HETATM   13  C   UNL     1      -9.146  11.821  68.120  1.00  0.00    -0.185 C  
HETATM   14  C   UNL     1      -8.547  10.452  67.781  1.00  0.00    -0.122 A  
HETATM   15  C   UNL     1      -9.402   9.349  67.557  1.00  0.00    -0.147 A  
HETATM   16  C   UNL     1      -8.855   8.065  67.386  1.00  0.00    -0.134 A  
HETATM   17  C   UNL     1     -10.908   9.459  67.461  1.00  0.00    -0.208 C  
HETATM   18  C   UNL     1     -11.502  10.758  67.993  1.00  0.00    -0.333 C  
HETATM   19  C   UNL     1      -7.482   7.848  67.451  1.00  0.00    -0.093 A  
HETATM   20  C   UNL     1      -6.644   8.917  67.744  1.00  0.00    -0.061 A  
ENDROOT
BRANCH   4  21
HETATM   21  C   UNL     1     -11.068  14.252  65.581  1.00  0.00    -0.316 C  
HETATM   22  C   UNL     1     -11.833  14.455  64.673  1.00  0.00    -0.460 C  
ENDBRANCH   4  21
BRANCH  19  23
HETATM   23  O   UNL     1      -6.875   6.636  67.258  1.00  0.00    -0.067 OA 
BRANCH  23  24
HETATM   24  C   UNL     1      -6.854   6.164  65.911  1.00  0.00    -0.057 C  
HETATM   25  C   UNL     1      -8.166   5.502  65.489  1.00  0.00    -0.130 C  
HETATM   26  C   UNL     1      -8.104   5.555  63.976  1.00  0.00    -0.123 C  
HETATM   27  C   UNL     1      -7.487   6.914  63.672  1.00  0.00    -0.091 C  
HETATM   28  C   UNL     1      -6.747   7.345  64.941  1.00  0.00    -0.047 C  
ENDBRANCH  23  24
ENDBRANCH  19  23
TORSDOF 3
ENDMDL
MODEL       82
REMARK 921   NORMALIZED FREE ENERGY PREDICTED BY IDOCK:   -4.27 KCAL/MOL
REMARK 922        TOTAL FREE ENERGY PREDICTED BY IDOCK:   -5.39 KCAL/MOL
REMARK 923 INTER-LIGAND FREE ENERGY PREDICTED BY IDOCK:   -5.06 KCAL/MOL
REMARK 924 INTRA-LIGAND FREE ENERGY PREDICTED BY IDOCK:   -0.34 KCAL/MOL
REMARK 927      BINDING AFFINITY PREDICTED BY RF-SCORE:    0.00 PKD
ROOT
HETATM    1  C   UNL     1      -8.674  16.553  67.961  1.00  0.00    -0.189 C  
HETATM    2  C   UNL     1      -9.604  16.805  68.998  1.00  0.00    -0.230 C  
HETATM    3  C   UNL     1      -8.477  15.900  69.349  1.00  0.00    -0.191 C  
HETATM    4  C   UNL     1      -6.987  15.782  67.934  1.00  0.00    -0.140 C  
HETATM    5  C   UNL     1      -7.045  16.598  69.033  1.00  0.00    -0.216 C  
HETATM    6  C   UNL     1      -8.340  11.014  68.049  1.00  0.00    -0.125 A  
HETATM    7  O   UNL     1      -5.699  15.169  67.996  1.00  0.00    -0.122 OA 
HETATM    8  C   UNL     1      -6.603  15.075  70.035  1.00  0.00    -0.158 C  
HETATM    9  C   UNL     1      -6.373  17.898  69.357  1.00  0.00    -0.239 C  
HETATM   10  C   UNL     1      -8.994  14.852  67.319  1.00  0.00    -0.212 C  
HETATM   11  H   UNL     1      -5.011  15.114  67.343  1.00  0.00     0.000 HD 
HETATM   12  C   UNL     1      -7.190  13.603  69.254  1.00  0.00     0.071 C  
HETATM   13  C   UNL     1      -8.583  13.552  68.314  1.00  0.00    -0.168 C  
HETATM   14  C   UNL     1      -8.887  12.230  67.602  1.00  0.00    -0.175 A  
HETATM   15  C   UNL     1      -9.901  12.181  66.618  1.00  0.00    -0.224 A  
HETATM   16  C   UNL     1     -10.278  10.945  66.065  1.00  0.00    -0.311 A  
HETATM   17  C   UNL     1     -10.614  13.404  66.085  1.00  0.00    -0.294 C  
HETATM   18  C   UNL     1     -10.460  14.667  66.925  1.00  0.00    -0.270 C  
HETATM   19  C   UNL     1      -9.686   9.756  66.478  1.00  0.00    -0.209 A  
HETATM   20  C   UNL     1      -8.741   9.791  67.496  1.00  0.00    -0.125 A  
ENDROOT
BRANCH   4  21
HETATM   21  C   UNL     1      -6.726  16.723  66.720  1.00  0.00    -0.257 C  
HETATM   22  C   UNL     1      -6.531  17.490  65.812  1.00  0.00    -0.055 C  
ENDBRANCH   4  21
BRANCH  19  23
HETATM   23  O   UNL     1      -9.973   8.520  65.960  1.00  0.00    -0.191 OA 
BRANCH  23  24
HETATM   24  C   UNL     1      -9.567   7.408  66.757  1.00  0.00    -0.192 C  
HETATM   25  C   UNL     1     -10.730   6.745  67.496  1.00  0.00    -0.381 C  
HETATM   26  C   UNL     1     -10.185   5.371  67.828  1.00  0.00    -0.230 C  
HETATM   27  C   UNL     1      -9.384   4.976  66.593  1.00  0.00    -0.138 C  
HETATM   28  C   UNL     1      -9.052   6.278  65.860  1.00  0.00    -0.086 C  
ENDBRANCH  23  24
ENDBRANCH  19  23
TORSDOF 3
ENDMDL
MODEL       83
REMARK 921   NORMALIZED FREE ENERGY PREDICTED BY IDOCK:   -4.26 KCAL/MOL
REMARK 922        TOTAL FREE ENERGY PREDICTED BY IDOCK:   -5.38 KCAL/MOL
REMARK 923 INTER-LIGAND FREE ENERGY PREDICTED BY IDOCK:   -5.09 KCAL/MOL
REMARK 924 INTRA-LIGAND FREE ENERGY PREDICTED BY IDOCK:   -0.29 KCAL/MOL
REMARK 927      BINDING AFFINITY PREDICTED BY RF-SCORE:    0.00 PKD
ROOT
HETATM    1  C   UNL     1      -7.733  18.014  67.104  1.00  0.00    -0.233 C  
HETATM    2  C   UNL     1      -6.956  18.071  65.923  1.00  0.00    -0.319 C  
HETATM    3  C   UNL     1      -8.362  17.621  65.746  1.00  0.00     0.205 C  
HETATM    4  C   UNL     1      -9.554  17.827  67.412  1.00  0.00    -0.264 C  
HETATM    5  C   UNL     1      -9.404  18.700  66.368  1.00  0.00    -0.301 C  
HETATM    6  C   UNL     1      -9.918  12.922  66.786  1.00  0.00    -0.243 A  
HETATM    7  O   UNL     1     -10.964  17.669  67.566  1.00  0.00    -0.273 OA 
HETATM    8  C   UNL     1     -10.490  17.523  65.389  1.00  0.00     0.041 C  
HETATM    9  C   UNL     1      -9.645  20.175  66.248  1.00  0.00    -0.487 C  
HETATM   10  C   UNL     1      -7.904  16.239  67.581  1.00  0.00    -0.162 C  
HETATM   11  H   UNL     1     -11.514  17.764  68.334  1.00  0.00     0.000 HD 
HETATM   12  C   UNL     1     -10.311  15.862  65.964  1.00  0.00    -0.363 C  
HETATM   13  C   UNL     1      -8.883  15.261  66.615  1.00  0.00    -0.328 C  
HETATM   14  C   UNL     1      -8.929  13.839  67.185  1.00  0.00    -0.241 A  
HETATM   15  C   UNL     1      -7.845  13.357  67.952  1.00  0.00    -0.152 A  
HETATM   16  C   UNL     1      -7.819  12.010  68.356  1.00  0.00    -0.147 A  
HETATM   17  C   UNL     1      -6.685  14.218  68.403  1.00  0.00    -0.104 C  
HETATM   18  C   UNL     1      -6.541  15.550  67.677  1.00  0.00    -0.195 C  
HETATM   19  C   UNL     1      -8.835  11.129  68.001  1.00  0.00    -0.142 A  
HETATM   20  C   UNL     1      -9.866  11.581  67.186  1.00  0.00    -0.210 A  
ENDROOT
BRANCH   4  21
HETATM   21  C   UNL     1      -9.282  18.657  68.702  1.00  0.00    -0.361 C  
HETATM   22  C   UNL     1      -9.071  19.340  69.672  1.00  0.00     0.388 C  
ENDBRANCH   4  21
BRANCH  19  23
HETATM   23  O   UNL     1      -8.899   9.816  68.388  1.00  0.00    -0.119 OA 
BRANCH  23  24
HETATM   24  C   UNL     1      -9.425   8.912  67.417  1.00  0.00    -0.145 C  
HETATM   25  C   UNL     1      -8.473   7.758  67.096  1.00  0.00    -0.124 C  
HETATM   26  C   UNL     1      -9.391   6.718  66.487  1.00  0.00    -0.197 C  
HETATM   27  C   UNL     1     -10.665   6.808  67.319  1.00  0.00    -0.423 C  
HETATM   28  C   UNL     1     -10.652   8.188  67.980  1.00  0.00    -0.188 C  
ENDBRANCH  23  24
ENDBRANCH  19  23
TORSDOF 3
ENDMDL
MODEL       84
REMARK 921   NORMALIZED FREE ENERGY PREDICTED BY IDOCK:   -4.23 KCAL/MOL
REMARK 922        TOTAL FREE ENERGY PREDICTED BY IDOCK:   -5.35 KCAL/MOL
REMARK 923 INTER-LIGAND FREE ENERGY PREDICTED BY IDOCK:   -5.07 KCAL/MOL
REMARK 924 INTRA-LIGAND FREE ENERGY PREDICTED BY IDOCK:   -0.29 KCAL/MOL
REMARK 927      BINDING AFFINITY PREDICTED BY RF-SCORE:    0.00 PKD
ROOT
HETATM    1  C   UNL     1     -10.816   7.230  70.815  1.00  0.00    -0.260 C  
HETATM    2  C   UNL     1     -12.177   6.927  71.062  1.00  0.00    -0.427 C  
HETATM    3  C   UNL     1     -11.205   5.865  71.433  1.00  0.00    -0.285 C  
HETATM    4  C   UNL     1      -9.228   6.432  71.345  1.00  0.00    -0.149 C  
HETATM    5  C   UNL     1     -10.061   6.442  72.432  1.00  0.00    -0.191 C  
HETATM    6  C   UNL     1      -9.126   2.714  68.066  1.00  0.00    -0.229 A  
HETATM    7  O   UNL     1      -8.051   5.754  71.786  1.00  0.00    -0.115 OA 
HETATM    8  C   UNL     1      -9.819   4.581  72.480  1.00  0.00    -0.212 C  
HETATM    9  C   UNL     1     -10.027   7.209  73.719  1.00  0.00    -0.373 C  
HETATM   10  C   UNL     1     -10.293   6.287  69.317  1.00  0.00    -0.266 C  
HETATM   11  H   UNL     1      -7.139   6.015  71.746  1.00  0.00     0.000 HD 
HETATM   12  C   UNL     1      -9.502   3.936  70.866  1.00  0.00    -0.236 C  
HETATM   13  C   UNL     1     -10.133   4.613  69.463  1.00  0.00    -0.212 C  
HETATM   14  C   UNL     1      -9.660   4.014  68.135  1.00  0.00    -0.189 A  
HETATM   15  C   UNL     1      -9.960   4.674  66.922  1.00  0.00    -0.239 A  
HETATM   16  C   UNL     1      -9.653   4.058  65.696  1.00  0.00    -0.190 A  
HETATM   17  C   UNL     1     -10.587   6.049  66.846  1.00  0.00    -0.384 C  
HETATM   18  C   UNL     1     -11.232   6.544  68.136  1.00  0.00    -0.250 C  
HETATM   19  C   UNL     1      -9.072   2.794  65.647  1.00  0.00    -0.133 A  
HETATM   20  C   UNL     1      -8.842   2.111  66.835  1.00  0.00    -0.148 A  
ENDROOT
BRANCH   4  21
HETATM   21  C   UNL     1      -8.634   7.869  71.252  1.00  0.00    -0.138 C  
HETATM   22  C   UNL     1      -8.204   8.989  71.140  1.00  0.00    -0.198 C  
ENDBRANCH   4  21
BRANCH  19  23
HETATM   23  O   UNL     1      -8.710   2.148  64.495  1.00  0.00    -0.092 OA 
BRANCH  23  24
HETATM   24  C   UNL     1      -7.706   2.796  63.713  1.00  0.00    -0.068 C  
HETATM   25  C   UNL     1      -6.454   3.146  64.517  1.00  0.00    -0.031 C  
HETATM   26  C   UNL     1      -5.400   3.329  63.445  1.00  0.00    -0.009 C  
HETATM   27  C   UNL     1      -5.704   2.235  62.428  1.00  0.00    -0.008 C  
HETATM   28  C   UNL     1      -7.165   1.835  62.650  1.00  0.00    -0.035 C  
ENDBRANCH  23  24
ENDBRANCH  19  23
TORSDOF 3
ENDMDL
MODEL       85
REMARK 921   NORMALIZED FREE ENERGY PREDICTED BY IDOCK:   -4.19 KCAL/MOL
REMARK 922        TOTAL FREE ENERGY PREDICTED BY IDOCK:   -5.30 KCAL/MOL
REMARK 923 INTER-LIGAND FREE ENERGY PREDICTED BY IDOCK:   -5.02 KCAL/MOL
REMARK 924 INTRA-LIGAND FREE ENERGY PREDICTED BY IDOCK:   -0.28 KCAL/MOL
REMARK 927      BINDING AFFINITY PREDICTED BY RF-SCORE:    0.00 PKD
ROOT
HETATM    1  C   UNL     1      -8.019   6.735  73.137  1.00  0.00    -0.104 C  
HETATM    2  C   UNL     1      -7.918   7.469  74.343  1.00  0.00    -0.216 C  
HETATM    3  C   UNL     1      -9.284   7.369  73.764  1.00  0.00    -0.305 C  
HETATM    4  C   UNL     1      -9.462   6.061  72.185  1.00  0.00    -0.148 C  
HETATM    5  C   UNL     1      -9.700   5.820  73.512  1.00  0.00    -0.159 C  
HETATM    6  C   UNL     1     -10.877  10.234  69.911  1.00  0.00    -0.355 A  
HETATM    7  O   UNL     1     -10.624   5.583  71.506  1.00  0.00    -0.233 OA 
HETATM    8  C   UNL     1     -11.300   6.771  73.271  1.00  0.00     0.075 C  
HETATM    9  C   UNL     1      -9.725   4.555  74.315  1.00  0.00    -0.159 C  
HETATM   10  C   UNL     1      -8.222   7.945  71.757  1.00  0.00    -0.139 C  
HETATM   11  H   UNL     1     -10.706   4.979  70.777  1.00  0.00     0.000 HD 
HETATM   12  C   UNL     1     -11.137   7.981  71.994  1.00  0.00    -0.353 C  
HETATM   13  C   UNL     1      -9.692   8.768  71.649  1.00  0.00    -0.366 C  
HETATM   14  C   UNL     1      -9.685   9.695  70.429  1.00  0.00    -0.304 A  
HETATM   15  C   UNL     1      -8.459  10.203  69.941  1.00  0.00    -0.106 A  
HETATM   16  C   UNL     1      -8.460  11.163  68.914  1.00  0.00    -0.095 A  
HETATM   17  C   UNL     1      -7.105   9.756  70.446  1.00  0.00    -0.146 C  
HETATM   18  C   UNL     1      -7.118   9.004  71.772  1.00  0.00     0.034 C  
HETATM   19  C   UNL     1      -9.648  11.643  68.373  1.00  0.00    -0.195 A  
HETATM   20  C   UNL     1     -10.856  11.201  68.899  1.00  0.00    -0.261 A  
ENDROOT
BRANCH   4  21
HETATM   21  C   UNL     1      -8.466   4.955  71.725  1.00  0.00    -0.124 C  
HETATM   22  C   UNL     1      -7.659   4.134  71.370  1.00  0.00    -0.064 C  
ENDBRANCH   4  21
BRANCH  19  23
HETATM   23  O   UNL     1      -9.728  12.548  67.347  1.00  0.00    -0.190 OA 
BRANCH  23  24
HETATM   24  C   UNL     1     -10.114  12.012  66.082  1.00  0.00    -0.226 C  
HETATM   25  C   UNL     1     -10.279  13.083  65.003  1.00  0.00    -0.287 C  
HETATM   26  C   UNL     1     -10.177  12.291  63.716  1.00  0.00    -0.427 C  
HETATM   27  C   UNL     1      -9.088  11.262  63.993  1.00  0.00     0.009 C  
HETATM   28  C   UNL     1      -8.990  11.137  65.516  1.00  0.00    -0.178 C  
ENDBRANCH  23  24
ENDBRANCH  19  23
TORSDOF 3
ENDMDL
MODEL       86
REMARK 921   NORMALIZED FREE ENERGY PREDICTED BY IDOCK:   -4.12 KCAL/MOL
REMARK 922        TOTAL FREE ENERGY PREDICTED BY IDOCK:   -5.23 KCAL/MOL
REMARK 923 INTER-LIGAND FREE ENERGY PREDICTED BY IDOCK:   -5.00 KCAL/MOL
REMARK 924 INTRA-LIGAND FREE ENERGY PREDICTED BY IDOCK:   -0.22 KCAL/MOL
REMARK 927      BINDING AFFINITY PREDICTED BY RF-SCORE:    0.00 PKD
ROOT
HETATM    1  C   UNL     1      -6.225  12.614  68.338  1.00  0.00    -0.067 C  
HETATM    2  C   UNL     1      -5.907  12.037  67.085  1.00  0.00    -0.150 C  
HETATM    3  C   UNL     1      -7.316  12.485  67.248  1.00  0.00    -0.113 C  
HETATM    4  C   UNL     1      -7.684  13.583  68.951  1.00  0.00     0.030 C  
HETATM    5  C   UNL     1      -7.386  14.044  67.696  1.00  0.00    -0.188 C  
HETATM    6  C   UNL     1     -10.799   9.810  69.759  1.00  0.00    -0.285 A  
HETATM    7  O   UNL     1      -8.846  14.311  69.348  1.00  0.00    -0.358 OA 
HETATM    8  C   UNL     1      -9.157  13.613  67.250  1.00  0.00    -0.228 C  
HETATM    9  C   UNL     1      -6.814  15.342  67.212  1.00  0.00    -0.143 C  
HETATM   10  C   UNL     1      -7.186  11.369  69.304  1.00  0.00    -0.075 C  
HETATM   11  H   UNL     1      -9.016  14.817  70.133  1.00  0.00     0.000 HD 
HETATM   12  C   UNL     1      -9.753  12.267  68.227  1.00  0.00    -0.219 C  
HETATM   13  C   UNL     1      -8.762  11.036  68.800  1.00  0.00    -0.146 C  
HETATM   14  C   UNL     1      -9.407  10.011  69.739  1.00  0.00    -0.233 A  
HETATM   15  C   UNL     1      -8.593   9.094  70.441  1.00  0.00    -0.236 A  
HETATM   16  C   UNL     1      -9.187   8.064  71.191  1.00  0.00    -0.174 A  
HETATM   17  C   UNL     1      -7.081   9.156  70.461  1.00  0.00    -0.088 C  
HETATM   18  C   UNL     1      -6.450  10.031  69.383  1.00  0.00    -0.048 C  
HETATM   19  C   UNL     1     -10.569   7.914  71.247  1.00  0.00    -0.211 A  
HETATM   20  C   UNL     1     -11.371   8.769  70.500  1.00  0.00    -0.255 A  
ENDROOT
BRANCH   4  21
HETATM   21  C   UNL     1      -6.659  14.261  69.908  1.00  0.00    -0.109 C  
HETATM   22  C   UNL     1      -5.901  14.784  70.684  1.00  0.00    -0.149 C  
ENDBRANCH   4  21
BRANCH  19  23
HETATM   23  O   UNL     1     -11.221   6.961  71.985  1.00  0.00    -0.241 OA 
BRANCH  23  24
HETATM   24  C   UNL     1     -10.411   5.883  72.452  1.00  0.00    -0.197 C  
HETATM   25  C   UNL     1     -11.113   5.016  73.497  1.00  0.00    -0.386 C  
HETATM   26  C   UNL     1     -10.322   3.724  73.457  1.00  0.00    -0.235 C  
HETATM   27  C   UNL     1     -10.016   3.518  71.978  1.00  0.00    -0.227 C  
HETATM   28  C   UNL     1     -10.148   4.890  71.315  1.00  0.00    -0.269 C  
ENDBRANCH  23  24
ENDBRANCH  19  23
TORSDOF 3
ENDMDL
MODEL       87
REMARK 921   NORMALIZED FREE ENERGY PREDICTED BY IDOCK:   -4.05 KCAL/MOL
REMARK 922        TOTAL FREE ENERGY PREDICTED BY IDOCK:   -5.14 KCAL/MOL
REMARK 923 INTER-LIGAND FREE ENERGY PREDICTED BY IDOCK:   -5.09 KCAL/MOL
REMARK 924 INTRA-LIGAND FREE ENERGY PREDICTED BY IDOCK:   -0.05 KCAL/MOL
REMARK 927      BINDING AFFINITY PREDICTED BY RF-SCORE:    0.00 PKD
ROOT
HETATM    1  C   UNL     1      -8.092   7.118  67.829  1.00  0.00    -0.115 C  
HETATM    2  C   UNL     1      -7.354   6.975  66.630  1.00  0.00    -0.080 C  
HETATM    3  C   UNL     1      -6.750   7.868  67.653  1.00  0.00    -0.068 C  
HETATM    4  C   UNL     1      -7.678   7.833  69.490  1.00  0.00    -0.105 C  
HETATM    5  C   UNL     1      -6.594   7.105  69.078  1.00  0.00    -0.044 C  
HETATM    6  C   UNL     1      -8.265  12.635  68.408  1.00  0.00    -0.129 A  
HETATM    7  O   UNL     1      -7.286   8.410  70.736  1.00  0.00    -0.048 OA 
HETATM    8  C   UNL     1      -5.605   8.686  69.292  1.00  0.00    -0.035 C  
HETATM    9  C   UNL     1      -6.006   5.814  69.562  1.00  0.00    -0.024 C  
HETATM   10  C   UNL     1      -8.906   8.775  67.794  1.00  0.00    -0.137 C  
HETATM   11  H   UNL     1      -7.714   8.393  71.584  1.00  0.00     0.000 HD 
HETATM   12  C   UNL     1      -6.616  10.111  69.030  1.00  0.00    -0.053 C  
HETATM   13  C   UNL     1      -7.919  10.134  67.969  1.00  0.00    -0.101 C  
HETATM   14  C   UNL     1      -8.773  11.406  67.950  1.00  0.00    -0.145 A  
HETATM   15  C   UNL     1     -10.009  11.412  67.265  1.00  0.00    -0.217 A  
HETATM   16  C   UNL     1     -10.725  12.613  67.125  1.00  0.00    -0.264 A  
HETATM   17  C   UNL     1     -10.646  10.174  66.671  1.00  0.00    -0.214 C  
HETATM   18  C   UNL     1      -9.718   8.974  66.514  1.00  0.00    -0.311 C  
HETATM   19  C   UNL     1     -10.235  13.811  67.635  1.00  0.00    -0.242 A  
HETATM   20  C   UNL     1      -8.986  13.824  68.245  1.00  0.00    -0.186 A  
ENDROOT
BRANCH   4  21
HETATM   21  C   UNL     1      -8.702   6.795  70.039  1.00  0.00    -0.141 C  
HETATM   22  C   UNL     1      -9.509   6.026  70.497  1.00  0.00    -0.191 C  
ENDBRANCH   4  21
BRANCH  19  23
HETATM   23  O   UNL     1     -10.892  15.012  67.572  1.00  0.00    -0.281 OA 
BRANCH  23  24
HETATM   24  C   UNL     1     -11.746  15.306  68.677  1.00  0.00    -0.346 C  
HETATM   25  C   UNL     1     -12.055  14.080  69.537  1.00  0.00    -0.397 C  
HETATM   26  C   UNL     1     -12.507  14.689  70.849  1.00  0.00    -0.406 C  
HETATM   27  C   UNL     1     -11.584  15.885  71.046  1.00  0.00    -0.465 C  
HETATM   28  C   UNL     1     -11.032  16.236  69.662  1.00  0.00    -0.346 C  
ENDBRANCH  23  24
ENDBRANCH  19  23
TORSDOF 3
ENDMDL
MODEL       88
REMARK 921   NORMALIZED FREE ENERGY PREDICTED BY IDOCK:   -4.04 KCAL/MOL
REMARK 922        TOTAL FREE ENERGY PREDICTED BY IDOCK:   -5.13 KCAL/MOL
REMARK 923 INTER-LIGAND FREE ENERGY PREDICTED BY IDOCK:   -4.79 KCAL/MOL
REMARK 924 INTRA-LIGAND FREE ENERGY PREDICTED BY IDOCK:   -0.34 KCAL/MOL
REMARK 927      BINDING AFFINITY PREDICTED BY RF-SCORE:    0.00 PKD
ROOT
HETATM    1  C   UNL     1      -8.445  18.508  67.528  1.00  0.00    -0.272 C  
HETATM    2  C   UNL     1      -9.482  18.897  68.409  1.00  0.00    -0.405 C  
HETATM    3  C   UNL     1      -8.373  18.120  69.024  1.00  0.00    -0.044 C  
HETATM    4  C   UNL     1      -6.744  17.820  67.802  1.00  0.00    -0.185 C  
HETATM    5  C   UNL     1      -6.936  18.814  68.724  1.00  0.00    -0.329 C  
HETATM    6  C   UNL     1      -7.974  13.092  68.646  1.00  0.00    -0.027 A  
HETATM    7  O   UNL     1      -5.453  17.285  68.096  1.00  0.00    -0.122 OA 
HETATM    8  C   UNL     1      -6.557  17.513  70.023  1.00  0.00     0.337 C  
HETATM    9  C   UNL     1      -6.335  20.179  68.871  1.00  0.00    -0.358 C  
HETATM   10  C   UNL     1      -8.652  16.707  67.176  1.00  0.00    -0.214 C  
HETATM   11  H   UNL     1      -4.701  17.146  67.532  1.00  0.00     0.000 HD 
HETATM   12  C   UNL     1      -7.022  15.902  69.468  1.00  0.00    -0.189 C  
HETATM   13  C   UNL     1      -8.310  15.623  68.425  1.00  0.00    -0.162 C  
HETATM   14  C   UNL     1      -8.505  14.184  67.937  1.00  0.00    -0.167 A  
HETATM   15  C   UNL     1      -9.411  13.916  66.886  1.00  0.00    -0.263 A  
HETATM   16  C   UNL     1      -9.697  12.586  66.532  1.00  0.00    -0.249 A  
HETATM   17  C   UNL     1     -10.100  14.993  66.076  1.00  0.00    -0.322 C  
HETATM   18  C   UNL     1     -10.065  16.390  66.685  1.00  0.00    -0.290 C  
HETATM   19  C   UNL     1      -9.118  11.517  67.208  1.00  0.00    -0.164 A  
HETATM   20  C   UNL     1      -8.283  11.774  68.288  1.00  0.00    -0.157 A  
ENDROOT
BRANCH   4  21
HETATM   21  C   UNL     1      -6.386  18.542  66.468  1.00  0.00    -0.213 C  
HETATM   22  C   UNL     1      -6.158  19.111  65.431  1.00  0.00    -0.278 C  
ENDBRANCH   4  21
BRANCH  19  23
HETATM   23  O   UNL     1      -9.318  10.198  66.896  1.00  0.00    -0.154 OA 
BRANCH  23  24
HETATM   24  C   UNL     1      -8.482   9.268  67.585  1.00  0.00    -0.116 C  
HETATM   25  C   UNL     1      -9.272   8.204  68.348  1.00  0.00    -0.135 C  
HETATM   26  C   UNL     1      -8.254   7.100  68.547  1.00  0.00    -0.125 C  
HETATM   27  C   UNL     1      -7.474   7.069  67.238  1.00  0.00    -0.099 C  
HETATM   28  C   UNL     1      -7.682   8.434  66.579  1.00  0.00    -0.089 C  
ENDBRANCH  23  24
ENDBRANCH  19  23
TORSDOF 3
ENDMDL
MODEL       89
REMARK 921   NORMALIZED FREE ENERGY PREDICTED BY IDOCK:   -3.92 KCAL/MOL
REMARK 922        TOTAL FREE ENERGY PREDICTED BY IDOCK:   -4.98 KCAL/MOL
REMARK 923 INTER-LIGAND FREE ENERGY PREDICTED BY IDOCK:   -5.10 KCAL/MOL
REMARK 924 INTRA-LIGAND FREE ENERGY PREDICTED BY IDOCK:    0.12 KCAL/MOL
REMARK 927      BINDING AFFINITY PREDICTED BY RF-SCORE:    0.00 PKD
ROOT
HETATM    1  C   UNL     1     -10.838   7.136  70.804  1.00  0.00    -0.267 C  
HETATM    2  C   UNL     1     -12.226   6.859  70.819  1.00  0.00    -0.364 C  
HETATM    3  C   UNL     1     -11.342   5.737  71.234  1.00  0.00    -0.154 C  
HETATM    4  C   UNL     1      -9.363   6.242  71.491  1.00  0.00    -0.148 C  
HETATM    5  C   UNL     1     -10.350   6.189  72.438  1.00  0.00    -0.219 C  
HETATM    6  C   UNL     1      -8.846   2.815  67.945  1.00  0.00    -0.167 A  
HETATM    7  O   UNL     1      -8.280   5.491  72.039  1.00  0.00    -0.113 OA 
HETATM    8  C   UNL     1     -10.157   4.324  72.357  1.00  0.00    -0.240 C  
HETATM    9  C   UNL     1     -10.494   6.843  73.779  1.00  0.00    -0.390 C  
HETATM   10  C   UNL     1     -10.114   6.306  69.322  1.00  0.00    -0.213 C  
HETATM   11  H   UNL     1      -7.367   5.723  72.158  1.00  0.00     0.000 HD 
HETATM   12  C   UNL     1      -9.614   3.807  70.757  1.00  0.00    -0.249 C  
HETATM   13  C   UNL     1     -10.012   4.621  69.342  1.00  0.00    -0.249 C  
HETATM   14  C   UNL     1      -9.358   4.121  68.049  1.00  0.00    -0.213 A  
HETATM   15  C   UNL     1      -9.458   4.892  66.869  1.00  0.00    -0.156 A  
HETATM   16  C   UNL     1      -8.983   4.371  65.652  1.00  0.00    -0.132 A  
HETATM   17  C   UNL     1     -10.038   6.288  66.824  1.00  0.00    -0.237 C  
HETATM   18  C   UNL     1     -10.859   6.693  68.043  1.00  0.00    -0.345 C  
HETATM   19  C   UNL     1      -8.427   3.098  65.578  1.00  0.00    -0.103 A  
HETATM   20  C   UNL     1      -8.392   2.309  66.722  1.00  0.00    -0.091 A  
ENDROOT
BRANCH   4  21
HETATM   21  C   UNL     1      -8.733   7.662  71.615  1.00  0.00    -0.132 C  
HETATM   22  C   UNL     1      -8.222   8.752  71.667  1.00  0.00    -0.171 C  
ENDBRANCH   4  21
BRANCH  19  23
HETATM   23  O   UNL     1      -7.909   2.539  64.439  1.00  0.00    -0.075 OA 
BRANCH  23  24
HETATM   24  C   UNL     1      -8.840   2.329  63.377  1.00  0.00    -0.085 C  
HETATM   25  C   UNL     1     -10.141   1.675  63.842  1.00  0.00    -0.080 C  
HETATM   26  C   UNL     1     -11.110   2.012  62.728  1.00  0.00    -0.238 C  
HETATM   27  C   UNL     1     -10.752   3.442  62.339  1.00  0.00    -0.170 C  
HETATM   28  C   UNL     1      -9.320   3.675  62.825  1.00  0.00    -0.101 C  
ENDBRANCH  23  24
ENDBRANCH  19  23
TORSDOF 3
ENDMDL
MODEL       90
REMARK 921   NORMALIZED FREE ENERGY PREDICTED BY IDOCK:   -3.89 KCAL/MOL
REMARK 922        TOTAL FREE ENERGY PREDICTED BY IDOCK:   -4.95 KCAL/MOL
REMARK 923 INTER-LIGAND FREE ENERGY PREDICTED BY IDOCK:   -4.96 KCAL/MOL
REMARK 924 INTRA-LIGAND FREE ENERGY PREDICTED BY IDOCK:    0.00 KCAL/MOL
REMARK 927      BINDING AFFINITY PREDICTED BY RF-SCORE:    0.00 PKD
ROOT
HETATM    1  C   UNL     1     -10.002  14.312  67.218  1.00  0.00    -0.252 C  
HETATM    2  C   UNL     1      -9.298  14.754  66.073  1.00  0.00    -0.249 C  
HETATM    3  C   UNL     1      -9.986  13.442  65.939  1.00  0.00    -0.287 C  
HETATM    4  C   UNL     1     -11.240  12.959  67.498  1.00  0.00    -0.290 C  
HETATM    5  C   UNL     1     -11.561  13.566  66.313  1.00  0.00    -0.374 C  
HETATM    6  C   UNL     1      -8.106   9.128  67.794  1.00  0.00    -0.105 A  
HETATM    7  O   UNL     1     -12.178  11.890  67.633  1.00  0.00    -0.510 OA 
HETATM    8  C   UNL     1     -11.405  11.864  65.539  1.00  0.00    -0.334 C  
HETATM    9  C   UNL     1     -12.710  14.441  65.911  1.00  0.00    -0.201 C  
HETATM   10  C   UNL     1      -9.003  12.980  68.015  1.00  0.00    -0.199 C  
HETATM   11  H   UNL     1     -12.756  11.667  68.353  1.00  0.00     0.000 HD 
HETATM   12  C   UNL     1     -10.245  10.865  66.421  1.00  0.00    -0.289 C  
HETATM   13  C   UNL     1      -8.906  11.494  67.219  1.00  0.00    -0.160 C  
HETATM   14  C   UNL     1      -8.069  10.511  68.044  1.00  0.00    -0.111 A  
HETATM   15  C   UNL     1      -7.076  11.002  68.922  1.00  0.00    -0.098 A  
HETATM   16  C   UNL     1      -6.213  10.103  69.573  1.00  0.00    -0.048 A  
HETATM   17  C   UNL     1      -6.885  12.469  69.240  1.00  0.00    -0.019 C  
HETATM   18  C   UNL     1      -7.568  13.438  68.281  1.00  0.00    -0.135 C  
HETATM   19  C   UNL     1      -6.300   8.731  69.357  1.00  0.00    -0.041 A  
HETATM   20  C   UNL     1      -7.227   8.250  68.440  1.00  0.00    -0.092 A  
ENDROOT
BRANCH   4  21
HETATM   21  C   UNL     1     -11.799  13.888  68.617  1.00  0.00    -0.407 C  
HETATM   22  C   UNL     1     -12.276  14.589  69.472  1.00  0.00    -0.306 C  
ENDBRANCH   4  21
BRANCH  19  23
HETATM   23  O   UNL     1      -5.522   7.793  69.982  1.00  0.00    -0.023 OA 
BRANCH  23  24
HETATM   24  C   UNL     1      -5.911   7.456  71.313  1.00  0.00    -0.036 C  
HETATM   25  C   UNL     1      -5.312   8.389  72.366  1.00  0.00    -0.041 C  
HETATM   26  C   UNL     1      -6.219   8.182  73.562  1.00  0.00    -0.098 C  
HETATM   27  C   UNL     1      -7.614   8.062  72.959  1.00  0.00    -0.173 C  
HETATM   28  C   UNL     1      -7.417   7.672  71.492  1.00  0.00    -0.079 C  
ENDBRANCH  23  24
ENDBRANCH  19  23
TORSDOF 3
ENDMDL
MODEL       91
REMARK 921   NORMALIZED FREE ENERGY PREDICTED BY IDOCK:   -3.87 KCAL/MOL
REMARK 922        TOTAL FREE ENERGY PREDICTED BY IDOCK:   -4.93 KCAL/MOL
REMARK 923 INTER-LIGAND FREE ENERGY PREDICTED BY IDOCK:   -4.66 KCAL/MOL
REMARK 924 INTRA-LIGAND FREE ENERGY PREDICTED BY IDOCK:   -0.27 KCAL/MOL
REMARK 927      BINDING AFFINITY PREDICTED BY RF-SCORE:    0.00 PKD
ROOT
HETATM    1  C   UNL     1      -7.921   5.244  69.102  1.00  0.00    -0.089 C  
HETATM    2  C   UNL     1      -7.101   4.731  68.069  1.00  0.00    -0.062 C  
HETATM    3  C   UNL     1      -6.476   5.769  68.930  1.00  0.00    -0.045 C  
HETATM    4  C   UNL     1      -7.569   6.286  70.597  1.00  0.00    -0.096 C  
HETATM    5  C   UNL     1      -6.565   5.359  70.499  1.00  0.00    -0.042 C  
HETATM    6  C   UNL     1      -7.362  10.720  68.389  1.00  0.00    -0.092 A  
HETATM    7  O   UNL     1      -7.218   7.096  71.718  1.00  0.00    -0.074 OA 
HETATM    8  C   UNL     1      -5.387   6.819  70.471  1.00  0.00    -0.022 C  
HETATM    9  C   UNL     1      -6.216   4.163  71.333  1.00  0.00    -0.014 C  
HETATM   10  C   UNL     1      -8.484   6.927  68.591  1.00  0.00    -0.121 C  
HETATM   11  H   UNL     1      -7.722   7.335  72.487  1.00  0.00     0.000 HD 
HETATM   12  C   UNL     1      -6.155   8.247  69.768  1.00  0.00    -0.029 C  
HETATM   13  C   UNL     1      -7.336   8.164  68.575  1.00  0.00    -0.093 C  
HETATM   14  C   UNL     1      -7.993   9.484  68.162  1.00  0.00    -0.094 A  
HETATM   15  C   UNL     1      -9.146   9.467  67.344  1.00  0.00    -0.144 A  
HETATM   16  C   UNL     1      -9.668  10.675  66.847  1.00  0.00    -0.213 A  
HETATM   17  C   UNL     1      -9.894   8.206  66.971  1.00  0.00    -0.299 C  
HETATM   18  C   UNL     1      -9.136   6.904  67.207  1.00  0.00    -0.127 C  
HETATM   19  C   UNL     1      -9.062  11.895  67.129  1.00  0.00    -0.178 A  
HETATM   20  C   UNL     1      -7.888  11.910  67.872  1.00  0.00    -0.138 A  
ENDROOT
BRANCH   4  21
HETATM   21  C   UNL     1      -8.777   5.537  71.234  1.00  0.00    -0.135 C  
HETATM   22  C   UNL     1      -9.742   4.990  71.704  1.00  0.00    -0.226 C  
ENDBRANCH   4  21
BRANCH  19  23
HETATM   23  O   UNL     1      -9.533  13.113  66.713  1.00  0.00    -0.239 OA 
BRANCH  23  24
HETATM   24  C   UNL     1     -10.614  13.071  65.782  1.00  0.00    -0.277 C  
HETATM   25  C   UNL     1     -11.984  13.202  66.448  1.00  0.00    -0.462 C  
HETATM   26  C   UNL     1     -12.880  13.633  65.306  1.00  0.00    -0.421 C  
HETATM   27  C   UNL     1     -12.023  14.605  64.503  1.00  0.00    -0.473 C  
HETATM   28  C   UNL     1     -10.568  14.298  64.866  1.00  0.00    -0.452 C  
ENDBRANCH  23  24
ENDBRANCH  19  23
TORSDOF 3
ENDMDL
MODEL       92
REMARK 921   NORMALIZED FREE ENERGY PREDICTED BY IDOCK:   -3.87 KCAL/MOL
REMARK 922        TOTAL FREE ENERGY PREDICTED BY IDOCK:   -4.92 KCAL/MOL
REMARK 923 INTER-LIGAND FREE ENERGY PREDICTED BY IDOCK:   -4.51 KCAL/MOL
REMARK 924 INTRA-LIGAND FREE ENERGY PREDICTED BY IDOCK:   -0.42 KCAL/MOL
REMARK 927      BINDING AFFINITY PREDICTED BY RF-SCORE:    0.00 PKD
ROOT
HETATM    1  C   UNL     1     -11.290   7.280  72.332  1.00  0.00    -0.324 C  
HETATM    2  C   UNL     1     -10.258   7.561  73.259  1.00  0.00    -0.398 C  
HETATM    3  C   UNL     1     -10.151   8.254  71.948  1.00  0.00    -0.314 C  
HETATM    4  C   UNL     1     -11.801   8.069  70.732  1.00  0.00    -0.162 C  
HETATM    5  C   UNL     1     -11.508   9.079  71.609  1.00  0.00    -0.431 C  
HETATM    6  C   UNL     1      -8.402   6.014  67.764  1.00  0.00    -0.112 A  
HETATM    7  O   UNL     1     -12.125   8.725  69.506  1.00  0.00     0.338 OA 
HETATM    8  C   UNL     1     -10.276   9.672  70.324  1.00  0.00    -0.333 C  
HETATM    9  C   UNL     1     -12.371  10.088  72.305  1.00  0.00     0.130 C  
HETATM   10  C   UNL     1     -10.603   6.137  71.055  1.00  0.00    -0.301 C  
HETATM   11  H   UNL     1     -12.886   8.639  68.944  1.00  0.00     0.000 HD 
HETATM   12  C   UNL     1      -9.660   8.326  69.361  1.00  0.00    -0.171 C  
HETATM   13  C   UNL     1      -9.480   6.768  69.964  1.00  0.00    -0.158 C  
HETATM   14  C   UNL     1      -9.054   5.686  68.966  1.00  0.00    -0.124 A  
HETATM   15  C   UNL     1      -9.110   4.324  69.342  1.00  0.00    -0.179 A  
HETATM   16  C   UNL     1      -8.588   3.341  68.483  1.00  0.00    -0.120 A  
HETATM   17  C   UNL     1      -9.730   3.833  70.632  1.00  0.00    -0.235 C  
HETATM   18  C   UNL     1      -9.962   4.903  71.693  1.00  0.00    -0.255 C  
HETATM   19  C   UNL     1      -7.997   3.678  67.270  1.00  0.00    -0.083 A  
HETATM   20  C   UNL     1      -7.875   5.020  66.930  1.00  0.00    -0.096 A  
ENDROOT
BRANCH   4  21
HETATM   21  C   UNL     1     -13.232   7.581  71.108  1.00  0.00    -0.232 C  
HETATM   22  C   UNL     1     -14.357   7.229  71.358  1.00  0.00    -0.484 C  
ENDBRANCH   4  21
BRANCH  19  23
HETATM   23  O   UNL     1      -7.503   2.776  66.366  1.00  0.00    -0.069 OA 
BRANCH  23  24
HETATM   24  C   UNL     1      -7.930   2.958  65.016  1.00  0.00    -0.082 C  
HETATM   25  C   UNL     1      -6.882   2.522  63.992  1.00  0.00    -0.039 C  
HETATM   26  C   UNL     1      -7.697   2.323  62.731  1.00  0.00    -0.058 C  
HETATM   27  C   UNL     1      -8.994   1.687  63.219  1.00  0.00    -0.087 C  
HETATM   28  C   UNL     1      -9.108   2.027  64.707  1.00  0.00    -0.130 C  
ENDBRANCH  23  24
ENDBRANCH  19  23
TORSDOF 3
ENDMDL
MODEL       93
REMARK 921   NORMALIZED FREE ENERGY PREDICTED BY IDOCK:   -3.86 KCAL/MOL
REMARK 922        TOTAL FREE ENERGY PREDICTED BY IDOCK:   -4.91 KCAL/MOL
REMARK 923 INTER-LIGAND FREE ENERGY PREDICTED BY IDOCK:   -5.03 KCAL/MOL
REMARK 924 INTRA-LIGAND FREE ENERGY PREDICTED BY IDOCK:    0.12 KCAL/MOL
REMARK 927      BINDING AFFINITY PREDICTED BY RF-SCORE:    0.00 PKD
ROOT
HETATM    1  C   UNL     1      -8.370   6.970  70.948  1.00  0.00    -0.129 C  
HETATM    2  C   UNL     1      -9.272   7.419  71.942  1.00  0.00    -0.151 C  
HETATM    3  C   UNL     1      -9.895   6.800  70.742  1.00  0.00    -0.194 C  
HETATM    4  C   UNL     1      -8.573   5.890  69.452  1.00  0.00    -0.113 C  
HETATM    5  C   UNL     1      -9.290   5.317  70.469  1.00  0.00    -0.205 C  
HETATM    6  C   UNL     1     -10.503   9.250  66.359  1.00  0.00    -0.157 A  
HETATM    7  O   UNL     1      -8.813   5.060  68.315  1.00  0.00    -0.101 OA 
HETATM    8  C   UNL     1     -10.771   5.429  69.322  1.00  0.00    -0.198 C  
HETATM    9  C   UNL     1      -9.083   4.063  71.263  1.00  0.00    -0.177 C  
HETATM   10  C   UNL     1      -8.420   8.179  69.554  1.00  0.00    -0.127 C  
HETATM   11  H   UNL     1      -8.203   4.641  67.720  1.00  0.00     0.000 HD 
HETATM   12  C   UNL     1     -10.615   6.791  68.208  1.00  0.00    -0.276 C  
HETATM   13  C   UNL     1      -9.813   8.215  68.600  1.00  0.00    -0.191 C  
HETATM   14  C   UNL     1      -9.655   9.250  67.481  1.00  0.00    -0.184 A  
HETATM   15  C   UNL     1      -8.797  10.357  67.666  1.00  0.00    -0.124 A  
HETATM   16  C   UNL     1      -8.758  11.380  66.702  1.00  0.00    -0.178 A  
HETATM   17  C   UNL     1      -7.873  10.515  68.854  1.00  0.00    -0.124 C  
HETATM   18  C   UNL     1      -8.176   9.608  70.042  1.00  0.00    -0.197 C  
HETATM   19  C   UNL     1      -9.562  11.337  65.568  1.00  0.00    -0.228 A  
HETATM   20  C   UNL     1     -10.460  10.286  65.418  1.00  0.00    -0.125 A  
ENDROOT
BRANCH   4  21
HETATM   21  C   UNL     1      -7.087   5.495  69.706  1.00  0.00    -0.063 C  
HETATM   22  C   UNL     1      -5.928   5.206  69.855  1.00  0.00    -0.017 C  
ENDBRANCH   4  21
BRANCH  19  23
HETATM   23  O   UNL     1      -9.552  12.274  64.569  1.00  0.00    -0.045 OA 
BRANCH  23  24
HETATM   24  C   UNL     1     -10.359  13.428  64.798  1.00  0.00    -0.379 C  
HETATM   25  C   UNL     1     -11.528  13.546  63.819  1.00  0.00    -0.199 C  
HETATM   26  C   UNL     1     -12.480  14.483  64.533  1.00  0.00    -0.346 C  
HETATM   27  C   UNL     1     -12.394  14.063  65.995  1.00  0.00    -0.504 C  
HETATM   28  C   UNL     1     -11.067  13.316  66.152  1.00  0.00    -0.300 C  
ENDBRANCH  23  24
ENDBRANCH  19  23
TORSDOF 3
ENDMDL
MODEL       94
REMARK 921   NORMALIZED FREE ENERGY PREDICTED BY IDOCK:   -3.84 KCAL/MOL
REMARK 922        TOTAL FREE ENERGY PREDICTED BY IDOCK:   -4.89 KCAL/MOL
REMARK 923 INTER-LIGAND FREE ENERGY PREDICTED BY IDOCK:   -4.85 KCAL/MOL
REMARK 924 INTRA-LIGAND FREE ENERGY PREDICTED BY IDOCK:   -0.05 KCAL/MOL
REMARK 927      BINDING AFFINITY PREDICTED BY RF-SCORE:    0.00 PKD
ROOT
HETATM    1  C   UNL     1      -8.614  11.557  68.565  1.00  0.00    -0.140 C  
HETATM    2  C   UNL     1      -7.364  11.727  67.923  1.00  0.00    -0.098 C  
HETATM    3  C   UNL     1      -8.266  10.712  67.317  1.00  0.00    -0.116 C  
HETATM    4  C   UNL     1     -10.179  10.689  68.077  1.00  0.00    -0.175 C  
HETATM    5  C   UNL     1      -9.718  11.351  66.970  1.00  0.00    -0.210 C  
HETATM    6  C   UNL     1      -8.838   6.047  69.187  1.00  0.00    -0.119 A  
HETATM    7  O   UNL     1     -11.342   9.990  67.633  1.00  0.00    -0.491 OA 
HETATM    8  C   UNL     1      -9.734   9.681  66.115  1.00  0.00    -0.317 C  
HETATM    9  C   UNL     1     -10.230  12.549  66.229  1.00  0.00    -0.265 C  
HETATM   10  C   UNL     1      -8.544   9.983  69.526  1.00  0.00    -0.197 C  
HETATM   11  H   UNL     1     -12.225   9.979  67.983  1.00  0.00     0.000 HD 
HETATM   12  C   UNL     1      -9.472   8.370  67.269  1.00  0.00    -0.196 C  
HETATM   13  C   UNL     1      -8.536   8.536  68.655  1.00  0.00    -0.135 C  
HETATM   14  C   UNL     1      -8.511   7.345  69.619  1.00  0.00    -0.133 A  
HETATM   15  C   UNL     1      -7.944   7.495  70.905  1.00  0.00    -0.096 A  
HETATM   16  C   UNL     1      -7.791   6.372  71.736  1.00  0.00    -0.101 A  
HETATM   17  C   UNL     1      -7.495   8.823  71.475  1.00  0.00    -0.116 C  
HETATM   18  C   UNL     1      -7.333   9.948  70.460  1.00  0.00    -0.085 C  
HETATM   19  C   UNL     1      -8.173   5.102  71.315  1.00  0.00    -0.117 A  
HETATM   20  C   UNL     1      -8.664   4.939  70.025  1.00  0.00    -0.118 A  
ENDROOT
BRANCH   4  21
HETATM   21  C   UNL     1     -10.887  11.766  68.951  1.00  0.00    -0.265 C  
HETATM   22  C   UNL     1     -11.448  12.563  69.660  1.00  0.00    -0.255 C  
ENDBRANCH   4  21
BRANCH  19  23
HETATM   23  O   UNL     1      -8.090   3.969  72.081  1.00  0.00    -0.082 OA 
BRANCH  23  24
HETATM   24  C   UNL     1      -9.097   3.829  73.083  1.00  0.00    -0.102 C  
HETATM   25  C   UNL     1     -10.283   4.772  72.877  1.00  0.00    -0.221 C  
HETATM   26  C   UNL     1     -11.383   4.122  73.691  1.00  0.00    -0.270 C  
HETATM   27  C   UNL     1     -11.195   2.628  73.452  1.00  0.00    -0.267 C  
HETATM   28  C   UNL     1      -9.748   2.445  72.985  1.00  0.00    -0.159 C  
ENDBRANCH  23  24
ENDBRANCH  19  23
TORSDOF 3
ENDMDL
MODEL       95
REMARK 921   NORMALIZED FREE ENERGY PREDICTED BY IDOCK:   -3.80 KCAL/MOL
REMARK 922        TOTAL FREE ENERGY PREDICTED BY IDOCK:   -4.85 KCAL/MOL
REMARK 923 INTER-LIGAND FREE ENERGY PREDICTED BY IDOCK:   -5.32 KCAL/MOL
REMARK 924 INTRA-LIGAND FREE ENERGY PREDICTED BY IDOCK:    0.47 KCAL/MOL
REMARK 927      BINDING AFFINITY PREDICTED BY RF-SCORE:    0.00 PKD
ROOT
HETATM    1  C   UNL     1     -10.150  12.690  66.114  1.00  0.00    -0.268 C  
HETATM    2  C   UNL     1     -11.345  12.793  65.363  1.00  0.00    -0.339 C  
HETATM    3  C   UNL     1     -11.517  12.457  66.801  1.00  0.00    -0.423 C  
HETATM    4  C   UNL     1      -9.805  12.603  67.935  1.00  0.00    -0.218 C  
HETATM    5  C   UNL     1     -10.778  13.549  67.749  1.00  0.00    -0.262 C  
HETATM    6  C   UNL     1     -10.822   7.805  68.661  1.00  0.00     0.010 A  
HETATM    7  O   UNL     1      -9.623  12.530  69.350  1.00  0.00     0.062 OA 
HETATM    8  C   UNL     1     -11.818  12.536  68.938  1.00  0.00    -0.346 C  
HETATM    9  C   UNL     1     -10.768  15.042  67.887  1.00  0.00    -0.268 C  
HETATM   10  C   UNL     1      -9.817  10.897  66.398  1.00  0.00    -0.249 C  
HETATM   11  H   UNL     1      -8.834  12.597  69.873  1.00  0.00     0.000 HD 
HETATM   12  C   UNL     1     -11.387  10.824  68.865  1.00  0.00    -0.349 C  
HETATM   13  C   UNL     1     -10.831  10.073  67.468  1.00  0.00    -0.326 C  
HETATM   14  C   UNL     1     -10.379   8.615  67.601  1.00  0.00    -0.317 A  
HETATM   15  C   UNL     1      -9.686   7.997  66.535  1.00  0.00    -0.297 A  
HETATM   16  C   UNL     1      -9.396   6.622  66.596  1.00  0.00    -0.192 A  
HETATM   17  C   UNL     1      -9.201   8.735  65.307  1.00  0.00    -0.099 C  
HETATM   18  C   UNL     1      -9.819  10.111  65.086  1.00  0.00    -0.394 C  
HETATM   19  C   UNL     1      -9.792   5.846  67.680  1.00  0.00    -0.121 A  
HETATM   20  C   UNL     1     -10.536   6.435  68.695  1.00  0.00    -0.260 A  
ENDROOT
BRANCH   4  21
HETATM   21  C   UNL     1      -8.460  13.301  67.574  1.00  0.00    -0.202 C  
HETATM   22  C   UNL     1      -7.410  13.803  67.264  1.00  0.00    -0.020 C  
ENDBRANCH   4  21
BRANCH  19  23
HETATM   23  O   UNL     1      -9.513   4.513  67.827  1.00  0.00    -0.138 OA 
BRANCH  23  24
HETATM   24  C   UNL     1      -8.127   4.168  67.816  1.00  0.00    -0.094 C  
HETATM   25  C   UNL     1      -7.733   3.310  66.614  1.00  0.00    -0.077 C  
HETATM   26  C   UNL     1      -6.232   3.500  66.535  1.00  0.00    -0.028 C  
HETATM   27  C   UNL     1      -6.022   4.972  66.869  1.00  0.00    -0.026 C  
HETATM   28  C   UNL     1      -7.273   5.426  67.625  1.00  0.00    -0.072 C  
ENDBRANCH  23  24
ENDBRANCH  19  23
TORSDOF 3
ENDMDL
MODEL       96
REMARK 921   NORMALIZED FREE ENERGY PREDICTED BY IDOCK:   -3.76 KCAL/MOL
REMARK 922        TOTAL FREE ENERGY PREDICTED BY IDOCK:   -4.79 KCAL/MOL
REMARK 923 INTER-LIGAND FREE ENERGY PREDICTED BY IDOCK:   -4.45 KCAL/MOL
REMARK 924 INTRA-LIGAND FREE ENERGY PREDICTED BY IDOCK:   -0.34 KCAL/MOL
REMARK 927      BINDING AFFINITY PREDICTED BY RF-SCORE:    0.00 PKD
ROOT
HETATM    1  C   UNL     1      -9.883   9.176  70.528  1.00  0.00    -0.285 C  
HETATM    2  C   UNL     1     -10.911  10.059  70.120  1.00  0.00    -0.368 C  
HETATM    3  C   UNL     1     -11.255   8.613  70.087  1.00  0.00    -0.152 C  
HETATM    4  C   UNL     1      -9.863   7.371  70.958  1.00  0.00    -0.179 C  
HETATM    5  C   UNL     1     -10.985   7.914  71.528  1.00  0.00    -0.269 C  
HETATM    6  C   UNL     1      -9.812   5.507  66.364  1.00  0.00    -0.192 A  
HETATM    7  O   UNL     1      -9.929   5.978  71.264  1.00  0.00    -0.179 OA 
HETATM    8  C   UNL     1     -11.949   6.624  70.564  1.00  0.00    -0.377 C  
HETATM    9  C   UNL     1     -11.359   8.181  72.954  1.00  0.00    -0.301 C  
HETATM   10  C   UNL     1      -9.186   8.385  69.013  1.00  0.00    -0.147 C  
HETATM   11  H   UNL     1      -9.287   5.405  71.665  1.00  0.00     0.000 HD 
HETATM   12  C   UNL     1     -11.113   6.186  69.070  1.00  0.00    -0.437 C  
HETATM   13  C   UNL     1     -10.149   7.257  68.206  1.00  0.00    -0.193 C  
HETATM   14  C   UNL     1      -9.391   6.688  67.002  1.00  0.00    -0.160 A  
HETATM   15  C   UNL     1      -8.389   7.462  66.374  1.00  0.00    -0.127 A  
HETATM   16  C   UNL     1      -7.793   7.002  65.187  1.00  0.00    -0.124 A  
HETATM   17  C   UNL     1      -7.881   8.779  66.918  1.00  0.00    -0.101 C  
HETATM   18  C   UNL     1      -8.761   9.430  67.980  1.00  0.00    -0.124 C  
HETATM   19  C   UNL     1      -8.180   5.802  64.600  1.00  0.00    -0.126 A  
HETATM   20  C   UNL     1      -9.216   5.074  65.174  1.00  0.00    -0.100 A  
ENDROOT
BRANCH   4  21
HETATM   21  C   UNL     1      -8.683   7.749  71.902  1.00  0.00    -0.150 C  
HETATM   22  C   UNL     1      -7.743   8.005  72.611  1.00  0.00    -0.160 C  
ENDBRANCH   4  21
BRANCH  19  23
HETATM   23  O   UNL     1      -7.620   5.272  63.467  1.00  0.00    -0.058 OA 
BRANCH  23  24
HETATM   24  C   UNL     1      -7.076   3.960  63.605  1.00  0.00    -0.050 C  
HETATM   25  C   UNL     1      -7.747   2.935  62.690  1.00  0.00    -0.058 C  
HETATM   26  C   UNL     1      -6.727   1.816  62.626  1.00  0.00    -0.021 C  
HETATM   27  C   UNL     1      -5.384   2.533  62.567  1.00  0.00    -0.004 C  
HETATM   28  C   UNL     1      -5.622   3.939  63.123  1.00  0.00    -0.013 C  
ENDBRANCH  23  24
ENDBRANCH  19  23
TORSDOF 3
ENDMDL
MODEL       97
REMARK 921   NORMALIZED FREE ENERGY PREDICTED BY IDOCK:   -3.68 KCAL/MOL
REMARK 922        TOTAL FREE ENERGY PREDICTED BY IDOCK:   -4.71 KCAL/MOL
REMARK 923 INTER-LIGAND FREE ENERGY PREDICTED BY IDOCK:   -4.91 KCAL/MOL
REMARK 924 INTRA-LIGAND FREE ENERGY PREDICTED BY IDOCK:    0.20 KCAL/MOL
REMARK 927      BINDING AFFINITY PREDICTED BY RF-SCORE:    0.00 PKD
ROOT
HETATM    1  C   UNL     1      -8.070  17.983  67.177  1.00  0.00    -0.225 C  
HETATM    2  C   UNL     1      -7.295  18.069  65.996  1.00  0.00    -0.298 C  
HETATM    3  C   UNL     1      -8.509  17.216  65.908  1.00  0.00    -0.014 C  
HETATM    4  C   UNL     1      -9.773  17.337  67.528  1.00  0.00    -0.264 C  
HETATM    5  C   UNL     1      -9.837  18.038  66.353  1.00  0.00    -0.340 C  
HETATM    6  C   UNL     1      -8.715  12.496  67.717  1.00  0.00    -0.178 A  
HETATM    7  O   UNL     1     -11.087  16.810  67.717  1.00  0.00    -0.269 OA 
HETATM    8  C   UNL     1     -10.507  16.461  65.590  1.00  0.00    -0.364 C  
HETATM    9  C   UNL     1     -10.479  19.345  65.996  1.00  0.00    -0.596 C  
HETATM   10  C   UNL     1      -7.750  16.332  67.940  1.00  0.00    -0.151 C  
HETATM   11  H   UNL     1     -11.670  16.866  68.465  1.00  0.00     0.000 HD 
HETATM   12  C   UNL     1      -9.890  15.033  66.428  1.00  0.00    -0.290 C  
HETATM   13  C   UNL     1      -8.377  14.974  67.156  1.00  0.00    -0.244 C  
HETATM   14  C   UNL     1      -8.041  13.708  67.951  1.00  0.00    -0.164 A  
HETATM   15  C   UNL     1      -6.895  13.683  68.778  1.00  0.00    -0.107 A  
HETATM   16  C   UNL     1      -6.506  12.482  69.396  1.00  0.00    -0.102 A  
HETATM   17  C   UNL     1      -6.043  14.899  69.071  1.00  0.00    -0.096 C  
HETATM   18  C   UNL     1      -6.254  16.084  68.135  1.00  0.00    -0.127 C  
HETATM   19  C   UNL     1      -7.218  11.303  69.199  1.00  0.00    -0.115 A  
HETATM   20  C   UNL     1      -8.303  11.307  68.330  1.00  0.00    -0.152 A  
ENDROOT
BRANCH   4  21
HETATM   21  C   UNL     1      -9.796  18.405  68.662  1.00  0.00    -0.403 C  
HETATM   22  C   UNL     1      -9.847  19.257  69.512  1.00  0.00    -0.054 C  
ENDBRANCH   4  21
BRANCH  19  23
HETATM   23  O   UNL     1      -6.924  10.106  69.797  1.00  0.00    -0.084 OA 
BRANCH  23  24
HETATM   24  C   UNL     1      -6.259   9.151  68.969  1.00  0.00    -0.043 C  
HETATM   25  C   UNL     1      -7.220   8.165  68.303  1.00  0.00    -0.093 C  
HETATM   26  C   UNL     1      -6.406   7.625  67.145  1.00  0.00    -0.054 C  
HETATM   27  C   UNL     1      -5.642   8.837  66.625  1.00  0.00    -0.040 C  
HETATM   28  C   UNL     1      -5.613   9.852  67.770  1.00  0.00    -0.039 C  
ENDBRANCH  23  24
ENDBRANCH  19  23
TORSDOF 3
ENDMDL
MODEL       98
REMARK 921   NORMALIZED FREE ENERGY PREDICTED BY IDOCK:   -3.62 KCAL/MOL
REMARK 922        TOTAL FREE ENERGY PREDICTED BY IDOCK:   -4.63 KCAL/MOL
REMARK 923 INTER-LIGAND FREE ENERGY PREDICTED BY IDOCK:   -4.45 KCAL/MOL
REMARK 924 INTRA-LIGAND FREE ENERGY PREDICTED BY IDOCK:   -0.18 KCAL/MOL
REMARK 927      BINDING AFFINITY PREDICTED BY RF-SCORE:    0.00 PKD
ROOT
HETATM    1  C   UNL     1     -11.337  15.464  67.171  1.00  0.00    -0.203 C  
HETATM    2  C   UNL     1     -11.658  15.493  68.549  1.00  0.00    -0.379 C  
HETATM    3  C   UNL     1     -10.250  15.832  68.210  1.00  0.00    -0.225 C  
HETATM    4  C   UNL     1      -9.878  16.074  66.200  1.00  0.00    -0.325 C  
HETATM    5  C   UNL     1     -10.184  17.037  67.124  1.00  0.00    -0.306 C  
HETATM    6  C   UNL     1      -6.745  12.347  67.134  1.00  0.00    -0.084 A  
HETATM    7  O   UNL     1      -8.718  16.561  65.526  1.00  0.00    -0.272 OA 
HETATM    8  C   UNL     1      -8.413  16.856  67.718  1.00  0.00    -0.198 C  
HETATM    9  C   UNL     1     -10.764  18.413  66.988  1.00  0.00    -0.330 C  
HETATM   10  C   UNL     1     -10.366  13.927  66.851  1.00  0.00    -0.266 C  
HETATM   11  H   UNL     1      -8.546  16.673  64.598  1.00  0.00     0.000 HD 
HETATM   12  C   UNL     1      -7.808  15.221  67.431  1.00  0.00    -0.220 C  
HETATM   13  C   UNL     1      -8.791  13.857  67.454  1.00  0.00    -0.209 C  
HETATM   14  C   UNL     1      -8.137  12.528  67.061  1.00  0.00    -0.105 A  
HETATM   15  C   UNL     1      -8.945  11.391  66.830  1.00  0.00    -0.171 A  
HETATM   16  C   UNL     1      -8.343  10.140  66.609  1.00  0.00    -0.123 A  
HETATM   17  C   UNL     1     -10.457  11.430  66.781  1.00  0.00    -0.284 C  
HETATM   18  C   UNL     1     -11.096  12.685  67.365  1.00  0.00    -0.315 C  
HETATM   19  C   UNL     1      -6.960   9.989  66.629  1.00  0.00    -0.087 A  
HETATM   20  C   UNL     1      -6.165  11.090  66.926  1.00  0.00    -0.093 A  
ENDROOT
BRANCH   4  21
HETATM   21  C   UNL     1     -10.902  16.258  65.039  1.00  0.00    -0.337 C  
HETATM   22  C   UNL     1     -11.710  16.442  64.165  1.00  0.00     0.428 C  
ENDBRANCH   4  21
BRANCH  19  23
HETATM   23  O   UNL     1      -6.301   8.813  66.384  1.00  0.00    -0.059 OA 
BRANCH  23  24
HETATM   24  C   UNL     1      -6.909   7.641  66.928  1.00  0.00    -0.068 C  
HETATM   25  C   UNL     1      -6.049   6.388  66.762  1.00  0.00    -0.029 C  
HETATM   26  C   UNL     1      -6.613   5.446  67.805  1.00  0.00    -0.053 C  
HETATM   27  C   UNL     1      -6.915   6.344  68.999  1.00  0.00    -0.072 C  
HETATM   28  C   UNL     1      -7.028   7.768  68.450  1.00  0.00    -0.072 C  
ENDBRANCH  23  24
ENDBRANCH  19  23
TORSDOF 3
ENDMDL
MODEL       99
REMARK 921   NORMALIZED FREE ENERGY PREDICTED BY IDOCK:   -3.58 KCAL/MOL
REMARK 922        TOTAL FREE ENERGY PREDICTED BY IDOCK:   -4.58 KCAL/MOL
REMARK 923 INTER-LIGAND FREE ENERGY PREDICTED BY IDOCK:   -4.65 KCAL/MOL
REMARK 924 INTRA-LIGAND FREE ENERGY PREDICTED BY IDOCK:    0.07 KCAL/MOL
REMARK 927      BINDING AFFINITY PREDICTED BY RF-SCORE:    0.00 PKD
ROOT
HETATM    1  C   UNL     1     -11.176  11.103  67.972  1.00  0.00    -0.359 C  
HETATM    2  C   UNL     1     -11.210  11.094  69.387  1.00  0.00    -0.334 C  
HETATM    3  C   UNL     1      -9.874  11.329  68.777  1.00  0.00    -0.194 C  
HETATM    4  C   UNL     1      -9.893  11.633  66.742  1.00  0.00    -0.200 C  
HETATM    5  C   UNL     1      -9.917  12.574  67.736  1.00  0.00    -0.210 C  
HETATM    6  C   UNL     1      -6.991   7.617  66.908  1.00  0.00    -0.079 A  
HETATM    7  O   UNL     1      -8.852  12.053  65.859  1.00  0.00    -0.403 OA 
HETATM    8  C   UNL     1      -8.088  12.217  67.951  1.00  0.00    -0.153 C  
HETATM    9  C   UNL     1     -10.384  13.998  67.762  1.00  0.00    -0.236 C  
HETATM   10  C   UNL     1     -10.435   9.506  67.416  1.00  0.00    -0.336 C  
HETATM   11  H   UNL     1      -8.860  12.193  64.920  1.00  0.00     0.000 HD 
HETATM   12  C   UNL     1      -7.705  10.552  67.499  1.00  0.00    -0.098 C  
HETATM   13  C   UNL     1      -8.784   9.277  67.682  1.00  0.00    -0.116 C  
HETATM   14  C   UNL     1      -8.347   7.918  67.125  1.00  0.00    -0.117 A  
HETATM   15  C   UNL     1      -9.285   6.865  67.032  1.00  0.00    -0.160 A  
HETATM   16  C   UNL     1      -8.857   5.579  66.656  1.00  0.00    -0.117 A  
HETATM   17  C   UNL     1     -10.766   7.032  67.294  1.00  0.00    -0.412 C  
HETATM   18  C   UNL     1     -11.158   8.307  68.032  1.00  0.00     0.318 C  
HETATM   19  C   UNL     1      -7.518   5.312  66.388  1.00  0.00    -0.087 A  
HETATM   20  C   UNL     1      -6.583   6.326  66.549  1.00  0.00    -0.048 A  
ENDROOT
BRANCH   4  21
HETATM   21  C   UNL     1     -11.107  11.957  65.821  1.00  0.00    -0.367 C  
HETATM   22  C   UNL     1     -12.018  12.241  65.085  1.00  0.00    -0.395 C  
ENDBRANCH   4  21
BRANCH  19  23
HETATM   23  O   UNL     1      -7.033   4.097  65.981  1.00  0.00    -0.062 OA 
BRANCH  23  24
HETATM   24  C   UNL     1      -7.476   3.656  64.697  1.00  0.00    -0.072 C  
HETATM   25  C   UNL     1      -8.758   2.825  64.760  1.00  0.00    -0.111 C  
HETATM   26  C   UNL     1      -9.290   2.911  63.344  1.00  0.00    -0.095 C  
HETATM   27  C   UNL     1      -9.007   4.348  62.923  1.00  0.00    -0.123 C  
HETATM   28  C   UNL     1      -7.895   4.856  63.843  1.00  0.00    -0.085 C  
ENDBRANCH  23  24
ENDBRANCH  19  23
TORSDOF 3
ENDMDL
MODEL      100
REMARK 921   NORMALIZED FREE ENERGY PREDICTED BY IDOCK:   -3.50 KCAL/MOL
REMARK 922        TOTAL FREE ENERGY PREDICTED BY IDOCK:   -4.50 KCAL/MOL
REMARK 923 INTER-LIGAND FREE ENERGY PREDICTED BY IDOCK:   -4.28 KCAL/MOL
REMARK 924 INTRA-LIGAND FREE ENERGY PREDICTED BY IDOCK:   -0.21 KCAL/MOL
REMARK 927      BINDING AFFINITY PREDICTED BY RF-SCORE:    0.00 PKD
ROOT
HETATM    1  C   UNL     1      -7.703   5.963  67.119  1.00  0.00    -0.101 C  
HETATM    2  C   UNL     1      -8.602   5.127  66.414  1.00  0.00    -0.112 C  
HETATM    3  C   UNL     1      -7.926   6.174  65.602  1.00  0.00    -0.114 C  
HETATM    4  C   UNL     1      -6.414   7.180  66.571  1.00  0.00    -0.051 C  
HETATM    5  C   UNL     1      -6.312   6.083  65.756  1.00  0.00    -0.042 C  
HETATM    6  C   UNL     1      -9.388  11.016  65.560  1.00  0.00    -0.242 A  
HETATM    7  O   UNL     1      -5.449   8.106  66.069  1.00  0.00    -0.028 OA 
HETATM    8  C   UNL     1      -6.573   7.273  64.328  1.00  0.00    -0.044 C  
HETATM    9  C   UNL     1      -5.265   5.019  65.629  1.00  0.00    -0.012 C  
HETATM   10  C   UNL     1      -8.528   7.596  67.364  1.00  0.00    -0.122 C  
HETATM   11  H   UNL     1      -4.752   8.570  66.516  1.00  0.00     0.000 HD 
HETATM   12  C   UNL     1      -7.546   8.662  64.823  1.00  0.00    -0.102 C  
HETATM   13  C   UNL     1      -8.737   8.578  66.006  1.00  0.00    -0.188 C  
HETATM   14  C   UNL     1      -9.403   9.897  66.411  1.00  0.00    -0.213 A  
HETATM   15  C   UNL     1     -10.236   9.940  67.551  1.00  0.00    -0.265 A  
HETATM   16  C   UNL     1     -10.960  11.110  67.844  1.00  0.00    -0.307 A  
HETATM   17  C   UNL     1     -10.393   8.790  68.522  1.00  0.00    -0.231 C  
HETATM   18  C   UNL     1      -9.902   7.438  68.016  1.00  0.00    -0.172 C  
HETATM   19  C   UNL     1     -10.889  12.230  67.021  1.00  0.00    -0.250 A  
HETATM   20  C   UNL     1     -10.127  12.166  65.860  1.00  0.00    -0.270 A  
ENDROOT
BRANCH   4  21
HETATM   21  C   UNL     1      -5.685   6.795  67.893  1.00  0.00    -0.016 C  
HETATM   22  C   UNL     1      -5.134   6.450  68.907  1.00  0.00    -0.004 C  
ENDBRANCH   4  21
BRANCH  19  23
HETATM   23  O   UNL     1     -11.532  13.415  67.261  1.00  0.00    -0.307 OA 
BRANCH  23  24
HETATM   24  C   UNL     1     -10.711  14.474  67.752  1.00  0.00    -0.256 C  
HETATM   25  C   UNL     1     -11.504  15.734  68.100  1.00  0.00    -0.302 C  
HETATM   26  C   UNL     1     -10.569  16.480  69.029  1.00  0.00    -0.324 C  
HETATM   27  C   UNL     1      -9.935  15.388  69.882  1.00  0.00    -0.229 C  
HETATM   28  C   UNL     1     -10.095  14.083  69.098  1.00  0.00     0.021 C  
ENDBRANCH  23  24
ENDBRANCH  19  23
TORSDOF 3
ENDMDL
MODEL      101
REMARK 921   NORMALIZED FREE ENERGY PREDICTED BY IDOCK:   -3.49 KCAL/MOL
REMARK 922        TOTAL FREE ENERGY PREDICTED BY IDOCK:   -4.48 KCAL/MOL
REMARK 923 INTER-LIGAND FREE ENERGY PREDICTED BY IDOCK:   -4.43 KCAL/MOL
REMARK 924 INTRA-LIGAND FREE ENERGY PREDICTED BY IDOCK:   -0.05 KCAL/MOL
REMARK 927      BINDING AFFINITY PREDICTED BY RF-SCORE:    0.00 PKD
ROOT
HETATM    1  C   UNL     1      -9.304   7.314  71.778  1.00  0.00    -0.161 C  
HETATM    2  C   UNL     1      -8.486   8.452  71.977  1.00  0.00    -0.245 C  
HETATM    3  C   UNL     1      -9.487   8.562  70.882  1.00  0.00    -0.221 C  
HETATM    4  C   UNL     1     -10.855   7.026  70.802  1.00  0.00    -0.246 C  
HETATM    5  C   UNL     1     -10.984   8.240  71.423  1.00  0.00    -0.301 C  
HETATM    6  C   UNL     1      -8.825   6.505  66.308  1.00  0.00    -0.154 A  
HETATM    7  O   UNL     1     -12.040   6.882  70.018  1.00  0.00    -0.637 OA 
HETATM    8  C   UNL     1     -11.257   8.950  69.708  1.00  0.00    -0.018 C  
HETATM    9  C   UNL     1     -11.858   8.706  72.547  1.00  0.00    -0.342 C  
HETATM   10  C   UNL     1      -8.699   6.443  70.267  1.00  0.00    -0.143 C  
HETATM   11  H   UNL     1     -12.671   6.174  69.981  1.00  0.00     0.000 HD 
HETATM   12  C   UNL     1     -10.414   8.000  68.481  1.00  0.00    -0.200 C  
HETATM   13  C   UNL     1      -8.974   7.185  68.775  1.00  0.00    -0.128 C  
HETATM   14  C   UNL     1      -8.437   6.302  67.644  1.00  0.00    -0.116 A  
HETATM   15  C   UNL     1      -7.369   5.411  67.898  1.00  0.00    -0.073 A  
HETATM   16  C   UNL     1      -6.781   4.705  66.834  1.00  0.00    -0.051 A  
HETATM   17  C   UNL     1      -6.812   5.138  69.278  1.00  0.00    -0.054 C  
HETATM   18  C   UNL     1      -7.201   6.149  70.350  1.00  0.00    -0.086 C  
HETATM   19  C   UNL     1      -7.216   4.875  65.523  1.00  0.00    -0.072 A  
HETATM   20  C   UNL     1      -8.216   5.804  65.261  1.00  0.00    -0.139 A  
ENDROOT
BRANCH   4  21
HETATM   21  C   UNL     1     -11.177   5.956  71.888  1.00  0.00    -0.323 C  
HETATM   22  C   UNL     1     -11.474   5.142  72.725  1.00  0.00    -0.284 C  
ENDBRANCH   4  21
BRANCH  19  23
HETATM   23  O   UNL     1      -6.719   4.196  64.442  1.00  0.00    -0.042 OA 
BRANCH  23  24
HETATM   24  C   UNL     1      -7.308   2.919  64.193  1.00  0.00    -0.065 C  
HETATM   25  C   UNL     1      -8.797   2.869  64.536  1.00  0.00    -0.109 C  
HETATM   26  C   UNL     1      -9.289   1.671  63.750  1.00  0.00    -0.110 C  
HETATM   27  C   UNL     1      -8.534   1.753  62.429  1.00  0.00    -0.068 C  
HETATM   28  C   UNL     1      -7.300   2.620  62.691  1.00  0.00    -0.044 C  
ENDBRANCH  23  24
ENDBRANCH  19  23
TORSDOF 3
ENDMDL
MODEL      102
REMARK 921   NORMALIZED FREE ENERGY PREDICTED BY IDOCK:   -3.44 KCAL/MOL
REMARK 922        TOTAL FREE ENERGY PREDICTED BY IDOCK:   -4.42 KCAL/MOL
REMARK 923 INTER-LIGAND FREE ENERGY PREDICTED BY IDOCK:   -4.26 KCAL/MOL
REMARK 924 INTRA-LIGAND FREE ENERGY PREDICTED BY IDOCK:   -0.15 KCAL/MOL
REMARK 927      BINDING AFFINITY PREDICTED BY RF-SCORE:    0.00 PKD
ROOT
HETATM    1  C   UNL     1      -7.732  10.819  66.388  1.00  0.00    -0.145 C  
HETATM    2  C   UNL     1      -6.376  10.929  65.997  1.00  0.00    -0.102 C  
HETATM    3  C   UNL     1      -7.031   9.630  65.688  1.00  0.00    -0.096 C  
HETATM    4  C   UNL     1      -9.067   9.593  65.991  1.00  0.00    -0.171 C  
HETATM    5  C   UNL     1      -8.390   9.851  64.828  1.00  0.00    -0.163 C  
HETATM    6  C   UNL     1      -7.740   5.996  69.134  1.00  0.00    -0.095 A  
HETATM    7  O   UNL     1     -10.035   8.603  65.645  1.00  0.00    -0.412 OA 
HETATM    8  C   UNL     1      -8.085   8.001  64.740  1.00  0.00    -0.143 C  
HETATM    9  C   UNL     1      -8.781  10.580  63.578  1.00  0.00    -0.187 C  
HETATM   10  C   UNL     1      -7.799   9.759  67.898  1.00  0.00    -0.090 C  
HETATM   11  H   UNL     1     -10.975   8.585  65.785  1.00  0.00     0.000 HD 
HETATM   12  C   UNL     1      -8.031   7.285  66.354  1.00  0.00    -0.112 C  
HETATM   13  C   UNL     1      -7.481   8.111  67.710  1.00  0.00    -0.094 C  
HETATM   14  C   UNL     1      -7.617   7.394  69.058  1.00  0.00    -0.102 A  
HETATM   15  C   UNL     1      -7.396   8.109  70.257  1.00  0.00    -0.059 A  
HETATM   16  C   UNL     1      -7.381   7.425  71.485  1.00  0.00    -0.079 A  
HETATM   17  C   UNL     1      -7.191   9.607  70.317  1.00  0.00    -0.137 C  
HETATM   18  C   UNL     1      -6.857  10.274  68.987  1.00  0.00    -0.058 C  
HETATM   19  C   UNL     1      -7.562   6.047  71.548  1.00  0.00    -0.099 A  
HETATM   20  C   UNL     1      -7.706   5.331  70.366  1.00  0.00    -0.076 A  
ENDROOT
BRANCH   4  21
HETATM   21  C   UNL     1     -10.039  10.794  66.191  1.00  0.00    -0.297 C  
HETATM   22  C   UNL     1     -10.829  11.690  66.349  1.00  0.00    -0.333 C  
ENDBRANCH   4  21
BRANCH  19  23
HETATM   23  O   UNL     1      -7.598   5.318  72.707  1.00  0.00    -0.094 OA 
BRANCH  23  24
HETATM   24  C   UNL     1      -8.832   5.357  73.423  1.00  0.00    -0.113 C  
HETATM   25  C   UNL     1     -10.056   5.320  72.507  1.00  0.00    -0.224 C  
HETATM   26  C   UNL     1     -11.164   4.868  73.435  1.00  0.00    -0.415 C  
HETATM   27  C   UNL     1     -10.505   3.821  74.325  1.00  0.00    -0.270 C  
HETATM   28  C   UNL     1      -8.999   4.083  74.257  1.00  0.00    -0.098 C  
ENDBRANCH  23  24
ENDBRANCH  19  23
TORSDOF 3
ENDMDL
MODEL      103
REMARK 921   NORMALIZED FREE ENERGY PREDICTED BY IDOCK:   -3.41 KCAL/MOL
REMARK 922        TOTAL FREE ENERGY PREDICTED BY IDOCK:   -4.39 KCAL/MOL
REMARK 923 INTER-LIGAND FREE ENERGY PREDICTED BY IDOCK:   -4.50 KCAL/MOL
REMARK 924 INTRA-LIGAND FREE ENERGY PREDICTED BY IDOCK:    0.11 KCAL/MOL
REMARK 927      BINDING AFFINITY PREDICTED BY RF-SCORE:    0.00 PKD
ROOT
HETATM    1  C   UNL     1      -6.655   7.724  66.213  1.00  0.00    -0.050 C  
HETATM    2  C   UNL     1      -5.650   7.987  67.174  1.00  0.00    -0.037 C  
HETATM    3  C   UNL     1      -6.962   7.549  67.720  1.00  0.00    -0.080 C  
HETATM    4  C   UNL     1      -8.310   6.890  66.310  1.00  0.00    -0.126 C  
HETATM    5  C   UNL     1      -7.433   6.145  67.053  1.00  0.00    -0.087 C  
HETATM    6  C   UNL     1     -10.931  10.646  68.209  1.00  0.00    -0.314 A  
HETATM    7  O   UNL     1      -9.574   6.245  66.470  1.00  0.00    -0.157 OA 
HETATM    8  C   UNL     1      -8.622   6.398  68.483  1.00  0.00    -0.122 C  
HETATM    9  C   UNL     1      -6.837   4.787  66.841  1.00  0.00    -0.056 C  
HETATM   10  C   UNL     1      -7.843   9.137  66.240  1.00  0.00    -0.103 C  
HETATM   11  H   UNL     1     -10.196   5.941  65.819  1.00  0.00     0.000 HD 
HETATM   12  C   UNL     1      -9.499   7.923  68.323  1.00  0.00    -0.149 C  
HETATM   13  C   UNL     1      -8.849   9.288  67.588  1.00  0.00    -0.122 C  
HETATM   14  C   UNL     1      -9.782  10.490  67.414  1.00  0.00    -0.190 A  
HETATM   15  C   UNL     1      -9.382  11.577  66.603  1.00  0.00    -0.201 A  
HETATM   16  C   UNL     1     -10.171  12.739  66.554  1.00  0.00    -0.261 A  
HETATM   17  C   UNL     1      -8.139  11.568  65.740  1.00  0.00     0.306 C  
HETATM   18  C   UNL     1      -7.126  10.477  66.067  1.00  0.00    -0.137 C  
HETATM   19  C   UNL     1     -11.337  12.855  67.305  1.00  0.00    -0.310 A  
HETATM   20  C   UNL     1     -11.695  11.819  68.158  1.00  0.00    -0.377 A  
ENDROOT
BRANCH   4  21
HETATM   21  C   UNL     1      -8.047   6.499  64.825  1.00  0.00    -0.112 C  
HETATM   22  C   UNL     1      -7.884   6.168  63.679  1.00  0.00    -0.112 C  
ENDBRANCH   4  21
BRANCH  19  23
HETATM   23  O   UNL     1     -12.175  13.939  67.280  1.00  0.00    -0.394 OA 
BRANCH  23  24
HETATM   24  C   UNL     1     -11.594  15.177  67.689  1.00  0.00    -0.277 C  
HETATM   25  C   UNL     1     -10.680  15.036  68.907  1.00  0.00    -0.240 C  
HETATM   26  C   UNL     1      -9.824  16.284  68.838  1.00  0.00    -0.246 C  
HETATM   27  C   UNL     1      -9.545  16.467  67.351  1.00  0.00    -0.238 C  
HETATM   28  C   UNL     1     -10.636  15.691  66.609  1.00  0.00    -0.307 C  
ENDBRANCH  23  24
ENDBRANCH  19  23
TORSDOF 3
ENDMDL
MODEL      104
REMARK 921   NORMALIZED FREE ENERGY PREDICTED BY IDOCK:   -3.37 KCAL/MOL
REMARK 922        TOTAL FREE ENERGY PREDICTED BY IDOCK:   -4.34 KCAL/MOL
REMARK 923 INTER-LIGAND FREE ENERGY PREDICTED BY IDOCK:   -3.95 KCAL/MOL
REMARK 924 INTRA-LIGAND FREE ENERGY PREDICTED BY IDOCK:   -0.39 KCAL/MOL
REMARK 927      BINDING AFFINITY PREDICTED BY RF-SCORE:    0.00 PKD
ROOT
HETATM    1  C   UNL     1      -7.769   5.711  64.282  1.00  0.00    -0.098 C  
HETATM    2  C   UNL     1      -6.559   5.841  63.558  1.00  0.00    -0.033 C  
HETATM    3  C   UNL     1      -6.420   5.781  65.038  1.00  0.00    -0.042 C  
HETATM    4  C   UNL     1      -8.145   5.297  66.051  1.00  0.00    -0.110 C  
HETATM    5  C   UNL     1      -7.143   4.458  65.640  1.00  0.00    -0.067 C  
HETATM    6  C   UNL     1      -7.274   9.744  68.063  1.00  0.00    -0.080 A  
HETATM    7  O   UNL     1      -8.351   4.982  67.429  1.00  0.00    -0.106 OA 
HETATM    8  C   UNL     1      -6.151   5.137  67.081  1.00  0.00    -0.030 C  
HETATM    9  C   UNL     1      -7.113   2.984  65.372  1.00  0.00    -0.061 C  
HETATM   10  C   UNL     1      -8.157   7.353  65.030  1.00  0.00    -0.122 C  
HETATM   11  H   UNL     1      -9.147   4.759  67.896  1.00  0.00     0.000 HD 
HETATM   12  C   UNL     1      -6.628   6.795  67.461  1.00  0.00    -0.054 C  
HETATM   13  C   UNL     1      -7.183   7.881  66.305  1.00  0.00    -0.074 C  
HETATM   14  C   UNL     1      -7.677   9.239  66.814  1.00  0.00    -0.094 A  
HETATM   15  C   UNL     1      -8.370  10.106  65.939  1.00  0.00    -0.137 A  
HETATM   16  C   UNL     1      -8.700  11.407  66.360  1.00  0.00    -0.185 A  
HETATM   17  C   UNL     1      -8.815   9.715  64.546  1.00  0.00    -0.257 C  
HETATM   18  C   UNL     1      -8.155   8.464  63.978  1.00  0.00    -0.142 C  
HETATM   19  C   UNL     1      -8.343  11.871  67.622  1.00  0.00    -0.152 A  
HETATM   20  C   UNL     1      -7.599  11.047  68.458  1.00  0.00    -0.114 A  
ENDROOT
BRANCH   4  21
HETATM   21  C   UNL     1      -9.465   4.692  65.485  1.00  0.00    -0.178 C  
HETATM   22  C   UNL     1     -10.468   4.178  65.061  1.00  0.00    -0.187 C  
ENDBRANCH   4  21
BRANCH  19  23
HETATM   23  O   UNL     1      -8.661  13.109  68.115  1.00  0.00    -0.182 OA 
BRANCH  23  24
HETATM   24  C   UNL     1     -10.027  13.498  67.970  1.00  0.00    -0.248 C  
HETATM   25  C   UNL     1     -10.942  12.878  69.027  1.00  0.00    -0.244 C  
HETATM   26  C   UNL     1     -12.156  13.783  69.000  1.00  0.00    -0.359 C  
HETATM   27  C   UNL     1     -11.578  15.182  68.823  1.00  0.00    -0.369 C  
HETATM   28  C   UNL     1     -10.178  14.999  68.233  1.00  0.00    -0.222 C  
ENDBRANCH  23  24
ENDBRANCH  19  23
TORSDOF 3
ENDMDL
MODEL      105
REMARK 921   NORMALIZED FREE ENERGY PREDICTED BY IDOCK:   -3.34 KCAL/MOL
REMARK 922        TOTAL FREE ENERGY PREDICTED BY IDOCK:   -4.30 KCAL/MOL
REMARK 923 INTER-LIGAND FREE ENERGY PREDICTED BY IDOCK:   -4.32 KCAL/MOL
REMARK 924 INTRA-LIGAND FREE ENERGY PREDICTED BY IDOCK:    0.01 KCAL/MOL
REMARK 927      BINDING AFFINITY PREDICTED BY RF-SCORE:    0.00 PKD
ROOT
HETATM    1  C   UNL     1     -10.902  10.689  67.185  1.00  0.00    -0.328 C  
HETATM    2  C   UNL     1     -11.211  10.819  68.560  1.00  0.00    -0.340 C  
HETATM    3  C   UNL     1      -9.765  10.874  68.218  1.00  0.00    -0.171 C  
HETATM    4  C   UNL     1      -9.354  10.982  66.204  1.00  0.00    -0.191 C  
HETATM    5  C   UNL     1      -9.471  12.012  67.099  1.00  0.00    -0.187 C  
HETATM    6  C   UNL     1      -6.987   6.756  67.262  1.00  0.00    -0.074 A  
HETATM    7  O   UNL     1      -8.122  11.220  65.523  1.00  0.00    -0.367 OA 
HETATM    8  C   UNL     1      -7.767  11.515  67.707  1.00  0.00    -0.124 C  
HETATM    9  C   UNL     1      -9.779  13.468  66.921  1.00  0.00    -0.261 C  
HETATM   10  C   UNL     1     -10.242   8.987  66.914  1.00  0.00    -0.339 C  
HETATM   11  H   UNL     1      -7.932  11.269  64.594  1.00  0.00     0.000 HD 
HETATM   12  C   UNL     1      -7.484   9.787  67.471  1.00  0.00    -0.091 C  
HETATM   13  C   UNL     1      -8.708   8.637  67.528  1.00  0.00    -0.135 C  
HETATM   14  C   UNL     1      -8.319   7.197  67.176  1.00  0.00    -0.118 A  
HETATM   15  C   UNL     1      -9.328   6.228  66.974  1.00  0.00    -0.135 A  
HETATM   16  C   UNL     1      -8.975   4.879  66.792  1.00  0.00    -0.110 A  
HETATM   17  C   UNL     1     -10.805   6.552  66.916  1.00  0.00    -0.427 C  
HETATM   18  C   UNL     1     -11.194   7.922  67.460  1.00  0.00     0.487 C  
HETATM   19  C   UNL     1      -7.646   4.468  66.823  1.00  0.00    -0.086 A  
HETATM   20  C   UNL     1      -6.657   5.406  67.094  1.00  0.00    -0.053 A  
ENDROOT
BRANCH   4  21
HETATM   21  C   UNL     1     -10.324  11.324  65.034  1.00  0.00    -0.359 C  
HETATM   22  C   UNL     1     -11.101  11.547  64.141  1.00  0.00    -0.417 C  
ENDBRANCH   4  21
BRANCH  19  23
HETATM   23  O   UNL     1      -7.224   3.182  66.616  1.00  0.00    -0.060 OA 
BRANCH  23  24
HETATM   24  C   UNL     1      -7.357   2.302  67.733  1.00  0.00    -0.055 C  
HETATM   25  C   UNL     1      -7.245   3.021  69.078  1.00  0.00    -0.048 C  
HETATM   26  C   UNL     1      -7.900   2.050  70.039  1.00  0.00    -0.049 C  
HETATM   27  C   UNL     1      -9.084   1.490  69.260  1.00  0.00    -0.155 C  
HETATM   28  C   UNL     1      -8.774   1.721  67.780  1.00  0.00    -0.123 C  
ENDBRANCH  23  24
ENDBRANCH  19  23
TORSDOF 3
ENDMDL
MODEL      106
REMARK 921   NORMALIZED FREE ENERGY PREDICTED BY IDOCK:   -3.34 KCAL/MOL
REMARK 922        TOTAL FREE ENERGY PREDICTED BY IDOCK:   -4.30 KCAL/MOL
REMARK 923 INTER-LIGAND FREE ENERGY PREDICTED BY IDOCK:   -4.31 KCAL/MOL
REMARK 924 INTRA-LIGAND FREE ENERGY PREDICTED BY IDOCK:    0.01 KCAL/MOL
REMARK 927      BINDING AFFINITY PREDICTED BY RF-SCORE:    0.00 PKD
ROOT
HETATM    1  C   UNL     1      -9.866  14.299  66.975  1.00  0.00    -0.254 C  
HETATM    2  C   UNL     1      -9.004  15.138  66.230  1.00  0.00    -0.274 C  
HETATM    3  C   UNL     1      -9.871  14.233  65.430  1.00  0.00    -0.255 C  
HETATM    4  C   UNL     1     -11.318  13.242  66.507  1.00  0.00    -0.322 C  
HETATM    5  C   UNL     1     -11.435  14.422  65.823  1.00  0.00    -0.335 C  
HETATM    6  C   UNL     1      -8.850   9.329  64.722  1.00  0.00    -0.225 A  
HETATM    7  O   UNL     1     -12.417  12.445  66.066  1.00  0.00    -0.551 OA 
HETATM    8  C   UNL     1     -11.475  13.374  64.267  1.00  0.00    -0.429 C  
HETATM    9  C   UNL     1     -12.395  15.566  65.949  1.00  0.00     1.069 C  
HETATM   10  C   UNL     1      -9.159  12.594  66.944  1.00  0.00    -0.218 C  
HETATM   11  H   UNL     1     -13.085  11.988  66.563  1.00  0.00     0.000 HD 
HETATM   12  C   UNL     1     -10.566  11.874  64.483  1.00  0.00    -0.358 C  
HETATM   13  C   UNL     1      -9.222  11.748  65.484  1.00  0.00    -0.067 C  
HETATM   14  C   UNL     1      -8.622  10.349  65.663  1.00  0.00    -0.175 A  
HETATM   15  C   UNL     1      -7.648  10.127  66.662  1.00  0.00    -0.107 A  
HETATM   16  C   UNL     1      -6.994   8.884  66.736  1.00  0.00    -0.077 A  
HETATM   17  C   UNL     1      -7.262  11.154  67.703  1.00  0.00    -0.094 C  
HETATM   18  C   UNL     1      -7.700  12.584  67.403  1.00  0.00    -0.167 C  
HETATM   19  C   UNL     1      -7.273   7.865  65.831  1.00  0.00    -0.072 A  
HETATM   20  C   UNL     1      -8.177   8.104  64.803  1.00  0.00    -0.137 A  
ENDROOT
BRANCH   4  21
HETATM   21  C   UNL     1     -11.823  13.536  67.951  1.00  0.00    -0.397 C  
HETATM   22  C   UNL     1     -12.213  13.715  69.077  1.00  0.00    -0.245 C  
ENDBRANCH   4  21
BRANCH  19  23
HETATM   23  O   UNL     1      -6.706   6.618  65.862  1.00  0.00    -0.046 OA 
BRANCH  23  24
HETATM   24  C   UNL     1      -7.241   5.723  66.838  1.00  0.00    -0.075 C  
HETATM   25  C   UNL     1      -8.168   6.413  67.839  1.00  0.00    -0.115 C  
HETATM   26  C   UNL     1      -8.973   5.262  68.408  1.00  0.00    -0.116 C  
HETATM   27  C   UNL     1      -9.233   4.357  67.210  1.00  0.00    -0.160 C  
HETATM   28  C   UNL     1      -8.168   4.705  66.167  1.00  0.00    -0.107 C  
ENDBRANCH  23  24
ENDBRANCH  19  23
TORSDOF 3
ENDMDL
MODEL      107
REMARK 921   NORMALIZED FREE ENERGY PREDICTED BY IDOCK:   -3.28 KCAL/MOL
REMARK 922        TOTAL FREE ENERGY PREDICTED BY IDOCK:   -4.24 KCAL/MOL
REMARK 923 INTER-LIGAND FREE ENERGY PREDICTED BY IDOCK:   -3.96 KCAL/MOL
REMARK 924 INTRA-LIGAND FREE ENERGY PREDICTED BY IDOCK:   -0.28 KCAL/MOL
REMARK 927      BINDING AFFINITY PREDICTED BY RF-SCORE:    0.00 PKD
ROOT
HETATM    1  C   UNL     1      -9.099  14.708  67.893  1.00  0.00    -0.189 C  
HETATM    2  C   UNL     1      -8.139  15.345  67.071  1.00  0.00    -0.265 C  
HETATM    3  C   UNL     1      -9.138  14.504  66.360  1.00  0.00    -0.217 C  
HETATM    4  C   UNL     1     -10.693  13.831  67.529  1.00  0.00    -0.256 C  
HETATM    5  C   UNL     1     -10.653  14.949  66.740  1.00  0.00    -0.305 C  
HETATM    6  C   UNL     1      -8.832   9.461  66.103  1.00  0.00    -0.178 A  
HETATM    7  O   UNL     1     -11.901  13.162  67.166  1.00  0.00    -0.357 OA 
HETATM    8  C   UNL     1     -10.867  13.780  65.287  1.00  0.00    -0.326 C  
HETATM    9  C   UNL     1     -11.440  16.224  66.763  1.00  0.00     0.537 C  
HETATM   10  C   UNL     1      -8.640  12.925  68.017  1.00  0.00    -0.186 C  
HETATM   11  H   UNL     1     -12.618  12.851  67.706  1.00  0.00     0.000 HD 
HETATM   12  C   UNL     1     -10.175  12.192  65.637  1.00  0.00    -0.285 C  
HETATM   13  C   UNL     1      -8.846  11.968  66.641  1.00  0.00    -0.191 C  
HETATM   14  C   UNL     1      -8.448  10.520  66.946  1.00  0.00    -0.125 A  
HETATM   15  C   UNL     1      -7.498  10.252  67.958  1.00  0.00    -0.087 A  
HETATM   16  C   UNL     1      -7.026   8.941  68.143  1.00  0.00    -0.077 A  
HETATM   17  C   UNL     1      -6.954  11.305  68.899  1.00  0.00    -0.099 C  
HETATM   18  C   UNL     1      -7.190  12.748  68.470  1.00  0.00    -0.114 C  
HETATM   19  C   UNL     1      -7.460   7.894  67.337  1.00  0.00    -0.093 A  
HETATM   20  C   UNL     1      -8.339   8.166  66.294  1.00  0.00    -0.119 A  
ENDROOT
BRANCH   4  21
HETATM   21  C   UNL     1     -11.128  14.324  68.942  1.00  0.00    -0.283 C  
HETATM   22  C   UNL     1     -11.451  14.751  70.021  1.00  0.00    -0.321 C  
ENDBRANCH   4  21
BRANCH  19  23
HETATM   23  O   UNL     1      -7.075   6.587  67.481  1.00  0.00    -0.075 OA 
BRANCH  23  24
HETATM   24  C   UNL     1      -7.317   5.745  66.354  1.00  0.00    -0.078 C  
HETATM   25  C   UNL     1      -6.092   4.926  65.945  1.00  0.00    -0.027 C  
HETATM   26  C   UNL     1      -6.691   3.801  65.127  1.00  0.00    -0.048 C  
HETATM   27  C   UNL     1      -7.976   3.443  65.865  1.00  0.00    -0.092 C  
HETATM   28  C   UNL     1      -8.339   4.662  66.715  1.00  0.00    -0.106 C  
ENDBRANCH  23  24
ENDBRANCH  19  23
TORSDOF 3
ENDMDL
MODEL      108
REMARK 921   NORMALIZED FREE ENERGY PREDICTED BY IDOCK:   -3.27 KCAL/MOL
REMARK 922        TOTAL FREE ENERGY PREDICTED BY IDOCK:   -4.22 KCAL/MOL
REMARK 923 INTER-LIGAND FREE ENERGY PREDICTED BY IDOCK:   -4.66 KCAL/MOL
REMARK 924 INTRA-LIGAND FREE ENERGY PREDICTED BY IDOCK:    0.44 KCAL/MOL
REMARK 927      BINDING AFFINITY PREDICTED BY RF-SCORE:    0.00 PKD
ROOT
HETATM    1  C   UNL     1     -10.270   8.025  72.075  1.00  0.00    -0.288 C  
HETATM    2  C   UNL     1     -11.676   8.183  72.040  1.00  0.00    -0.389 C  
HETATM    3  C   UNL     1     -11.179   6.796  71.838  1.00  0.00    -0.294 C  
HETATM    4  C   UNL     1      -9.167   6.537  72.186  1.00  0.00    -0.139 C  
HETATM    5  C   UNL     1     -10.206   6.340  73.055  1.00  0.00    -0.213 C  
HETATM    6  C   UNL     1      -9.331   5.129  67.434  1.00  0.00    -0.128 A  
HETATM    7  O   UNL     1      -8.388   5.343  72.262  1.00  0.00    -0.120 OA 
HETATM    8  C   UNL     1     -10.535   4.753  72.110  1.00  0.00    -0.243 C  
HETATM    9  C   UNL     1     -10.274   6.317  74.553  1.00  0.00    -0.320 C  
HETATM   10  C   UNL     1      -9.685   7.800  70.339  1.00  0.00    -0.179 C  
HETATM   11  H   UNL     1      -7.459   5.224  72.422  1.00  0.00     0.000 HD 
HETATM   12  C   UNL     1     -10.025   4.896  70.425  1.00  0.00    -0.316 C  
HETATM   13  C   UNL     1     -10.059   6.343  69.571  1.00  0.00    -0.203 C  
HETATM   14  C   UNL     1      -9.464   6.327  68.159  1.00  0.00    -0.113 A  
HETATM   15  C   UNL     1      -9.245   7.545  67.477  1.00  0.00    -0.140 A  
HETATM   16  C   UNL     1      -8.833   7.528  66.133  1.00  0.00    -0.185 A  
HETATM   17  C   UNL     1      -9.406   8.907  68.116  1.00  0.00    -0.151 C  
HETATM   18  C   UNL     1     -10.181   8.924  69.429  1.00  0.00    -0.210 C  
HETATM   19  C   UNL     1      -8.651   6.332  65.446  1.00  0.00    -0.092 A  
HETATM   20  C   UNL     1      -8.935   5.134  66.092  1.00  0.00    -0.135 A  
ENDROOT
BRANCH   4  21
HETATM   21  C   UNL     1      -8.178   7.495  72.916  1.00  0.00    -0.149 C  
HETATM   22  C   UNL     1      -7.383   8.196  73.487  1.00  0.00    -0.190 C  
ENDBRANCH   4  21
BRANCH  19  23
HETATM   23  O   UNL     1      -8.215   6.235  64.151  1.00  0.00    -0.102 OA 
BRANCH  23  24
HETATM   24  C   UNL     1      -7.178   7.143  63.780  1.00  0.00    -0.074 C  
HETATM   25  C   UNL     1      -7.560   8.608  63.994  1.00  0.00    -0.126 C  
HETATM   26  C   UNL     1      -6.218   9.309  64.032  1.00  0.00    -0.089 C  
HETATM   27  C   UNL     1      -5.316   8.352  64.802  1.00  0.00    -0.036 C  
HETATM   28  C   UNL     1      -5.971   6.972  64.708  1.00  0.00    -0.037 C  
ENDBRANCH  23  24
ENDBRANCH  19  23
TORSDOF 3
ENDMDL
MODEL      109
REMARK 921   NORMALIZED FREE ENERGY PREDICTED BY IDOCK:   -3.17 KCAL/MOL
REMARK 922        TOTAL FREE ENERGY PREDICTED BY IDOCK:   -4.10 KCAL/MOL
REMARK 923 INTER-LIGAND FREE ENERGY PREDICTED BY IDOCK:   -4.24 KCAL/MOL
REMARK 924 INTRA-LIGAND FREE ENERGY PREDICTED BY IDOCK:    0.14 KCAL/MOL
REMARK 927      BINDING AFFINITY PREDICTED BY RF-SCORE:    0.00 PKD
ROOT
HETATM    1  C   UNL     1      -7.437  11.126  66.767  1.00  0.00    -0.146 C  
HETATM    2  C   UNL     1      -7.472  10.670  65.428  1.00  0.00    -0.028 C  
HETATM    3  C   UNL     1      -8.769  10.632  66.154  1.00  0.00    -0.178 C  
HETATM    4  C   UNL     1      -8.764  11.568  67.987  1.00  0.00    -0.151 C  
HETATM    5  C   UNL     1      -9.135  12.087  66.775  1.00  0.00    -0.197 C  
HETATM    6  C   UNL     1      -9.995   6.992  69.446  1.00  0.00    -0.165 A  
HETATM    7  O   UNL     1      -9.842  11.879  68.870  1.00  0.00    -0.392 OA 
HETATM    8  C   UNL     1     -10.714  11.092  66.971  1.00  0.00    -0.316 C  
HETATM    9  C   UNL     1      -9.225  13.495  66.269  1.00  0.00    -0.070 C  
HETATM   10  C   UNL     1      -7.513   9.646  67.868  1.00  0.00    -0.083 C  
HETATM   11  H   UNL     1      -9.840  12.311  69.716  1.00  0.00     0.000 HD 
HETATM   12  C   UNL     1     -10.437   9.637  67.934  1.00  0.00    -0.296 C  
HETATM   13  C   UNL     1      -8.976   8.807  67.950  1.00  0.00    -0.142 C  
HETATM   14  C   UNL     1      -8.856   7.639  68.934  1.00  0.00    -0.135 A  
HETATM   15  C   UNL     1      -7.593   7.049  69.171  1.00  0.00    -0.100 A  
HETATM   16  C   UNL     1      -7.501   5.890  69.962  1.00  0.00    -0.079 A  
HETATM   17  C   UNL     1      -6.292   7.605  68.635  1.00  0.00    -0.036 C  
HETATM   18  C   UNL     1      -6.432   8.625  67.511  1.00  0.00    -0.058 C  
HETATM   19  C   UNL     1      -8.634   5.295  70.508  1.00  0.00    -0.120 A  
HETATM   20  C   UNL     1      -9.883   5.830  70.218  1.00  0.00    -0.244 A  
ENDROOT
BRANCH   4  21
HETATM   21  C   UNL     1      -7.710  12.558  68.567  1.00  0.00    -0.113 C  
HETATM   22  C   UNL     1      -6.858  13.294  68.997  1.00  0.00    -0.096 C  
ENDBRANCH   4  21
BRANCH  19  23
HETATM   23  O   UNL     1      -8.619   4.190  71.318  1.00  0.00    -0.092 OA 
BRANCH  23  24
HETATM   24  C   UNL     1      -8.884   4.435  72.699  1.00  0.00    -0.109 C  
HETATM   25  C   UNL     1      -8.910   5.923  73.049  1.00  0.00    -0.122 C  
HETATM   26  C   UNL     1      -9.676   5.954  74.355  1.00  0.00    -0.220 C  
HETATM   27  C   UNL     1     -10.775   4.915  74.171  1.00  0.00    -0.318 C  
HETATM   28  C   UNL     1     -10.304   3.983  73.052  1.00  0.00    -0.240 C  
ENDBRANCH  23  24
ENDBRANCH  19  23
TORSDOF 3
ENDMDL
MODEL      110
REMARK 921   NORMALIZED FREE ENERGY PREDICTED BY IDOCK:   -3.10 KCAL/MOL
REMARK 922        TOTAL FREE ENERGY PREDICTED BY IDOCK:   -4.02 KCAL/MOL
REMARK 923 INTER-LIGAND FREE ENERGY PREDICTED BY IDOCK:   -4.04 KCAL/MOL
REMARK 924 INTRA-LIGAND FREE ENERGY PREDICTED BY IDOCK:    0.01 KCAL/MOL
REMARK 927      BINDING AFFINITY PREDICTED BY RF-SCORE:    0.00 PKD
ROOT
HETATM    1  C   UNL     1      -9.729   5.291  72.186  1.00  0.00    -0.202 C  
HETATM    2  C   UNL     1      -8.734   4.818  73.075  1.00  0.00    -0.113 C  
HETATM    3  C   UNL     1      -8.276   5.810  72.066  1.00  0.00    -0.112 C  
HETATM    4  C   UNL     1      -9.782   6.704  70.984  1.00  0.00    -0.175 C  
HETATM    5  C   UNL     1      -9.176   7.161  72.124  1.00  0.00    -0.144 C  
HETATM    6  C   UNL     1      -7.270   4.610  67.257  1.00  0.00    -0.073 A  
HETATM    7  O   UNL     1      -9.740   7.804  70.074  1.00  0.00    -0.175 OA 
HETATM    8  C   UNL     1      -7.727   7.620  71.023  1.00  0.00    -0.088 C  
HETATM    9  C   UNL     1      -9.619   8.130  73.178  1.00  0.00    -0.307 C  
HETATM   10  C   UNL     1      -9.462   4.471  70.554  1.00  0.00    -0.246 C  
HETATM   11  H   UNL     1     -10.434   8.216  69.575  1.00  0.00     0.000 HD 
HETATM   12  C   UNL     1      -7.625   6.548  69.622  1.00  0.00    -0.098 C  
HETATM   13  C   UNL     1      -8.111   4.939  69.656  1.00  0.00    -0.073 C  
HETATM   14  C   UNL     1      -8.077   4.180  68.325  1.00  0.00    -0.081 A  
HETATM   15  C   UNL     1      -8.687   2.909  68.228  1.00  0.00    -0.139 A  
HETATM   16  C   UNL     1      -8.536   2.149  67.054  1.00  0.00    -0.118 A  
HETATM   17  C   UNL     1      -9.535   2.297  69.322  1.00  0.00    -0.126 C  
HETATM   18  C   UNL     1      -9.399   2.949  70.694  1.00  0.00    -0.220 C  
HETATM   19  C   UNL     1      -7.780   2.615  65.983  1.00  0.00    -0.080 A  
HETATM   20  C   UNL     1      -7.120   3.832  66.102  1.00  0.00    -0.063 A  
ENDROOT
BRANCH   4  21
HETATM   21  C   UNL     1     -11.311   6.719  71.280  1.00  0.00    -0.333 C  
HETATM   22  C   UNL     1     -12.502   6.723  71.460  1.00  0.00    -0.390 C  
ENDBRANCH   4  21
BRANCH  19  23
HETATM   23  O   UNL     1      -7.620   1.951  64.796  1.00  0.00    -0.061 OA 
BRANCH  23  24
HETATM   24  C   UNL     1      -8.513   2.334  63.750  1.00  0.00    -0.085 C  
HETATM   25  C   UNL     1      -9.901   2.720  64.260  1.00  0.00    -0.118 C  
HETATM   26  C   UNL     1     -10.470   3.538  63.118  1.00  0.00    -0.223 C  
HETATM   27  C   UNL     1      -9.286   4.357  62.617  1.00  0.00    -0.121 C  
HETATM   28  C   UNL     1      -8.026   3.628  63.089  1.00  0.00    -0.072 C  
ENDBRANCH  23  24
ENDBRANCH  19  23
TORSDOF 3
ENDMDL
MODEL      111
REMARK 921   NORMALIZED FREE ENERGY PREDICTED BY IDOCK:   -3.06 KCAL/MOL
REMARK 922        TOTAL FREE ENERGY PREDICTED BY IDOCK:   -3.98 KCAL/MOL
REMARK 923 INTER-LIGAND FREE ENERGY PREDICTED BY IDOCK:   -3.79 KCAL/MOL
REMARK 924 INTRA-LIGAND FREE ENERGY PREDICTED BY IDOCK:   -0.19 KCAL/MOL
REMARK 927      BINDING AFFINITY PREDICTED BY RF-SCORE:    0.00 PKD
ROOT
HETATM    1  C   UNL     1      -8.598  12.380  68.266  1.00  0.00    -0.172 C  
HETATM    2  C   UNL     1      -7.375  12.980  67.879  1.00  0.00    -0.128 C  
HETATM    3  C   UNL     1      -7.917  11.961  66.941  1.00  0.00    -0.132 C  
HETATM    4  C   UNL     1      -9.827  11.320  67.366  1.00  0.00    -0.181 C  
HETATM    5  C   UNL     1      -9.442  12.316  66.508  1.00  0.00    -0.238 C  
HETATM    6  C   UNL     1      -7.451   6.980  67.688  1.00  0.00    -0.098 A  
HETATM    7  O   UNL     1     -10.718  10.502  66.608  1.00  0.00    -0.224 OA 
HETATM    8  C   UNL     1      -8.938  10.942  65.333  1.00  0.00    -0.209 C  
HETATM    9  C   UNL     1     -10.168  13.507  65.960  1.00  0.00    -0.308 C  
HETATM   10  C   UNL     1      -8.222  10.679  68.878  1.00  0.00    -0.145 C  
HETATM   11  H   UNL     1     -11.599  10.206  66.804  1.00  0.00     0.000 HD 
HETATM   12  C   UNL     1      -8.465   9.488  66.217  1.00  0.00    -0.122 C  
HETATM   13  C   UNL     1      -7.751   9.525  67.738  1.00  0.00    -0.088 C  
HETATM   14  C   UNL     1      -7.518   8.176  68.425  1.00  0.00    -0.100 A  
HETATM   15  C   UNL     1      -7.143   8.138  69.788  1.00  0.00    -0.060 A  
HETATM   16  C   UNL     1      -6.791   6.913  70.382  1.00  0.00    -0.058 A  
HETATM   17  C   UNL     1      -7.114   9.356  70.685  1.00  0.00    -0.127 C  
HETATM   18  C   UNL     1      -7.145  10.699  69.964  1.00  0.00    -0.095 C  
HETATM   19  C   UNL     1      -6.786   5.729  69.651  1.00  0.00    -0.055 A  
HETATM   20  C   UNL     1      -7.084   5.773  68.294  1.00  0.00    -0.074 A  
ENDROOT
BRANCH   4  21
HETATM   21  C   UNL     1     -10.875  11.964  68.321  1.00  0.00    -0.261 C  
HETATM   22  C   UNL     1     -11.653  12.499  69.070  1.00  0.00    -0.365 C  
ENDBRANCH   4  21
BRANCH  19  23
HETATM   23  O   UNL     1      -6.492   4.496  70.169  1.00  0.00    -0.029 OA 
BRANCH  23  24
HETATM   24  C   UNL     1      -7.598   3.600  70.292  1.00  0.00    -0.044 C  
HETATM   25  C   UNL     1      -7.292   2.391  71.177  1.00  0.00    -0.033 C  
HETATM   26  C   UNL     1      -8.670   1.895  71.565  1.00  0.00    -0.100 C  
HETATM   27  C   UNL     1      -9.477   3.167  71.793  1.00  0.00    -0.216 C  
HETATM   28  C   UNL     1      -8.747   4.282  71.041  1.00  0.00    -0.127 C  
ENDBRANCH  23  24
ENDBRANCH  19  23
TORSDOF 3
ENDMDL
MODEL      112
REMARK 921   NORMALIZED FREE ENERGY PREDICTED BY IDOCK:   -3.01 KCAL/MOL
REMARK 922        TOTAL FREE ENERGY PREDICTED BY IDOCK:   -3.92 KCAL/MOL
REMARK 923 INTER-LIGAND FREE ENERGY PREDICTED BY IDOCK:   -3.98 KCAL/MOL
REMARK 924 INTRA-LIGAND FREE ENERGY PREDICTED BY IDOCK:    0.07 KCAL/MOL
REMARK 927      BINDING AFFINITY PREDICTED BY RF-SCORE:    0.00 PKD
ROOT
HETATM    1  C   UNL     1      -8.687  10.583  69.037  1.00  0.00    -0.160 C  
HETATM    2  C   UNL     1      -7.764  11.600  68.694  1.00  0.00    -0.134 C  
HETATM    3  C   UNL     1      -8.721  11.214  67.624  1.00  0.00    -0.129 C  
HETATM    4  C   UNL     1     -10.235   9.956  68.228  1.00  0.00    -0.176 C  
HETATM    5  C   UNL     1     -10.256  11.323  68.145  1.00  0.00    -0.196 C  
HETATM    6  C   UNL     1      -8.159   7.080  64.764  1.00  0.00    -0.096 A  
HETATM    7  O   UNL     1     -11.409   9.524  67.539  1.00  0.00    -0.365 OA 
HETATM    8  C   UNL     1     -10.415  11.084  66.290  1.00  0.00    -0.310 C  
HETATM    9  C   UNL     1     -11.106  12.359  68.816  1.00  0.00    -0.307 C  
HETATM   10  C   UNL     1      -8.137   9.023  68.215  1.00  0.00    -0.109 C  
HETATM   11  H   UNL     1     -12.107   8.944  67.818  1.00  0.00     0.000 HD 
HETATM   12  C   UNL     1      -9.642   9.583  65.770  1.00  0.00    -0.337 C  
HETATM   13  C   UNL     1      -8.299   8.925  66.538  1.00  0.00    -0.115 C  
HETATM   14  C   UNL     1      -7.826   7.553  66.046  1.00  0.00    -0.101 A  
HETATM   15  C   UNL     1      -6.860   6.836  66.788  1.00  0.00    -0.061 A  
HETATM   16  C   UNL     1      -6.321   5.647  66.269  1.00  0.00    -0.039 A  
HETATM   17  C   UNL     1      -6.367   7.260  68.155  1.00  0.00    -0.044 C  
HETATM   18  C   UNL     1      -6.678   8.701  68.542  1.00  0.00    -0.060 C  
HETATM   19  C   UNL     1      -6.705   5.162  65.022  1.00  0.00    -0.048 A  
HETATM   20  C   UNL     1      -7.599   5.901  64.258  1.00  0.00    -0.088 A  
ENDROOT
BRANCH   4  21
HETATM   21  C   UNL     1     -10.690   9.612  69.678  1.00  0.00    -0.260 C  
HETATM   22  C   UNL     1     -10.993   9.349  70.814  1.00  0.00    -0.371 C  
ENDBRANCH   4  21
BRANCH  19  23
HETATM   23  O   UNL     1      -6.253   3.993  64.468  1.00  0.00    -0.025 OA 
BRANCH  23  24
HETATM   24  C   UNL     1      -7.056   2.840  64.721  1.00  0.00    -0.050 C  
HETATM   25  C   UNL     1      -7.628   2.809  66.138  1.00  0.00    -0.076 C  
HETATM   26  C   UNL     1      -8.789   1.843  66.016  1.00  0.00    -0.121 C  
HETATM   27  C   UNL     1      -9.403   2.163  64.659  1.00  0.00    -0.120 C  
HETATM   28  C   UNL     1      -8.316   2.874  63.850  1.00  0.00    -0.086 C  
ENDBRANCH  23  24
ENDBRANCH  19  23
TORSDOF 3
ENDMDL
MODEL      113
REMARK 921   NORMALIZED FREE ENERGY PREDICTED BY IDOCK:   -2.75 KCAL/MOL
REMARK 922        TOTAL FREE ENERGY PREDICTED BY IDOCK:   -3.61 KCAL/MOL
REMARK 923 INTER-LIGAND FREE ENERGY PREDICTED BY IDOCK:   -3.57 KCAL/MOL
REMARK 924 INTRA-LIGAND FREE ENERGY PREDICTED BY IDOCK:   -0.04 KCAL/MOL
REMARK 927      BINDING AFFINITY PREDICTED BY RF-SCORE:    0.00 PKD
ROOT
HETATM    1  C   UNL     1      -8.452  10.520  68.707  1.00  0.00    -0.141 C  
HETATM    2  C   UNL     1      -7.427  10.472  69.682  1.00  0.00    -0.145 C  
HETATM    3  C   UNL     1      -6.969  10.487  68.268  1.00  0.00    -0.073 C  
HETATM    4  C   UNL     1      -8.446  10.854  66.882  1.00  0.00    -0.135 C  
HETATM    5  C   UNL     1      -7.592  11.752  67.464  1.00  0.00    -0.135 C  
HETATM    6  C   UNL     1      -6.986   6.385  65.308  1.00  0.00    -0.056 A  
HETATM    7  O   UNL     1      -8.357  11.110  65.481  1.00  0.00    -0.343 OA 
HETATM    8  C   UNL     1      -6.282  11.071  66.305  1.00  0.00    -0.126 C  
HETATM    9  C   UNL     1      -7.678  13.235  67.667  1.00  0.00    -0.171 C  
HETATM   10  C   UNL     1      -8.603   8.836  67.967  1.00  0.00    -0.134 C  
HETATM   11  H   UNL     1      -9.039  11.279  64.841  1.00  0.00     0.000 HD 
HETATM   12  C   UNL     1      -6.601   9.380  65.905  1.00  0.00    -0.076 C  
HETATM   13  C   UNL     1      -7.354   8.310  66.959  1.00  0.00    -0.084 C  
HETATM   14  C   UNL     1      -7.672   6.913  66.415  1.00  0.00    -0.098 A  
HETATM   15  C   UNL     1      -8.507   6.046  67.156  1.00  0.00    -0.104 A  
HETATM   16  C   UNL     1      -8.686   4.718  66.732  1.00  0.00    -0.107 A  
HETATM   17  C   UNL     1      -9.261   6.464  68.400  1.00  0.00    -0.120 C  
HETATM   18  C   UNL     1      -8.790   7.764  69.042  1.00  0.00    -0.138 C  
HETATM   19  C   UNL     1      -8.043   4.226  65.600  1.00  0.00    -0.105 A  
HETATM   20  C   UNL     1      -7.166   5.055  64.910  1.00  0.00    -0.063 A  
ENDROOT
BRANCH   4  21
HETATM   21  C   UNL     1      -9.880  11.416  67.120  1.00  0.00    -0.212 C  
HETATM   22  C   UNL     1     -10.994  11.853  67.253  1.00  0.00    -0.319 C  
ENDBRANCH   4  21
BRANCH  19  23
HETATM   23  O   UNL     1      -8.198   2.959  65.104  1.00  0.00    -0.089 OA 
BRANCH  23  24
HETATM   24  C   UNL     1      -8.787   2.872  63.807  1.00  0.00    -0.092 C  
HETATM   25  C   UNL     1      -9.639   1.617  63.619  1.00  0.00    -0.115 C  
HETATM   26  C   UNL     1     -10.526   1.977  62.445  1.00  0.00    -0.105 C  
HETATM   27  C   UNL     1     -10.878   3.442  62.676  1.00  0.00    -0.143 C  
HETATM   28  C   UNL     1      -9.806   4.000  63.614  1.00  0.00    -0.143 C  
ENDBRANCH  23  24
ENDBRANCH  19  23
TORSDOF 3
ENDMDL
MODEL      114
REMARK 921   NORMALIZED FREE ENERGY PREDICTED BY IDOCK:   -2.72 KCAL/MOL
REMARK 922        TOTAL FREE ENERGY PREDICTED BY IDOCK:   -3.57 KCAL/MOL
REMARK 923 INTER-LIGAND FREE ENERGY PREDICTED BY IDOCK:   -3.68 KCAL/MOL
REMARK 924 INTRA-LIGAND FREE ENERGY PREDICTED BY IDOCK:    0.11 KCAL/MOL
REMARK 927      BINDING AFFINITY PREDICTED BY RF-SCORE:    0.00 PKD
ROOT
HETATM    1  C   UNL     1     -10.621   9.222  71.505  1.00  0.00    -0.405 C  
HETATM    2  C   UNL     1     -11.425  10.240  70.939  1.00  0.00    -0.425 C  
HETATM    3  C   UNL     1     -11.721   8.856  70.481  1.00  0.00    -0.137 C  
HETATM    4  C   UNL     1     -10.753   7.371  71.527  1.00  0.00    -0.222 C  
HETATM    5  C   UNL     1     -12.010   7.872  71.740  1.00  0.00    -0.337 C  
HETATM    6  C   UNL     1      -8.961   6.439  66.999  1.00  0.00    -0.119 A  
HETATM    7  O   UNL     1     -10.920   5.953  71.489  1.00  0.00    -0.259 OA 
HETATM    8  C   UNL     1     -12.531   6.869  70.243  1.00  0.00     0.138 C  
HETATM    9  C   UNL     1     -12.896   7.882  72.949  1.00  0.00     0.515 C  
HETATM   10  C   UNL     1      -9.398   8.693  70.227  1.00  0.00    -0.180 C  
HETATM   11  H   UNL     1     -10.474   5.268  71.971  1.00  0.00     0.000 HD 
HETATM   12  C   UNL     1     -11.191   6.671  69.108  1.00  0.00    -0.305 C  
HETATM   13  C   UNL     1      -9.979   7.817  68.906  1.00  0.00    -0.185 C  
HETATM   14  C   UNL     1      -8.820   7.440  67.977  1.00  0.00    -0.126 A  
HETATM   15  C   UNL     1      -7.659   8.246  67.941  1.00  0.00    -0.102 A  
HETATM   16  C   UNL     1      -6.657   7.985  66.991  1.00  0.00    -0.057 A  
HETATM   17  C   UNL     1      -7.402   9.392  68.895  1.00  0.00    -0.073 C  
HETATM   18  C   UNL     1      -8.622   9.885  69.666  1.00  0.00    -0.207 C  
HETATM   19  C   UNL     1      -6.787   6.954  66.066  1.00  0.00    -0.060 A  
HETATM   20  C   UNL     1      -7.957   6.205  66.051  1.00  0.00    -0.110 A  
ENDROOT
BRANCH   4  21
HETATM   21  C   UNL     1     -10.018   7.471  72.897  1.00  0.00    -0.303 C  
HETATM   22  C   UNL     1      -9.408   7.531  73.934  1.00  0.00    -0.301 C  
ENDBRANCH   4  21
BRANCH  19  23
HETATM   23  O   UNL     1      -5.838   6.615  65.138  1.00  0.00    -0.029 OA 
BRANCH  23  24
HETATM   24  C   UNL     1      -6.021   7.174  63.837  1.00  0.00    -0.040 C  
HETATM   25  C   UNL     1      -7.481   7.506  63.528  1.00  0.00    -0.101 C  
HETATM   26  C   UNL     1      -7.372   8.502  62.392  1.00  0.00    -0.099 C  
HETATM   27  C   UNL     1      -6.172   9.365  62.763  1.00  0.00    -0.094 C  
HETATM   28  C   UNL     1      -5.341   8.545  63.753  1.00  0.00    -0.057 C  
ENDBRANCH  23  24
ENDBRANCH  19  23
TORSDOF 3
ENDMDL
MODEL      115
REMARK 921   NORMALIZED FREE ENERGY PREDICTED BY IDOCK:   -2.68 KCAL/MOL
REMARK 922        TOTAL FREE ENERGY PREDICTED BY IDOCK:   -3.53 KCAL/MOL
REMARK 923 INTER-LIGAND FREE ENERGY PREDICTED BY IDOCK:   -3.66 KCAL/MOL
REMARK 924 INTRA-LIGAND FREE ENERGY PREDICTED BY IDOCK:    0.13 KCAL/MOL
REMARK 927      BINDING AFFINITY PREDICTED BY RF-SCORE:    0.00 PKD
ROOT
HETATM    1  C   UNL     1      -7.730  10.162  66.448  1.00  0.00    -0.111 C  
HETATM    2  C   UNL     1      -6.341  10.040  66.201  1.00  0.00    -0.081 C  
HETATM    3  C   UNL     1      -7.127   8.783  66.090  1.00  0.00    -0.085 C  
HETATM    4  C   UNL     1      -9.170   9.028  66.158  1.00  0.00    -0.216 C  
HETATM    5  C   UNL     1      -8.364   8.956  65.052  1.00  0.00    -0.174 C  
HETATM    6  C   UNL     1      -8.601   6.072  70.098  1.00  0.00    -0.135 A  
HETATM    7  O   UNL     1     -10.222   8.095  65.912  1.00  0.00    -0.304 OA 
HETATM    8  C   UNL     1      -8.291   7.109  65.377  1.00  0.00    -0.122 C  
HETATM    9  C   UNL     1      -8.545   9.436  63.644  1.00  0.00    -0.220 C  
HETATM   10  C   UNL     1      -8.067   9.465  68.124  1.00  0.00    -0.110 C  
HETATM   11  H   UNL     1     -11.165   8.208  65.944  1.00  0.00     0.000 HD 
HETATM   12  C   UNL     1      -8.474   6.756  67.099  1.00  0.00    -0.120 C  
HETATM   13  C   UNL     1      -7.947   7.791  68.313  1.00  0.00    -0.122 C  
HETATM   14  C   UNL     1      -8.294   7.400  69.753  1.00  0.00    -0.134 A  
HETATM   15  C   UNL     1      -8.092   8.329  70.800  1.00  0.00    -0.109 A  
HETATM   16  C   UNL     1      -8.275   7.927  72.135  1.00  0.00    -0.160 A  
HETATM   17  C   UNL     1      -7.704   9.774  70.577  1.00  0.00    -0.094 C  
HETATM   18  C   UNL     1      -7.169  10.099  69.187  1.00  0.00    -0.081 C  
HETATM   19  C   UNL     1      -8.635   6.622  72.455  1.00  0.00    -0.124 A  
HETATM   20  C   UNL     1      -8.764   5.688  71.434  1.00  0.00    -0.133 A  
ENDROOT
BRANCH   4  21
HETATM   21  C   UNL     1      -9.995  10.340  65.998  1.00  0.00    -0.308 C  
HETATM   22  C   UNL     1     -10.664  11.338  65.909  1.00  0.00    -0.291 C  
ENDBRANCH   4  21
BRANCH  19  23
HETATM   23  O   UNL     1      -8.868   6.168  73.726  1.00  0.00    -0.124 OA 
BRANCH  23  24
HETATM   24  C   UNL     1      -7.707   5.794  74.469  1.00  0.00    -0.097 C  
HETATM   25  C   UNL     1      -6.999   4.567  73.896  1.00  0.00    -0.067 C  
HETATM   26  C   UNL     1      -5.607   4.669  74.485  1.00  0.00    -0.020 C  
HETATM   27  C   UNL     1      -5.291   6.160  74.445  1.00  0.00    -0.038 C  
HETATM   28  C   UNL     1      -6.636   6.884  74.356  1.00  0.00    -0.083 C  
ENDBRANCH  23  24
ENDBRANCH  19  23
TORSDOF 3
ENDMDL
MODEL      116
REMARK 921   NORMALIZED FREE ENERGY PREDICTED BY IDOCK:   -2.63 KCAL/MOL
REMARK 922        TOTAL FREE ENERGY PREDICTED BY IDOCK:   -3.48 KCAL/MOL
REMARK 923 INTER-LIGAND FREE ENERGY PREDICTED BY IDOCK:   -3.17 KCAL/MOL
REMARK 924 INTRA-LIGAND FREE ENERGY PREDICTED BY IDOCK:   -0.31 KCAL/MOL
REMARK 927      BINDING AFFINITY PREDICTED BY RF-SCORE:    0.00 PKD
ROOT
HETATM    1  C   UNL     1     -11.863  15.677  67.998  1.00  0.00    -0.032 C  
HETATM    2  C   UNL     1     -11.507  16.496  69.096  1.00  0.00    -0.084 C  
HETATM    3  C   UNL     1     -10.371  15.943  68.312  1.00  0.00    -0.242 C  
HETATM    4  C   UNL     1     -10.904  15.006  66.559  1.00  0.00    -0.320 C  
HETATM    5  C   UNL     1     -10.515  16.307  66.736  1.00  0.00    -0.287 C  
HETATM    6  C   UNL     1      -8.691  11.201  68.842  1.00  0.00    -0.086 A  
HETATM    7  O   UNL     1     -10.095  14.520  65.487  1.00  0.00    -0.332 OA 
HETATM    8  C   UNL     1      -8.770  15.635  66.896  1.00  0.00    -0.283 C  
HETATM    9  C   UNL     1     -10.742  17.544  65.922  1.00  0.00    -0.119 C  
HETATM   10  C   UNL     1     -11.547  13.923  68.479  1.00  0.00    -0.367 C  
HETATM   11  H   UNL     1     -10.341  14.087  64.678  1.00  0.00     0.000 HD 
HETATM   12  C   UNL     1      -8.776  13.992  67.545  1.00  0.00    -0.201 C  
HETATM   13  C   UNL     1      -9.938  13.430  68.621  1.00  0.00    -0.139 C  
HETATM   14  C   UNL     1      -9.876  11.944  68.990  1.00  0.00     0.118 A  
HETATM   15  C   UNL     1     -10.948  11.352  69.696  1.00  0.00    -0.174 A  
HETATM   16  C   UNL     1     -10.834  10.029  70.159  1.00  0.00    -0.365 A  
HETATM   17  C   UNL     1     -12.259  12.054  69.978  1.00  0.00    -0.280 C  
HETATM   18  C   UNL     1     -12.240  13.568  69.795  1.00  0.00    -0.330 C  
HETATM   19  C   UNL     1      -9.675   9.288  69.954  1.00  0.00    -0.201 A  
HETATM   20  C   UNL     1      -8.592   9.890  69.324  1.00  0.00    -0.169 A  
ENDROOT
BRANCH   4  21
HETATM   21  C   UNL     1     -12.263  15.068  65.800  1.00  0.00     0.206 C  
HETATM   22  C   UNL     1     -13.328  15.154  65.243  1.00  0.00     1.400 C  
ENDBRANCH   4  21
BRANCH  19  23
HETATM   23  O   UNL     1      -9.504   7.985  70.341  1.00  0.00    -0.165 OA 
BRANCH  23  24
HETATM   24  C   UNL     1      -9.402   7.769  71.749  1.00  0.00    -0.141 C  
HETATM   25  C   UNL     1     -10.182   6.543  72.224  1.00  0.00    -0.203 C  
HETATM   26  C   UNL     1      -9.542   6.228  73.560  1.00  0.00    -0.158 C  
HETATM   27  C   UNL     1      -8.057   6.486  73.337  1.00  0.00    -0.109 C  
HETATM   28  C   UNL     1      -7.959   7.415  72.124  1.00  0.00    -0.101 C  
ENDBRANCH  23  24
ENDBRANCH  19  23
TORSDOF 3
ENDMDL
MODEL      117
REMARK 921   NORMALIZED FREE ENERGY PREDICTED BY IDOCK:   -2.48 KCAL/MOL
REMARK 922        TOTAL FREE ENERGY PREDICTED BY IDOCK:   -3.29 KCAL/MOL
REMARK 923 INTER-LIGAND FREE ENERGY PREDICTED BY IDOCK:   -2.99 KCAL/MOL
REMARK 924 INTRA-LIGAND FREE ENERGY PREDICTED BY IDOCK:   -0.30 KCAL/MOL
REMARK 927      BINDING AFFINITY PREDICTED BY RF-SCORE:    0.00 PKD
ROOT
HETATM    1  C   UNL     1      -6.984   7.419  67.771  1.00  0.00    -0.076 C  
HETATM    2  C   UNL     1      -5.694   6.846  67.671  1.00  0.00    -0.020 C  
HETATM    3  C   UNL     1      -6.071   7.349  69.018  1.00  0.00    -0.034 C  
HETATM    4  C   UNL     1      -8.043   7.903  69.216  1.00  0.00    -0.126 C  
HETATM    5  C   UNL     1      -7.472   6.695  69.516  1.00  0.00    -0.093 C  
HETATM    6  C   UNL     1      -5.898  12.239  70.299  1.00  0.00    -0.166 A  
HETATM    7  O   UNL     1      -8.793   8.258  70.378  1.00  0.00    -0.136 OA 
HETATM    8  C   UNL     1      -6.788   7.538  71.047  1.00  0.00    -0.050 C  
HETATM    9  C   UNL     1      -8.044   5.316  69.644  1.00  0.00    -0.091 C  
HETATM   10  C   UNL     1      -6.782   9.252  67.852  1.00  0.00    -0.071 C  
HETATM   11  H   UNL     1      -9.703   8.514  70.469  1.00  0.00     0.000 HD 
HETATM   12  C   UNL     1      -6.536   9.264  70.767  1.00  0.00    -0.084 C  
HETATM   13  C   UNL     1      -6.131   9.905  69.267  1.00  0.00    -0.040 C  
HETATM   14  C   UNL     1      -6.073  11.432  69.161  1.00  0.00    -0.055 A  
HETATM   15  C   UNL     1      -5.972  12.043  67.890  1.00  0.00    -0.062 A  
HETATM   16  C   UNL     1      -5.776  13.433  67.797  1.00  0.00    -0.112 A  
HETATM   17  C   UNL     1      -6.084  11.289  66.583  1.00  0.00    -0.143 C  
HETATM   18  C   UNL     1      -5.937   9.775  66.689  1.00  0.00    -0.059 C  
HETATM   19  C   UNL     1      -5.662  14.225  68.934  1.00  0.00    -0.086 A  
HETATM   20  C   UNL     1      -5.689  13.619  70.185  1.00  0.00    -0.136 A  
ENDROOT
BRANCH   4  21
HETATM   21  C   UNL     1      -9.240   7.583  68.270  1.00  0.00    -0.138 C  
HETATM   22  C   UNL     1     -10.135   7.347  67.500  1.00  0.00    -0.250 C  
ENDBRANCH   4  21
BRANCH  19  23
HETATM   23  O   UNL     1      -5.509  15.587  68.923  1.00  0.00    -0.097 OA 
BRANCH  23  24
HETATM   24  C   UNL     1      -6.168  16.272  67.858  1.00  0.00    -0.126 C  
HETATM   25  C   UNL     1      -7.685  16.336  68.036  1.00  0.00    -0.154 C  
HETATM   26  C   UNL     1      -8.087  17.482  67.130  1.00  0.00    -0.229 C  
HETATM   27  C   UNL     1      -6.980  18.513  67.315  1.00  0.00    -0.210 C  
HETATM   28  C   UNL     1      -5.768  17.751  67.857  1.00  0.00    -0.147 C  
ENDBRANCH  23  24
ENDBRANCH  19  23
TORSDOF 3
ENDMDL
MODEL      118
REMARK 921   NORMALIZED FREE ENERGY PREDICTED BY IDOCK:   -2.44 KCAL/MOL
REMARK 922        TOTAL FREE ENERGY PREDICTED BY IDOCK:   -3.25 KCAL/MOL
REMARK 923 INTER-LIGAND FREE ENERGY PREDICTED BY IDOCK:   -3.46 KCAL/MOL
REMARK 924 INTRA-LIGAND FREE ENERGY PREDICTED BY IDOCK:    0.21 KCAL/MOL
REMARK 927      BINDING AFFINITY PREDICTED BY RF-SCORE:    0.00 PKD
ROOT
HETATM    1  C   UNL     1      -7.437  11.126  66.767  1.00  0.00    -0.146 C  
HETATM    2  C   UNL     1      -7.467  10.678  65.425  1.00  0.00    -0.028 C  
HETATM    3  C   UNL     1      -8.768  10.642  66.144  1.00  0.00    -0.178 C  
HETATM    4  C   UNL     1      -8.768  11.567  67.983  1.00  0.00    -0.151 C  
HETATM    5  C   UNL     1      -9.131  12.095  66.772  1.00  0.00    -0.205 C  
HETATM    6  C   UNL     1     -10.027   6.989  69.409  1.00  0.00    -0.165 A  
HETATM    7  O   UNL     1      -9.849  11.878  68.862  1.00  0.00    -0.392 OA 
HETATM    8  C   UNL     1     -10.715  11.106  66.955  1.00  0.00    -0.322 C  
HETATM    9  C   UNL     1      -9.212  13.506  66.274  1.00  0.00    -0.070 C  
HETATM   10  C   UNL     1      -7.525   9.640  67.859  1.00  0.00    -0.083 C  
HETATM   11  H   UNL     1      -9.849  12.305  69.711  1.00  0.00     0.000 HD 
HETATM   12  C   UNL     1     -10.450   9.644  67.911  1.00  0.00    -0.296 C  
HETATM   13  C   UNL     1      -8.992   8.808  67.929  1.00  0.00    -0.142 C  
HETATM   14  C   UNL     1      -8.882   7.633  68.907  1.00  0.00    -0.135 A  
HETATM   15  C   UNL     1      -7.624   7.036  69.146  1.00  0.00    -0.100 A  
HETATM   16  C   UNL     1      -7.541   5.872  69.931  1.00  0.00    -0.080 A  
HETATM   17  C   UNL     1      -6.317   7.589  68.620  1.00  0.00    -0.040 C  
HETATM   18  C   UNL     1      -6.447   8.616  67.501  1.00  0.00    -0.058 C  
HETATM   19  C   UNL     1      -8.679   5.279  70.468  1.00  0.00    -0.121 A  
HETATM   20  C   UNL     1      -9.924   5.822  70.176  1.00  0.00    -0.258 A  
ENDROOT
BRANCH   4  21
HETATM   21  C   UNL     1      -7.712  12.548  68.574  1.00  0.00    -0.113 C  
HETATM   22  C   UNL     1      -6.859  13.276  69.015  1.00  0.00    -0.096 C  
ENDBRANCH   4  21
BRANCH  19  23
HETATM   23  O   UNL     1      -8.673   4.170  71.272  1.00  0.00    -0.097 OA 
BRANCH  23  24
HETATM   24  C   UNL     1      -8.130   2.987  70.686  1.00  0.00    -0.045 C  
HETATM   25  C   UNL     1      -7.863   3.129  69.188  1.00  0.00    -0.054 C  
HETATM   26  C   UNL     1      -6.869   2.020  68.911  1.00  0.00    -0.033 C  
HETATM   27  C   UNL     1      -5.955   2.022  70.130  1.00  0.00    -0.022 C  
HETATM   28  C   UNL     1      -6.733   2.713  71.252  1.00  0.00    -0.031 C  
ENDBRANCH  23  24
ENDBRANCH  19  23
TORSDOF 3
ENDMDL
MODEL      119
REMARK 921   NORMALIZED FREE ENERGY PREDICTED BY IDOCK:   -2.33 KCAL/MOL
REMARK 922        TOTAL FREE ENERGY PREDICTED BY IDOCK:   -3.12 KCAL/MOL
REMARK 923 INTER-LIGAND FREE ENERGY PREDICTED BY IDOCK:   -3.28 KCAL/MOL
REMARK 924 INTRA-LIGAND FREE ENERGY PREDICTED BY IDOCK:    0.16 KCAL/MOL
REMARK 927      BINDING AFFINITY PREDICTED BY RF-SCORE:    0.00 PKD
ROOT
HETATM    1  C   UNL     1      -8.022  17.760  68.589  1.00  0.00    -0.276 C  
HETATM    2  C   UNL     1      -7.593  17.642  69.933  1.00  0.00     1.201 C  
HETATM    3  C   UNL     1      -6.759  16.931  68.927  1.00  0.00    -0.199 C  
HETATM    4  C   UNL     1      -7.219  17.353  66.966  1.00  0.00    -0.182 C  
HETATM    5  C   UNL     1      -6.268  17.942  67.755  1.00  0.00    -0.169 C  
HETATM    6  C   UNL     1      -8.038  12.463  66.929  1.00  0.00    -0.064 A  
HETATM    7  O   UNL     1      -6.538  17.005  65.760  1.00  0.00     0.068 OA 
HETATM    8  C   UNL     1      -5.253  16.387  67.478  1.00  0.00    -0.156 C  
HETATM    9  C   UNL     1      -5.584  19.274  67.683  1.00  0.00    -0.183 C  
HETATM   10  C   UNL     1      -8.816  16.164  68.109  1.00  0.00    -0.184 C  
HETATM   11  H   UNL     1      -6.751  17.199  64.855  1.00  0.00     0.000 HD 
HETATM   12  C   UNL     1      -6.294  14.984  67.214  1.00  0.00     0.198 C  
HETATM   13  C   UNL     1      -7.813  14.820  67.913  1.00  0.00    -0.145 C  
HETATM   14  C   UNL     1      -8.643  13.605  67.483  1.00  0.00    -0.197 A  
HETATM   15  C   UNL     1     -10.008  13.526  67.843  1.00  0.00    -0.245 A  
HETATM   16  C   UNL     1     -10.734  12.352  67.575  1.00  0.00    -0.256 A  
HETATM   17  C   UNL     1     -10.771  14.656  68.498  1.00  0.00    -0.248 C  
HETATM   18  C   UNL     1      -9.911  15.763  69.098  1.00  0.00    -0.241 C  
HETATM   19  C   UNL     1     -10.133  11.251  66.973  1.00  0.00    -0.206 A  
HETATM   20  C   UNL     1      -8.774  11.298  66.684  1.00  0.00    -0.174 A  
ENDROOT
BRANCH   4  21
HETATM   21  C   UNL     1      -8.084  18.520  66.402  1.00  0.00    -0.295 C  
HETATM   22  C   UNL     1      -8.712  19.452  65.967  1.00  0.00    -0.179 C  
ENDBRANCH   4  21
BRANCH  19  23
HETATM   23  O   UNL     1     -10.783  10.090  66.646  1.00  0.00    -0.157 OA 
BRANCH  23  24
HETATM   24  C   UNL     1     -10.901   9.132  67.698  1.00  0.00    -0.089 C  
HETATM   25  C   UNL     1     -10.553   7.711  67.255  1.00  0.00    -0.388 C  
HETATM   26  C   UNL     1     -10.255   7.008  68.563  1.00  0.00    -0.183 C  
HETATM   27  C   UNL     1      -9.505   8.048  69.386  1.00  0.00    -0.159 C  
HETATM   28  C   UNL     1      -9.856   9.410  68.783  1.00  0.00    -0.172 C  
ENDBRANCH  23  24
ENDBRANCH  19  23
TORSDOF 3
ENDMDL
MODEL      120
REMARK 921   NORMALIZED FREE ENERGY PREDICTED BY IDOCK:   -2.19 KCAL/MOL
REMARK 922        TOTAL FREE ENERGY PREDICTED BY IDOCK:   -2.95 KCAL/MOL
REMARK 923 INTER-LIGAND FREE ENERGY PREDICTED BY IDOCK:   -3.02 KCAL/MOL
REMARK 924 INTRA-LIGAND FREE ENERGY PREDICTED BY IDOCK:    0.08 KCAL/MOL
REMARK 927      BINDING AFFINITY PREDICTED BY RF-SCORE:    0.00 PKD
ROOT
HETATM    1  C   UNL     1      -6.577   7.190  66.276  1.00  0.00    -0.052 C  
HETATM    2  C   UNL     1      -5.425   6.607  65.696  1.00  0.00    -0.022 C  
HETATM    3  C   UNL     1      -6.682   5.826  65.554  1.00  0.00    -0.047 C  
HETATM    4  C   UNL     1      -8.389   6.818  66.137  1.00  0.00    -0.130 C  
HETATM    5  C   UNL     1      -7.855   6.724  64.879  1.00  0.00    -0.119 C  
HETATM    6  C   UNL     1      -8.607   2.975  69.263  1.00  0.00    -0.113 A  
HETATM    7  O   UNL     1      -9.763   6.462  65.985  1.00  0.00    -0.384 OA 
HETATM    8  C   UNL     1      -8.540   4.977  64.853  1.00  0.00    -0.150 C  
HETATM    9  C   UNL     1      -8.005   7.578  63.656  1.00  0.00    -0.074 C  
HETATM   10  C   UNL     1      -6.945   6.277  67.838  1.00  0.00    -0.072 C  
HETATM   11  H   UNL     1     -10.551   6.920  66.254  1.00  0.00     0.000 HD 
HETATM   12  C   UNL     1      -8.616   4.296  66.482  1.00  0.00    -0.112 C  
HETATM   13  C   UNL     1      -7.531   4.699  67.700  1.00  0.00    -0.078 C  
HETATM   14  C   UNL     1      -7.809   4.121  69.092  1.00  0.00    -0.057 A  
HETATM   15  C   UNL     1      -7.085   4.599  70.207  1.00  0.00    -0.049 A  
HETATM   16  C   UNL     1      -7.235   3.974  71.458  1.00  0.00    -0.046 A  
HETATM   17  C   UNL     1      -6.147   5.785  70.155  1.00  0.00    -0.026 C  
HETATM   18  C   UNL     1      -5.723   6.220  68.756  1.00  0.00    -0.019 C  
HETATM   19  C   UNL     1      -8.074   2.876  71.622  1.00  0.00    -0.057 A  
HETATM   20  C   UNL     1      -8.732   2.358  70.513  1.00  0.00    -0.115 A  
ENDROOT
BRANCH   4  21
HETATM   21  C   UNL     1      -8.582   8.341  66.403  1.00  0.00    -0.144 C  
HETATM   22  C   UNL     1      -8.718   9.511  66.656  1.00  0.00    -0.146 C  
ENDBRANCH   4  21
BRANCH  19  23
HETATM   23  O   UNL     1      -8.300   2.240  72.814  1.00  0.00    -0.060 OA 
BRANCH  23  24
HETATM   24  C   UNL     1      -9.223   2.885  73.691  1.00  0.00    -0.081 C  
HETATM   25  C   UNL     1      -9.175   4.410  73.594  1.00  0.00    -0.106 C  
HETATM   26  C   UNL     1     -10.507   4.832  74.178  1.00  0.00    -0.335 C  
HETATM   27  C   UNL     1     -11.492   3.793  73.658  1.00  0.00    -0.154 C  
HETATM   28  C   UNL     1     -10.661   2.568  73.270  1.00  0.00    -0.276 C  
ENDBRANCH  23  24
ENDBRANCH  19  23
TORSDOF 3
ENDMDL
MODEL      121
REMARK 921   NORMALIZED FREE ENERGY PREDICTED BY IDOCK:   -2.11 KCAL/MOL
REMARK 922        TOTAL FREE ENERGY PREDICTED BY IDOCK:   -2.86 KCAL/MOL
REMARK 923 INTER-LIGAND FREE ENERGY PREDICTED BY IDOCK:   -2.92 KCAL/MOL
REMARK 924 INTRA-LIGAND FREE ENERGY PREDICTED BY IDOCK:    0.06 KCAL/MOL
REMARK 927      BINDING AFFINITY PREDICTED BY RF-SCORE:    0.00 PKD
ROOT
HETATM    1  C   UNL     1      -5.891  11.243  67.405  1.00  0.00    -0.061 C  
HETATM    2  C   UNL     1      -5.451  11.492  66.083  1.00  0.00     0.066 C  
HETATM    3  C   UNL     1      -6.926  11.462  66.275  1.00  0.00     0.072 C  
HETATM    4  C   UNL     1      -7.542  11.395  68.238  1.00  0.00    -0.113 C  
HETATM    5  C   UNL     1      -7.385  12.497  67.440  1.00  0.00    -0.147 C  
HETATM    6  C   UNL     1      -9.587   7.175  66.627  1.00  0.00    -0.226 A  
HETATM    7  O   UNL     1      -8.847  11.529  68.803  1.00  0.00    -0.300 OA 
HETATM    8  C   UNL     1      -8.993  11.981  66.621  1.00  0.00    -0.204 C  
HETATM    9  C   UNL     1      -7.167  13.945  67.757  1.00  0.00    -0.173 C  
HETATM   10  C   UNL     1      -6.494   9.499  67.478  1.00  0.00    -0.062 C  
HETATM   11  H   UNL     1      -9.132  11.498  69.708  1.00  0.00     0.000 HD 
HETATM   12  C   UNL     1      -9.216  10.230  66.697  1.00  0.00    -0.179 C  
HETATM   13  C   UNL     1      -7.939   9.138  66.684  1.00  0.00    -0.104 C  
HETATM   14  C   UNL     1      -8.292   7.660  66.885  1.00  0.00    -0.124 A  
HETATM   15  C   UNL     1      -7.263   6.719  67.118  1.00  0.00    -0.085 A  
HETATM   16  C   UNL     1      -7.568   5.347  67.162  1.00  0.00    -0.092 A  
HETATM   17  C   UNL     1      -5.817   7.096  67.354  1.00  0.00    -0.025 C  
HETATM   18  C   UNL     1      -5.441   8.519  66.957  1.00  0.00    -0.037 C  
HETATM   19  C   UNL     1      -8.866   4.888  66.961  1.00  0.00    -0.106 A  
HETATM   20  C   UNL     1      -9.867   5.804  66.659  1.00  0.00    -0.194 A  
ENDROOT
BRANCH   4  21
HETATM   21  C   UNL     1      -6.713  11.681  69.525  1.00  0.00    -0.089 C  
HETATM   22  C   UNL     1      -6.064  11.949  70.504  1.00  0.00     0.048 C  
ENDBRANCH   4  21
BRANCH  19  23
HETATM   23  O   UNL     1      -9.246   3.573  67.026  1.00  0.00    -0.163 OA 
BRANCH  23  24
HETATM   24  C   UNL     1      -9.701   3.125  68.303  1.00  0.00     0.075 C  
HETATM   25  C   UNL     1      -9.309   1.679  68.605  1.00  0.00    -0.228 C  
HETATM   26  C   UNL     1      -9.426   1.601  70.113  1.00  0.00    -0.146 C  
HETATM   27  C   UNL     1      -8.892   2.942  70.602  1.00  0.00    -0.148 C  
HETATM   28  C   UNL     1      -8.994   3.904  69.417  1.00  0.00    -0.171 C  
ENDBRANCH  23  24
ENDBRANCH  19  23
TORSDOF 3
ENDMDL
MODEL      122
REMARK 921   NORMALIZED FREE ENERGY PREDICTED BY IDOCK:   -2.10 KCAL/MOL
REMARK 922        TOTAL FREE ENERGY PREDICTED BY IDOCK:   -2.84 KCAL/MOL
REMARK 923 INTER-LIGAND FREE ENERGY PREDICTED BY IDOCK:   -3.89 KCAL/MOL
REMARK 924 INTRA-LIGAND FREE ENERGY PREDICTED BY IDOCK:    1.05 KCAL/MOL
REMARK 927      BINDING AFFINITY PREDICTED BY RF-SCORE:    0.00 PKD
ROOT
HETATM    1  C   UNL     1      -9.621   8.924  66.115  1.00  0.00    -0.335 C  
HETATM    2  C   UNL     1     -10.521  10.004  66.283  1.00  0.00    -0.172 C  
HETATM    3  C   UNL     1      -9.143  10.229  66.796  1.00  0.00    -0.161 C  
HETATM    4  C   UNL     1      -7.779   8.776  66.282  1.00  0.00    -0.098 C  
HETATM    5  C   UNL     1      -8.037   9.957  65.639  1.00  0.00    -0.128 C  
HETATM    6  C   UNL     1      -7.502   8.402  71.218  1.00  0.00    -0.093 A  
HETATM    7  O   UNL     1      -6.361   8.741  66.441  1.00  0.00    -0.059 OA 
HETATM    8  C   UNL     1      -7.067  10.778  67.021  1.00  0.00    -0.104 C  
HETATM    9  C   UNL     1      -7.805  10.406  64.228  1.00  0.00    -0.058 C  
HETATM   10  C   UNL     1      -9.407   8.109  67.757  1.00  0.00    -0.149 C  
HETATM   11  H   UNL     1      -5.731   8.070  66.204  1.00  0.00     0.000 HD 
HETATM   12  C   UNL     1      -7.188   9.854  68.522  1.00  0.00    -0.076 C  
HETATM   13  C   UNL     1      -8.540   8.947  68.939  1.00  0.00    -0.135 C  
HETATM   14  C   UNL     1      -8.439   8.102  70.213  1.00  0.00    -0.126 A  
HETATM   15  C   UNL     1      -9.436   7.142  70.498  1.00  0.00    -0.162 A  
HETATM   16  C   UNL     1      -9.423   6.467  71.731  1.00  0.00    -0.159 A  
HETATM   17  C   UNL     1     -10.538   6.762  69.533  1.00  0.00    -0.265 C  
HETATM   18  C   UNL     1     -10.754   7.731  68.376  1.00  0.00    -0.088 C  
HETATM   19  C   UNL     1      -8.454   6.735  72.693  1.00  0.00    -0.121 A  
HETATM   20  C   UNL     1      -7.515   7.729  72.446  1.00  0.00    -0.098 A  
ENDROOT
BRANCH   4  21
HETATM   21  C   UNL     1      -7.908   7.665  65.196  1.00  0.00    -0.124 C  
HETATM   22  C   UNL     1      -8.014   6.843  64.323  1.00  0.00    -0.086 C  
ENDBRANCH   4  21
BRANCH  19  23
HETATM   23  O   UNL     1      -8.354   6.092  73.899  1.00  0.00    -0.114 OA 
BRANCH  23  24
HETATM   24  C   UNL     1      -9.341   5.091  74.148  1.00  0.00    -0.122 C  
HETATM   25  C   UNL     1     -10.750   5.527  73.744  1.00  0.00    -0.300 C  
HETATM   26  C   UNL     1     -11.490   4.212  73.614  1.00  0.00    -0.196 C  
HETATM   27  C   UNL     1     -10.475   3.271  72.975  1.00  0.00    -0.251 C  
HETATM   28  C   UNL     1      -9.096   3.874  73.249  1.00  0.00    -0.115 C  
ENDBRANCH  23  24
ENDBRANCH  19  23
TORSDOF 3
ENDMDL
MODEL      123
REMARK 921   NORMALIZED FREE ENERGY PREDICTED BY IDOCK:   -2.03 KCAL/MOL
REMARK 922        TOTAL FREE ENERGY PREDICTED BY IDOCK:   -2.76 KCAL/MOL
REMARK 923 INTER-LIGAND FREE ENERGY PREDICTED BY IDOCK:   -4.45 KCAL/MOL
REMARK 924 INTRA-LIGAND FREE ENERGY PREDICTED BY IDOCK:    1.69 KCAL/MOL
REMARK 927      BINDING AFFINITY PREDICTED BY RF-SCORE:    0.00 PKD
ROOT
HETATM    1  C   UNL     1      -7.157   8.001  69.782  1.00  0.00    -0.060 C  
HETATM    2  C   UNL     1      -6.250   8.520  70.736  1.00  0.00    -0.034 C  
HETATM    3  C   UNL     1      -7.643   8.319  71.216  1.00  0.00    -0.086 C  
HETATM    4  C   UNL     1      -8.867   7.293  69.916  1.00  0.00    -0.142 C  
HETATM    5  C   UNL     1      -8.135   6.792  70.959  1.00  0.00    -0.115 C  
HETATM    6  C   UNL     1     -11.412  11.538  70.208  1.00  0.00    -0.192 A  
HETATM    7  O   UNL     1     -10.183   6.772  70.101  1.00  0.00    -0.190 OA 
HETATM    8  C   UNL     1      -9.457   7.521  72.075  1.00  0.00    -0.174 C  
HETATM    9  C   UNL     1      -7.616   5.418  71.255  1.00  0.00    -0.101 C  
HETATM   10  C   UNL     1      -8.236   9.388  69.217  1.00  0.00    -0.111 C  
HETATM   11  H   UNL     1     -10.748   6.299  69.502  1.00  0.00     0.000 HD 
HETATM   12  C   UNL     1     -10.199   8.945  71.340  1.00  0.00    -0.375 C  
HETATM   13  C   UNL     1      -9.374   9.987  70.311  1.00  0.00    -0.012 C  
HETATM   14  C   UNL     1     -10.194  11.103  69.655  1.00  0.00     0.165 A  
HETATM   15  C   UNL     1      -9.629  11.865  68.608  1.00  0.00    -0.101 A  
HETATM   16  C   UNL     1     -10.323  12.979  68.102  1.00  0.00    -0.244 A  
HETATM   17  C   UNL     1      -8.300  11.546  67.959  1.00  0.00    -0.146 C  
HETATM   18  C   UNL     1      -7.410  10.581  68.734  1.00  0.00    -0.092 C  
HETATM   19  C   UNL     1     -11.555  13.362  68.622  1.00  0.00    -0.327 A  
HETATM   20  C   UNL     1     -12.080  12.659  69.699  1.00  0.00    -0.277 A  
ENDROOT
BRANCH   4  21
HETATM   21  C   UNL     1      -8.466   6.447  68.671  1.00  0.00    -0.123 C  
HETATM   22  C   UNL     1      -8.113   5.817  67.706  1.00  0.00    -0.102 C  
ENDBRANCH   4  21
BRANCH  19  23
HETATM   23  O   UNL     1     -12.305  14.409  68.156  1.00  0.00    -0.196 OA 
BRANCH  23  24
HETATM   24  C   UNL     1     -11.711  15.176  67.109  1.00  0.00    -0.130 C  
HETATM   25  C   UNL     1     -10.859  16.335  67.625  1.00  0.00    -0.293 C  
HETATM   26  C   UNL     1      -9.968  16.657  66.443  1.00  0.00    -0.316 C  
HETATM   27  C   UNL     1      -9.616  15.296  65.855  1.00  0.00    -0.377 C  
HETATM   28  C   UNL     1     -10.692  14.324  66.345  1.00  0.00    -0.297 C  
ENDBRANCH  23  24
ENDBRANCH  19  23
TORSDOF 3
ENDMDL
MODEL      124
REMARK 921   NORMALIZED FREE ENERGY PREDICTED BY IDOCK:   -2.01 KCAL/MOL
REMARK 922        TOTAL FREE ENERGY PREDICTED BY IDOCK:   -2.74 KCAL/MOL
REMARK 923 INTER-LIGAND FREE ENERGY PREDICTED BY IDOCK:   -2.90 KCAL/MOL
REMARK 924 INTRA-LIGAND FREE ENERGY PREDICTED BY IDOCK:    0.16 KCAL/MOL
REMARK 927      BINDING AFFINITY PREDICTED BY RF-SCORE:    0.00 PKD
ROOT
HETATM    1  C   UNL     1      -7.860   4.550  68.945  1.00  0.00    -0.070 C  
HETATM    2  C   UNL     1      -6.960   4.513  70.037  1.00  0.00    -0.045 C  
HETATM    3  C   UNL     1      -8.281   5.137  70.313  1.00  0.00    -0.090 C  
HETATM    4  C   UNL     1      -9.674   4.919  68.813  1.00  0.00    -0.165 C  
HETATM    5  C   UNL     1      -9.496   4.134  69.922  1.00  0.00    -0.265 C  
HETATM    6  C   UNL     1      -9.445   9.869  68.958  1.00  0.00    -0.185 A  
HETATM    7  O   UNL     1     -11.068   5.224  68.794  1.00  0.00     0.186 OA 
HETATM    8  C   UNL     1     -10.330   5.514  70.881  1.00  0.00    -0.310 C  
HETATM    9  C   UNL     1      -9.874   2.714  70.220  1.00  0.00     0.141 C  
HETATM   10  C   UNL     1      -7.897   6.282  68.306  1.00  0.00    -0.105 C  
HETATM   11  H   UNL     1     -11.711   5.124  68.102  1.00  0.00     0.000 HD 
HETATM   12  C   UNL     1     -10.047   7.083  70.120  1.00  0.00    -0.197 C  
HETATM   13  C   UNL     1      -8.649   7.452  69.262  1.00  0.00    -0.137 C  
HETATM   14  C   UNL     1      -8.611   8.811  68.555  1.00  0.00    -0.134 A  
HETATM   15  C   UNL     1      -7.579   9.091  67.631  1.00  0.00    -0.093 A  
HETATM   16  C   UNL     1      -7.460  10.383  67.088  1.00  0.00    -0.092 A  
HETATM   17  C   UNL     1      -6.577   8.063  67.153  1.00  0.00    -0.057 C  
HETATM   18  C   UNL     1      -6.490   6.796  67.995  1.00  0.00    -0.053 C  
HETATM   19  C   UNL     1      -8.330  11.405  67.454  1.00  0.00    -0.144 A  
HETATM   20  C   UNL     1      -9.300  11.152  68.417  1.00  0.00    -0.185 A  
ENDROOT
BRANCH   4  21
HETATM   21  C   UNL     1      -9.643   3.947  67.596  1.00  0.00    -0.205 C  
HETATM   22  C   UNL     1      -9.650   3.165  66.679  1.00  0.00     0.006 C  
ENDBRANCH   4  21
BRANCH  19  23
HETATM   23  O   UNL     1      -8.300  12.675  66.941  1.00  0.00    -0.161 OA 
BRANCH  23  24
HETATM   24  C   UNL     1      -7.568  13.632  67.707  1.00  0.00    -0.164 C  
HETATM   25  C   UNL     1      -8.469  14.632  68.433  1.00  0.00    -0.160 C  
HETATM   26  C   UNL     1      -7.567  15.176  69.521  1.00  0.00    -0.207 C  
HETATM   27  C   UNL     1      -6.775  13.964  69.995  1.00  0.00     0.088 C  
HETATM   28  C   UNL     1      -6.839  12.937  68.861  1.00  0.00    -0.095 C  
ENDBRANCH  23  24
ENDBRANCH  19  23
TORSDOF 3
ENDMDL
MODEL      125
REMARK 921   NORMALIZED FREE ENERGY PREDICTED BY IDOCK:   -1.65 KCAL/MOL
REMARK 922        TOTAL FREE ENERGY PREDICTED BY IDOCK:   -2.31 KCAL/MOL
REMARK 923 INTER-LIGAND FREE ENERGY PREDICTED BY IDOCK:   -3.39 KCAL/MOL
REMARK 924 INTRA-LIGAND FREE ENERGY PREDICTED BY IDOCK:    1.08 KCAL/MOL
REMARK 927      BINDING AFFINITY PREDICTED BY RF-SCORE:    0.00 PKD
ROOT
HETATM    1  C   UNL     1     -10.486   9.185  71.403  1.00  0.00    -0.414 C  
HETATM    2  C   UNL     1     -11.261  10.188  70.775  1.00  0.00    -0.414 C  
HETATM    3  C   UNL     1     -11.550   8.793  70.350  1.00  0.00    -0.105 C  
HETATM    4  C   UNL     1     -10.632   7.336  71.478  1.00  0.00    -0.203 C  
HETATM    5  C   UNL     1     -11.892   7.851  71.628  1.00  0.00    -0.325 C  
HETATM    6  C   UNL     1      -8.676   6.252  67.053  1.00  0.00    -0.108 A  
HETATM    7  O   UNL     1     -10.807   5.919  71.479  1.00  0.00    -0.250 OA 
HETATM    8  C   UNL     1     -12.363   6.803  70.144  1.00  0.00     0.152 C  
HETATM    9  C   UNL     1     -12.823   7.904  72.801  1.00  0.00     0.305 C  
HETATM   10  C   UNL     1      -9.220   8.609  70.190  1.00  0.00    -0.165 C  
HETATM   11  H   UNL     1     -10.383   5.247  71.999  1.00  0.00     0.000 HD 
HETATM   12  C   UNL     1     -10.983   6.562  69.068  1.00  0.00    -0.378 C  
HETATM   13  C   UNL     1      -9.756   7.694  68.875  1.00  0.00    -0.156 C  
HETATM   14  C   UNL     1      -8.565   7.282  68.004  1.00  0.00    -0.125 A  
HETATM   15  C   UNL     1      -7.399   8.080  67.986  1.00  0.00    -0.096 A  
HETATM   16  C   UNL     1      -6.363   7.783  67.084  1.00  0.00    -0.055 A  
HETATM   17  C   UNL     1      -7.171   9.254  68.913  1.00  0.00    -0.073 C  
HETATM   18  C   UNL     1      -8.415   9.778  69.621  1.00  0.00    -0.194 C  
HETATM   19  C   UNL     1      -6.465   6.724  66.187  1.00  0.00    -0.050 A  
HETATM   20  C   UNL     1      -7.639   5.982  66.152  1.00  0.00    -0.087 A  
ENDROOT
BRANCH   4  21
HETATM   21  C   UNL     1      -9.948   7.476  72.871  1.00  0.00    -0.303 C  
HETATM   22  C   UNL     1      -9.444   7.543  73.963  1.00  0.00    -0.212 C  
ENDBRANCH   4  21
BRANCH  19  23
HETATM   23  O   UNL     1      -5.484   6.351  65.307  1.00  0.00    -0.017 OA 
BRANCH  23  24
HETATM   24  C   UNL     1      -5.316   4.944  65.131  1.00  0.00    -0.013 C  
HETATM   25  C   UNL     1      -5.249   4.179  66.453  1.00  0.00    -0.009 C  
HETATM   26  C   UNL     1      -5.580   2.759  66.043  1.00  0.00    -0.017 C  
HETATM   27  C   UNL     1      -6.673   2.916  64.993  1.00  0.00    -0.040 C  
HETATM   28  C   UNL     1      -6.556   4.346  64.459  1.00  0.00    -0.043 C  
ENDBRANCH  23  24
ENDBRANCH  19  23
TORSDOF 3
ENDMDL
MODEL      126
REMARK 921   NORMALIZED FREE ENERGY PREDICTED BY IDOCK:   -1.44 KCAL/MOL
REMARK 922        TOTAL FREE ENERGY PREDICTED BY IDOCK:   -2.07 KCAL/MOL
REMARK 923 INTER-LIGAND FREE ENERGY PREDICTED BY IDOCK:   -1.73 KCAL/MOL
REMARK 924 INTRA-LIGAND FREE ENERGY PREDICTED BY IDOCK:   -0.34 KCAL/MOL
REMARK 927      BINDING AFFINITY PREDICTED BY RF-SCORE:    0.00 PKD
ROOT
HETATM    1  C   UNL     1      -8.142  19.221  67.298  1.00  0.00    -0.291 C  
HETATM    2  C   UNL     1      -8.230  19.549  65.924  1.00  0.00    -0.174 C  
HETATM    3  C   UNL     1      -9.484  19.049  66.547  1.00  0.00    -0.375 C  
HETATM    4  C   UNL     1      -9.419  18.860  68.596  1.00  0.00    -0.378 C  
HETATM    5  C   UNL     1      -9.874  19.922  67.859  1.00  0.00    -0.529 C  
HETATM    6  C   UNL     1     -10.387  14.146  67.404  1.00  0.00    -0.256 A  
HETATM    7  O   UNL     1     -10.460  18.584  69.533  1.00  0.00    -0.310 OA 
HETATM    8  C   UNL     1     -11.400  18.880  67.529  1.00  0.00     0.377 C  
HETATM    9  C   UNL     1     -10.047  21.373  68.189  1.00  0.00     0.921 C  
HETATM   10  C   UNL     1      -8.100  17.381  67.436  1.00  0.00    -0.213 C  
HETATM   11  H   UNL     1     -10.430  18.497  70.478  1.00  0.00     0.000 HD 
HETATM   12  C   UNL     1     -11.014  17.156  67.556  1.00  0.00    -0.108 C  
HETATM   13  C   UNL     1      -9.522  16.538  67.090  1.00  0.00    -0.246 C  
HETATM   14  C   UNL     1      -9.303  15.035  67.292  1.00  0.00    -0.209 A  
HETATM   15  C   UNL     1      -8.008  14.490  67.146  1.00  0.00    -0.167 A  
HETATM   16  C   UNL     1      -7.827  13.096  67.190  1.00  0.00    -0.061 A  
HETATM   17  C   UNL     1      -6.760  15.326  66.961  1.00  0.00     0.302 C  
HETATM   18  C   UNL     1      -7.000  16.777  66.562  1.00  0.00    -0.224 C  
HETATM   19  C   UNL     1      -8.905  12.232  67.359  1.00  0.00    -0.185 A  
HETATM   20  C   UNL     1     -10.188  12.760  67.430  1.00  0.00    -0.222 A  
ENDROOT
BRANCH   4  21
HETATM   21  C   UNL     1      -8.376  19.450  69.591  1.00  0.00     0.404 C  
HETATM   22  C   UNL     1      -7.605  19.936  70.379  1.00  0.00     0.839 C  
ENDBRANCH   4  21
BRANCH  19  23
HETATM   23  O   UNL     1      -8.803  10.869  67.450  1.00  0.00    -0.133 OA 
BRANCH  23  24
HETATM   24  C   UNL     1      -8.047  10.380  68.558  1.00  0.00    -0.116 C  
HETATM   25  C   UNL     1      -8.853   9.458  69.473  1.00  0.00    -0.165 C  
HETATM   26  C   UNL     1      -7.779   8.696  70.222  1.00  0.00    -0.083 C  
HETATM   27  C   UNL     1      -6.705   8.432  69.174  1.00  0.00    -0.047 C  
HETATM   28  C   UNL     1      -6.922   9.463  68.064  1.00  0.00    -0.079 C  
ENDBRANCH  23  24
ENDBRANCH  19  23
TORSDOF 3
ENDMDL
MODEL      127
REMARK 921   NORMALIZED FREE ENERGY PREDICTED BY IDOCK:   -1.23 KCAL/MOL
REMARK 922        TOTAL FREE ENERGY PREDICTED BY IDOCK:   -1.83 KCAL/MOL
REMARK 923 INTER-LIGAND FREE ENERGY PREDICTED BY IDOCK:   -2.78 KCAL/MOL
REMARK 924 INTRA-LIGAND FREE ENERGY PREDICTED BY IDOCK:    0.95 KCAL/MOL
REMARK 927      BINDING AFFINITY PREDICTED BY RF-SCORE:    0.00 PKD
ROOT
HETATM    1  C   UNL     1     -10.087   9.577  66.570  1.00  0.00    -0.326 C  
HETATM    2  C   UNL     1     -11.221  10.076  67.253  1.00  0.00     0.058 C  
HETATM    3  C   UNL     1      -9.945  10.793  67.516  1.00  0.00    -0.203 C  
HETATM    4  C   UNL     1      -8.378  10.247  66.298  1.00  0.00    -0.134 C  
HETATM    5  C   UNL     1      -9.255  11.285  66.131  1.00  0.00    -0.222 C  
HETATM    6  C   UNL     1      -6.405   9.070  70.691  1.00  0.00    -0.049 A  
HETATM    7  O   UNL     1      -7.082  10.826  66.142  1.00  0.00    -0.130 OA 
HETATM    8  C   UNL     1      -8.277  12.164  67.471  1.00  0.00    -0.167 C  
HETATM    9  C   UNL     1      -9.678  12.059  64.919  1.00  0.00    -0.128 C  
HETATM   10  C   UNL     1      -9.064   8.639  67.787  1.00  0.00    -0.143 C  
HETATM   11  H   UNL     1      -6.359  10.574  65.580  1.00  0.00     0.000 HD 
HETATM   12  C   UNL     1      -7.550  11.009  68.592  1.00  0.00    -0.124 C  
HETATM   13  C   UNL     1      -8.247   9.526  68.968  1.00  0.00    -0.113 C  
HETATM   14  C   UNL     1      -7.429   8.585  69.859  1.00  0.00    -0.063 A  
HETATM   15  C   UNL     1      -7.840   7.243  70.023  1.00  0.00    -0.111 A  
HETATM   16  C   UNL     1      -7.176   6.417  70.948  1.00  0.00    -0.071 A  
HETATM   17  C   UNL     1      -8.964   6.605  69.236  1.00  0.00    -0.135 C  
HETATM   18  C   UNL     1      -9.891   7.579  68.517  1.00  0.00    -0.170 C  
HETATM   19  C   UNL     1      -6.126   6.898  71.723  1.00  0.00    -0.038 A  
HETATM   20  C   UNL     1      -5.766   8.236  71.617  1.00  0.00    -0.037 A  
ENDROOT
BRANCH   4  21
HETATM   21  C   UNL     1      -8.421   9.437  64.967  1.00  0.00    -0.171 C  
HETATM   22  C   UNL     1      -8.404   8.804  63.942  1.00  0.00    -0.145 C  
ENDBRANCH   4  21
BRANCH  19  23
HETATM   23  O   UNL     1      -5.407   6.145  72.615  1.00  0.00    -0.029 OA 
BRANCH  23  24
HETATM   24  C   UNL     1      -5.646   4.738  72.566  1.00  0.00    -0.008 C  
HETATM   25  C   UNL     1      -7.132   4.384  72.532  1.00  0.00    -0.066 C  
HETATM   26  C   UNL     1      -7.134   2.971  71.986  1.00  0.00    -0.038 C  
HETATM   27  C   UNL     1      -6.048   2.980  70.917  1.00  0.00    -0.018 C  
HETATM   28  C   UNL     1      -5.133   4.163  71.242  1.00  0.00     0.000 C  
ENDBRANCH  23  24
ENDBRANCH  19  23
TORSDOF 3
ENDMDL
MODEL      128
REMARK 921   NORMALIZED FREE ENERGY PREDICTED BY IDOCK:   -1.02 KCAL/MOL
REMARK 922        TOTAL FREE ENERGY PREDICTED BY IDOCK:   -1.58 KCAL/MOL
REMARK 923 INTER-LIGAND FREE ENERGY PREDICTED BY IDOCK:   -1.21 KCAL/MOL
REMARK 924 INTRA-LIGAND FREE ENERGY PREDICTED BY IDOCK:   -0.37 KCAL/MOL
REMARK 927      BINDING AFFINITY PREDICTED BY RF-SCORE:    0.00 PKD
ROOT
HETATM    1  C   UNL     1      -7.075  12.436  69.674  1.00  0.00     0.359 C  
HETATM    2  C   UNL     1      -5.984  12.492  70.574  1.00  0.00    -0.044 C  
HETATM    3  C   UNL     1      -5.633  12.577  69.132  1.00  0.00    -0.072 C  
HETATM    4  C   UNL     1      -7.237  12.793  67.861  1.00  0.00    -0.120 C  
HETATM    5  C   UNL     1      -6.450  13.775  68.400  1.00  0.00    -0.099 C  
HETATM    6  C   UNL     1      -5.401   8.539  66.094  1.00  0.00    -0.034 A  
HETATM    7  O   UNL     1      -7.277  13.076  66.462  1.00  0.00     0.019 OA 
HETATM    8  C   UNL     1      -5.158  13.261  67.140  1.00  0.00     0.470 C  
HETATM    9  C   UNL     1      -6.687  15.235  68.640  1.00  0.00    -0.101 C  
HETATM   10  C   UNL     1      -7.089  10.756  68.910  1.00  0.00    -0.082 C  
HETATM   11  H   UNL     1      -8.017  13.175  65.875  1.00  0.00     0.000 HD 
HETATM   12  C   UNL     1      -5.313  11.551  66.727  1.00  0.00    -0.127 C  
HETATM   13  C   UNL     1      -5.864  10.388  67.808  1.00  0.00    -0.044 C  
HETATM   14  C   UNL     1      -6.062   8.972  67.258  1.00  0.00    -0.058 A  
HETATM   15  C   UNL     1      -6.739   8.006  68.036  1.00  0.00    -0.065 A  
HETATM   16  C   UNL     1      -6.798   6.671  67.597  1.00  0.00    -0.080 A  
HETATM   17  C   UNL     1      -7.445   8.319  69.337  1.00  0.00    -0.090 C  
HETATM   18  C   UNL     1      -7.078   9.656  69.973  1.00  0.00    -0.104 C  
HETATM   19  C   UNL     1      -6.187   6.271  66.413  1.00  0.00    -0.037 A  
HETATM   20  C   UNL     1      -5.459   7.202  65.682  1.00  0.00    -0.028 A  
ENDROOT
BRANCH   4  21
HETATM   21  C   UNL     1      -8.704  13.185  68.208  1.00  0.00    -0.165 C  
HETATM   22  C   UNL     1      -9.853  13.468  68.434  1.00  0.00    -0.225 C  
ENDBRANCH   4  21
BRANCH  19  23
HETATM   23  O   UNL     1      -6.234   5.001  65.903  1.00  0.00    -0.032 OA 
BRANCH  23  24
HETATM   24  C   UNL     1      -7.036   4.836  64.733  1.00  0.00    -0.050 C  
HETATM   25  C   UNL     1      -6.824   3.486  64.048  1.00  0.00    -0.044 C  
HETATM   26  C   UNL     1      -8.071   3.332  63.202  1.00  0.00    -0.077 C  
HETATM   27  C   UNL     1      -9.190   3.884  64.079  1.00  0.00    -0.141 C  
HETATM   28  C   UNL     1      -8.519   4.790  65.114  1.00  0.00    -0.135 C  
ENDBRANCH  23  24
ENDBRANCH  19  23
TORSDOF 3
ENDMDL
MODEL      129
REMARK 921   NORMALIZED FREE ENERGY PREDICTED BY IDOCK:   -0.69 KCAL/MOL
REMARK 922        TOTAL FREE ENERGY PREDICTED BY IDOCK:   -1.19 KCAL/MOL
REMARK 923 INTER-LIGAND FREE ENERGY PREDICTED BY IDOCK:   -0.81 KCAL/MOL
REMARK 924 INTRA-LIGAND FREE ENERGY PREDICTED BY IDOCK:   -0.38 KCAL/MOL
REMARK 927      BINDING AFFINITY PREDICTED BY RF-SCORE:    0.00 PKD
ROOT
HETATM    1  C   UNL     1      -6.913  14.172  70.010  1.00  0.00     0.148 C  
HETATM    2  C   UNL     1      -5.793  14.170  70.875  1.00  0.00    -0.213 C  
HETATM    3  C   UNL     1      -5.500  14.445  69.443  1.00  0.00    -0.089 C  
HETATM    4  C   UNL     1      -7.159  14.736  68.260  1.00  0.00    -0.113 C  
HETATM    5  C   UNL     1      -6.395  15.682  68.890  1.00  0.00    -0.114 C  
HETATM    6  C   UNL     1      -5.208  10.818  65.930  1.00  0.00    -0.115 A  
HETATM    7  O   UNL     1      -7.264  15.183  66.908  1.00  0.00    -0.285 OA 
HETATM    8  C   UNL     1      -5.130  15.386  67.535  1.00  0.00     0.059 C  
HETATM    9  C   UNL     1      -6.685  17.090  69.313  1.00  0.00    -0.234 C  
HETATM   10  C   UNL     1      -6.884  12.597  69.048  1.00  0.00    -0.083 C  
HETATM   11  H   UNL     1      -8.029  15.317  66.362  1.00  0.00     0.000 HD 
HETATM   12  C   UNL     1      -5.227  13.732  66.922  1.00  0.00     1.465 C  
HETATM   13  C   UNL     1      -5.686  12.423  67.870  1.00  0.00    -0.086 C  
HETATM   14  C   UNL     1      -5.843  11.075  67.158  1.00  0.00    -0.064 A  
HETATM   15  C   UNL     1      -6.448   9.991  67.834  1.00  0.00    -0.059 A  
HETATM   16  C   UNL     1      -6.466   8.718  67.238  1.00  0.00    -0.058 A  
HETATM   17  C   UNL     1      -7.117  10.112  69.186  1.00  0.00    -0.073 C  
HETATM   18  C   UNL     1      -6.785  11.379  69.967  1.00  0.00     0.037 C  
HETATM   19  C   UNL     1      -5.882   8.493  65.995  1.00  0.00    -0.047 A  
HETATM   20  C   UNL     1      -5.224   9.539  65.360  1.00  0.00    -0.040 A  
ENDROOT
BRANCH   4  21
HETATM   21  C   UNL     1      -8.627  15.014  68.700  1.00  0.00    -0.174 C  
HETATM   22  C   UNL     1      -9.776  15.227  68.992  1.00  0.00    -0.234 C  
ENDBRANCH   4  21
BRANCH  19  23
HETATM   23  O   UNL     1      -5.894   7.293  65.335  1.00  0.00    -0.036 OA 
BRANCH  23  24
HETATM   24  C   UNL     1      -6.955   6.406  65.687  1.00  0.00    -0.057 C  
HETATM   25  C   UNL     1      -7.748   5.910  64.477  1.00  0.00    -0.098 C  
HETATM   26  C   UNL     1      -8.429   4.663  65.002  1.00  0.00    -0.133 C  
HETATM   27  C   UNL     1      -7.379   4.007  65.891  1.00  0.00    -0.076 C  
HETATM   28  C   UNL     1      -6.386   5.108  66.270  1.00  0.00    -0.039 C  
ENDBRANCH  23  24
ENDBRANCH  19  23
TORSDOF 3
ENDMDL
MODEL      130
REMARK 921   NORMALIZED FREE ENERGY PREDICTED BY IDOCK:   -0.34 KCAL/MOL
REMARK 922        TOTAL FREE ENERGY PREDICTED BY IDOCK:   -0.77 KCAL/MOL
REMARK 923 INTER-LIGAND FREE ENERGY PREDICTED BY IDOCK:   -0.59 KCAL/MOL
REMARK 924 INTRA-LIGAND FREE ENERGY PREDICTED BY IDOCK:   -0.19 KCAL/MOL
REMARK 927      BINDING AFFINITY PREDICTED BY RF-SCORE:    0.00 PKD
ROOT
HETATM    1  C   UNL     1      -6.238  13.326  68.820  1.00  0.00    -0.090 C  
HETATM    2  C   UNL     1      -5.389  13.066  67.717  1.00  0.00    -0.111 C  
HETATM    3  C   UNL     1      -6.847  13.011  67.433  1.00  0.00    -0.126 C  
HETATM    4  C   UNL     1      -8.054  13.678  68.961  1.00  0.00     0.206 C  
HETATM    5  C   UNL     1      -7.584  14.385  67.886  1.00  0.00    -0.158 C  
HETATM    6  C   UNL     1      -9.747   9.032  68.594  1.00  0.00    -0.168 A  
HETATM    7  O   UNL     1      -9.459  13.931  68.987  1.00  0.00    -0.404 OA 
HETATM    8  C   UNL     1      -8.882  13.477  66.878  1.00  0.00    -0.194 C  
HETATM    9  C   UNL     1      -7.387  15.853  67.657  1.00  0.00    -0.180 C  
HETATM   10  C   UNL     1      -6.941  11.714  69.382  1.00  0.00    -0.051 C  
HETATM   11  H   UNL     1     -10.016  14.239  69.692  1.00  0.00     0.000 HD 
HETATM   12  C   UNL     1      -9.226  11.886  67.565  1.00  0.00    -0.177 C  
HETATM   13  C   UNL     1      -8.082  10.969  68.385  1.00  0.00    -0.134 C  
HETATM   14  C   UNL     1      -8.572   9.669  69.031  1.00  0.00    -0.133 A  
HETATM   15  C   UNL     1      -7.731   8.970  69.927  1.00  0.00    -0.076 A  
HETATM   16  C   UNL     1      -8.119   7.709  70.410  1.00  0.00    -0.113 A  
HETATM   17  C   UNL     1      -6.412   9.510  70.435  1.00  0.00    -0.079 C  
HETATM   18  C   UNL     1      -5.841  10.685  69.649  1.00  0.00    -0.049 C  
HETATM   19  C   UNL     1      -9.314   7.117  70.011  1.00  0.00    -0.154 A  
HETATM   20  C   UNL     1     -10.109   7.768  69.075  1.00  0.00    -0.198 A  
ENDROOT
BRANCH   4  21
HETATM   21  C   UNL     1      -7.657  14.505  70.220  1.00  0.00     0.694 C  
HETATM   22  C   UNL     1      -7.301  15.135  71.183  1.00  0.00     1.872 C  
ENDBRANCH   4  21
BRANCH  19  23
HETATM   23  O   UNL     1      -9.776   5.911  70.467  1.00  0.00    -0.168 OA 
BRANCH  23  24
HETATM   24  C   UNL     1      -9.768   4.848  69.515  1.00  0.00    -0.195 C  
HETATM   25  C   UNL     1      -8.469   4.775  68.711  1.00  0.00    -0.087 C  
HETATM   26  C   UNL     1      -8.476   3.356  68.179  1.00  0.00    -0.103 C  
HETATM   27  C   UNL     1      -9.027   2.526  69.332  1.00  0.00    -0.168 C  
HETATM   28  C   UNL     1      -9.793   3.495  70.235  1.00  0.00    -0.043 C  
ENDBRANCH  23  24
ENDBRANCH  19  23
TORSDOF 3
ENDMDL
MODEL      131
REMARK 921   NORMALIZED FREE ENERGY PREDICTED BY IDOCK:   -0.33 KCAL/MOL
REMARK 922        TOTAL FREE ENERGY PREDICTED BY IDOCK:   -0.76 KCAL/MOL
REMARK 923 INTER-LIGAND FREE ENERGY PREDICTED BY IDOCK:   -1.07 KCAL/MOL
REMARK 924 INTRA-LIGAND FREE ENERGY PREDICTED BY IDOCK:    0.31 KCAL/MOL
REMARK 927      BINDING AFFINITY PREDICTED BY RF-SCORE:    0.00 PKD
ROOT
HETATM    1  C   UNL     1      -7.676   3.862  71.470  1.00  0.00    -0.061 C  
HETATM    2  C   UNL     1      -6.768   3.354  70.510  1.00  0.00    -0.033 C  
HETATM    3  C   UNL     1      -6.382   4.644  71.141  1.00  0.00    -0.019 C  
HETATM    4  C   UNL     1      -7.554   5.214  72.735  1.00  0.00    -0.097 C  
HETATM    5  C   UNL     1      -6.372   4.523  72.760  1.00  0.00    -0.033 C  
HETATM    6  C   UNL     1      -8.337   9.099  69.755  1.00  0.00    -0.136 A  
HETATM    7  O   UNL     1      -7.385   6.276  73.674  1.00  0.00    -0.087 OA 
HETATM    8  C   UNL     1      -5.543   6.172  72.416  1.00  0.00    -0.036 C  
HETATM    9  C   UNL     1      -5.765   3.608  73.780  1.00  0.00    -0.004 C  
HETATM   10  C   UNL     1      -8.597   5.258  70.689  1.00  0.00    -0.126 C  
HETATM   11  H   UNL     1      -7.926   6.539  74.409  1.00  0.00     0.000 HD 
HETATM   12  C   UNL     1      -6.610   7.244  71.502  1.00  0.00    -0.047 C  
HETATM   13  C   UNL     1      -7.749   6.689  70.399  1.00  0.00    -0.097 C  
HETATM   14  C   UNL     1      -8.683   7.736  69.783  1.00  0.00    -0.139 A  
HETATM   15  C   UNL     1      -9.807   7.320  69.035  1.00  0.00    -0.165 A  
HETATM   16  C   UNL     1     -10.583   8.272  68.352  1.00  0.00    -0.148 A  
HETATM   17  C   UNL     1     -10.261   5.880  68.931  1.00  0.00    -0.254 C  
HETATM   18  C   UNL     1      -9.234   4.839  69.363  1.00  0.00    -0.169 C  
HETATM   19  C   UNL     1     -10.260   9.625  68.381  1.00  0.00    -0.188 A  
HETATM   20  C   UNL     1      -9.114  10.030  69.056  1.00  0.00    -0.172 A  
ENDROOT
BRANCH   4  21
HETATM   21  C   UNL     1      -8.566   4.355  73.551  1.00  0.00    -0.096 C  
HETATM   22  C   UNL     1      -9.371   3.733  74.195  1.00  0.00    -0.106 C  
ENDBRANCH   4  21
BRANCH  19  23
HETATM   23  O   UNL     1     -10.988  10.614  67.775  1.00  0.00    -0.262 OA 
BRANCH  23  24
HETATM   24  C   UNL     1     -11.651  11.520  68.656  1.00  0.00    -0.313 C  
HETATM   25  C   UNL     1     -12.544  10.816  69.678  1.00  0.00    -0.041 C  
HETATM   26  C   UNL     1     -12.713  11.861  70.762  1.00  0.00    -0.242 C  
HETATM   27  C   UNL     1     -11.343  12.521  70.864  1.00  0.00     1.679 C  
HETATM   28  C   UNL     1     -10.627  12.237  69.542  1.00  0.00     0.322 C  
ENDBRANCH  23  24
ENDBRANCH  19  23
TORSDOF 3
ENDMDL
MODEL      132
REMARK 921   NORMALIZED FREE ENERGY PREDICTED BY IDOCK:   -0.29 KCAL/MOL
REMARK 922        TOTAL FREE ENERGY PREDICTED BY IDOCK:   -0.72 KCAL/MOL
REMARK 923 INTER-LIGAND FREE ENERGY PREDICTED BY IDOCK:   -1.53 KCAL/MOL
REMARK 924 INTRA-LIGAND FREE ENERGY PREDICTED BY IDOCK:    0.82 KCAL/MOL
REMARK 927      BINDING AFFINITY PREDICTED BY RF-SCORE:    0.00 PKD
ROOT
HETATM    1  C   UNL     1      -8.541  11.827  66.432  1.00  0.00    -0.113 C  
HETATM    2  C   UNL     1      -9.209  12.479  65.368  1.00  0.00     0.341 C  
HETATM    3  C   UNL     1     -10.044  11.557  66.183  1.00  0.00    -0.266 C  
HETATM    4  C   UNL     1      -9.139  10.852  67.892  1.00  0.00    -0.149 C  
HETATM    5  C   UNL     1      -9.965  11.936  67.760  1.00  0.00    -0.191 C  
HETATM    6  C   UNL     1      -9.985   6.531  65.611  1.00  0.00     0.829 A  
HETATM    7  O   UNL     1      -9.679  10.105  68.983  1.00  0.00    -0.184 OA 
HETATM    8  C   UNL     1     -11.371  10.698  67.653  1.00  0.00    -0.284 C  
HETATM    9  C   UNL     1     -10.148  13.168  68.593  1.00  0.00    -0.146 C  
HETATM   10  C   UNL     1      -8.246  10.077  65.924  1.00  0.00    -0.128 C  
HETATM   11  H   UNL     1      -9.262   9.780  69.772  1.00  0.00     0.000 HD 
HETATM   12  C   UNL     1     -10.822   9.165  66.967  1.00  0.00    -0.056 C  
HETATM   13  C   UNL     1      -9.586   9.053  65.834  1.00  0.00    -0.317 C  
HETATM   14  C   UNL     1      -9.142   7.643  65.433  1.00  0.00     0.215 A  
HETATM   15  C   UNL     1      -7.963   7.469  64.672  1.00  0.00    -0.133 A  
HETATM   16  C   UNL     1      -7.630   6.193  64.183  1.00  0.00    -0.096 A  
HETATM   17  C   UNL     1      -6.995   8.587  64.355  1.00  0.00    -0.081 C  
HETATM   18  C   UNL     1      -7.532   9.997  64.574  1.00  0.00    -0.142 C  
HETATM   19  C   UNL     1      -8.447   5.092  64.417  1.00  0.00    -0.142 A  
HETATM   20  C   UNL     1      -9.642   5.273  65.103  1.00  0.00     0.174 A  
ENDROOT
BRANCH   4  21
HETATM   21  C   UNL     1      -7.855  11.380  68.598  1.00  0.00    -0.139 C  
HETATM   22  C   UNL     1      -6.835  11.771  69.105  1.00  0.00    -0.106 C  
ENDBRANCH   4  21
BRANCH  19  23
HETATM   23  O   UNL     1      -8.169   3.815  64.007  1.00  0.00    -0.089 OA 
BRANCH  23  24
HETATM   24  C   UNL     1      -8.075   2.840  65.046  1.00  0.00    -0.083 C  
HETATM   25  C   UNL     1      -6.640   2.386  65.314  1.00  0.00    -0.031 C  
HETATM   26  C   UNL     1      -6.722   1.796  66.706  1.00  0.00    -0.038 C  
HETATM   27  C   UNL     1      -7.669   2.727  67.454  1.00  0.00    -0.069 C  
HETATM   28  C   UNL     1      -8.487   3.458  66.386  1.00  0.00    -0.109 C  
ENDBRANCH  23  24
ENDBRANCH  19  23
TORSDOF 3
ENDMDL
MODEL      133
REMARK 921   NORMALIZED FREE ENERGY PREDICTED BY IDOCK:    0.23 KCAL/MOL
REMARK 922        TOTAL FREE ENERGY PREDICTED BY IDOCK:   -0.11 KCAL/MOL
REMARK 923 INTER-LIGAND FREE ENERGY PREDICTED BY IDOCK:   -0.28 KCAL/MOL
REMARK 924 INTRA-LIGAND FREE ENERGY PREDICTED BY IDOCK:    0.17 KCAL/MOL
REMARK 927      BINDING AFFINITY PREDICTED BY RF-SCORE:    0.00 PKD
ROOT
HETATM    1  C   UNL     1     -11.650  15.016  68.915  1.00  0.00    -0.349 C  
HETATM    2  C   UNL     1     -12.410  14.889  67.727  1.00  0.00     0.269 C  
HETATM    3  C   UNL     1     -12.578  13.793  68.719  1.00  0.00     0.488 C  
HETATM    4  C   UNL     1     -11.703  14.140  70.549  1.00  0.00    -0.216 C  
HETATM    5  C   UNL     1     -12.998  14.380  70.173  1.00  0.00    -0.019 C  
HETATM    6  C   UNL     1      -9.249  10.025  69.273  1.00  0.00    -0.212 A  
HETATM    7  O   UNL     1     -11.801  13.413  71.774  1.00  0.00     0.207 OA 
HETATM    8  C   UNL     1     -13.258  12.528  70.332  1.00  0.00     0.796 C  
HETATM    9  C   UNL     1     -14.046  15.306  70.712  1.00  0.00    -0.012 C  
HETATM   10  C   UNL     1     -10.237  13.833  68.809  1.00  0.00    -0.168 C  
HETATM   11  H   UNL     1     -11.397  13.572  72.619  1.00  0.00     0.000 HD 
HETATM   12  C   UNL     1     -11.763  11.644  70.006  1.00  0.00    -0.402 C  
HETATM   13  C   UNL     1     -10.586  12.186  68.936  1.00  0.00    -0.179 C  
HETATM   14  C   UNL     1      -9.292  11.369  68.861  1.00  0.00    -0.044 A  
HETATM   15  C   UNL     1      -8.175  11.888  68.167  1.00  0.00    -0.158 A  
HETATM   16  C   UNL     1      -7.037  11.084  67.976  1.00  0.00    -0.077 A  
HETATM   17  C   UNL     1      -8.106  13.296  67.619  1.00  0.00    -0.174 C  
HETATM   18  C   UNL     1      -9.443  14.022  67.516  1.00  0.00    -0.221 C  
HETATM   19  C   UNL     1      -6.990   9.774  68.440  1.00  0.00    -0.068 A  
HETATM   20  C   UNL     1      -8.113   9.236  69.059  1.00  0.00    -0.106 A  
ENDROOT
BRANCH   4  21
HETATM   21  C   UNL     1     -11.174  15.485  71.132  1.00  0.00    -0.423 C  
HETATM   22  C   UNL     1     -10.808  16.530  71.607  1.00  0.00     1.108 C  
ENDBRANCH   4  21
BRANCH  19  23
HETATM   23  O   UNL     1      -5.905   8.945  68.325  1.00  0.00    -0.041 OA 
BRANCH  23  24
HETATM   24  C   UNL     1      -5.970   7.988  67.268  1.00  0.00    -0.050 C  
HETATM   25  C   UNL     1      -7.378   7.825  66.693  1.00  0.00    -0.088 C  
HETATM   26  C   UNL     1      -7.123   7.202  65.336  1.00  0.00    -0.064 C  
HETATM   27  C   UNL     1      -5.873   7.909  64.827  1.00  0.00    -0.045 C  
HETATM   28  C   UNL     1      -5.170   8.483  66.059  1.00  0.00    -0.027 C  
ENDBRANCH  23  24
ENDBRANCH  19  23
TORSDOF 3
ENDMDL
MODEL      134
REMARK 921   NORMALIZED FREE ENERGY PREDICTED BY IDOCK:    0.26 KCAL/MOL
REMARK 922        TOTAL FREE ENERGY PREDICTED BY IDOCK:   -0.08 KCAL/MOL
REMARK 923 INTER-LIGAND FREE ENERGY PREDICTED BY IDOCK:   -0.52 KCAL/MOL
REMARK 924 INTRA-LIGAND FREE ENERGY PREDICTED BY IDOCK:    0.45 KCAL/MOL
REMARK 927      BINDING AFFINITY PREDICTED BY RF-SCORE:    0.00 PKD
ROOT
HETATM    1  C   UNL     1      -8.916  10.027  68.893  1.00  0.00    -0.152 C  
HETATM    2  C   UNL     1      -9.706  10.892  68.099  1.00  0.00    -0.174 C  
HETATM    3  C   UNL     1     -10.415   9.715  68.667  1.00  0.00    -0.235 C  
HETATM    4  C   UNL     1      -9.335   8.638  70.050  1.00  0.00    -0.162 C  
HETATM    5  C   UNL     1     -10.234   9.645  70.279  1.00  0.00    -0.333 C  
HETATM    6  C   UNL     1     -10.092   5.069  66.691  1.00  0.00    -0.276 A  
HETATM    7  O   UNL     1      -9.738   7.576  70.914  1.00  0.00    -0.173 OA 
HETATM    8  C   UNL     1     -11.565   8.375  69.910  1.00  0.00     0.289 C  
HETATM    9  C   UNL     1     -10.425  10.578  71.437  1.00  0.00     2.233 C  
HETATM   10  C   UNL     1      -8.556   8.517  67.893  1.00  0.00    -0.134 C  
HETATM   11  H   UNL     1      -9.240   7.079  71.552  1.00  0.00     0.000 HD 
HETATM   12  C   UNL     1     -10.979   7.144  68.786  1.00  0.00    -0.094 C  
HETATM   13  C   UNL     1      -9.833   7.454  67.596  1.00  0.00    -0.194 C  
HETATM   14  C   UNL     1      -9.336   6.251  66.786  1.00  0.00    -0.158 A  
HETATM   15  C   UNL     1      -8.214   6.393  65.939  1.00  0.00    -0.130 A  
HETATM   16  C   UNL     1      -7.843   5.336  65.090  1.00  0.00    -0.093 A  
HETATM   17  C   UNL     1      -7.344   7.630  65.895  1.00  0.00    -0.074 C  
HETATM   18  C   UNL     1      -7.948   8.875  66.536  1.00  0.00    -0.103 C  
HETATM   19  C   UNL     1      -8.569   4.150  65.050  1.00  0.00    -0.117 A  
HETATM   20  C   UNL     1      -9.715   4.034  65.828  1.00  0.00    -0.192 A  
ENDROOT
BRANCH   4  21
HETATM   21  C   UNL     1      -8.033   9.052  70.799  1.00  0.00    -0.172 C  
HETATM   22  C   UNL     1      -7.050   9.413  71.393  1.00  0.00     0.109 C  
ENDBRANCH   4  21
BRANCH  19  23
HETATM   23  O   UNL     1      -8.247   3.064  64.279  1.00  0.00    -0.082 OA 
BRANCH  23  24
HETATM   24  C   UNL     1      -9.232   2.674  63.322  1.00  0.00    -0.095 C  
HETATM   25  C   UNL     1     -10.409   1.924  63.946  1.00  0.00    -0.003 C  
HETATM   26  C   UNL     1     -11.498   2.068  62.903  1.00  0.00    -0.099 C  
HETATM   27  C   UNL     1     -11.336   3.492  62.385  1.00  0.00     0.236 C  
HETATM   28  C   UNL     1      -9.904   3.913  62.722  1.00  0.00    -0.146 C  
ENDBRANCH  23  24
ENDBRANCH  19  23
TORSDOF 3
ENDMDL
MODEL      135
REMARK 921   NORMALIZED FREE ENERGY PREDICTED BY IDOCK:    0.37 KCAL/MOL
REMARK 922        TOTAL FREE ENERGY PREDICTED BY IDOCK:    0.05 KCAL/MOL
REMARK 923 INTER-LIGAND FREE ENERGY PREDICTED BY IDOCK:   -0.07 KCAL/MOL
REMARK 924 INTRA-LIGAND FREE ENERGY PREDICTED BY IDOCK:    0.12 KCAL/MOL
REMARK 927      BINDING AFFINITY PREDICTED BY RF-SCORE:    0.00 PKD
ROOT
HETATM    1  C   UNL     1     -11.650  15.016  68.915  1.00  0.00    -0.349 C  
HETATM    2  C   UNL     1     -12.407  14.901  67.724  1.00  0.00     0.269 C  
HETATM    3  C   UNL     1     -12.587  13.802  68.709  1.00  0.00     0.488 C  
HETATM    4  C   UNL     1     -11.716  14.132  70.545  1.00  0.00    -0.216 C  
HETATM    5  C   UNL     1     -13.007  14.385  70.166  1.00  0.00    -0.019 C  
HETATM    6  C   UNL     1      -9.292  10.003  69.255  1.00  0.00    -0.224 A  
HETATM    7  O   UNL     1     -11.824  13.399  71.765  1.00  0.00     0.207 OA 
HETATM    8  C   UNL     1     -13.283  12.535  70.313  1.00  0.00     0.969 C  
HETATM    9  C   UNL     1     -14.049  15.317  70.706  1.00  0.00    -0.012 C  
HETATM   10  C   UNL     1     -10.247  13.822  68.807  1.00  0.00    -0.168 C  
HETATM   11  H   UNL     1     -11.421  13.551  72.612  1.00  0.00     0.000 HD 
HETATM   12  C   UNL     1     -11.795  11.639  69.988  1.00  0.00    -0.435 C  
HETATM   13  C   UNL     1     -10.610  12.177  68.925  1.00  0.00    -0.179 C  
HETATM   14  C   UNL     1      -9.322  11.350  68.850  1.00  0.00    -0.044 A  
HETATM   15  C   UNL     1      -8.199  11.862  68.163  1.00  0.00    -0.158 A  
HETATM   16  C   UNL     1      -7.067  11.050  67.970  1.00  0.00    -0.077 A  
HETATM   17  C   UNL     1      -8.116  13.273  67.622  1.00  0.00    -0.174 C  
HETATM   18  C   UNL     1      -9.446  14.011  67.518  1.00  0.00    -0.221 C  
HETATM   19  C   UNL     1      -7.032   9.737  68.429  1.00  0.00    -0.068 A  
HETATM   20  C   UNL     1      -8.162   9.206  69.040  1.00  0.00    -0.115 A  
ENDROOT
BRANCH   4  21
HETATM   21  C   UNL     1     -11.177  15.469  71.136  1.00  0.00    -0.423 C  
HETATM   22  C   UNL     1     -10.804  16.509  71.617  1.00  0.00     1.108 C  
ENDBRANCH   4  21
BRANCH  19  23
HETATM   23  O   UNL     1      -5.954   8.900  68.313  1.00  0.00    -0.041 OA 
BRANCH  23  24
HETATM   24  C   UNL     1      -5.246   8.636  69.524  1.00  0.00    -0.031 C  
HETATM   25  C   UNL     1      -5.597   9.611  70.647  1.00  0.00    -0.053 C  
HETATM   26  C   UNL     1      -5.160   8.869  71.893  1.00  0.00    -0.042 C  
HETATM   27  C   UNL     1      -5.546   7.420  71.622  1.00  0.00    -0.036 C  
HETATM   28  C   UNL     1      -5.679   7.286  70.104  1.00  0.00    -0.024 C  
ENDBRANCH  23  24
ENDBRANCH  19  23
TORSDOF 3
ENDMDL
MODEL      136
REMARK 921   NORMALIZED FREE ENERGY PREDICTED BY IDOCK:    0.74 KCAL/MOL
REMARK 922        TOTAL FREE ENERGY PREDICTED BY IDOCK:    0.49 KCAL/MOL
REMARK 923 INTER-LIGAND FREE ENERGY PREDICTED BY IDOCK:    0.72 KCAL/MOL
REMARK 924 INTRA-LIGAND FREE ENERGY PREDICTED BY IDOCK:   -0.23 KCAL/MOL
REMARK 927      BINDING AFFINITY PREDICTED BY RF-SCORE:    0.00 PKD
ROOT
HETATM    1  C   UNL     1      -8.757  13.207  68.536  1.00  0.00    -0.049 C  
HETATM    2  C   UNL     1      -8.476  13.472  69.898  1.00  0.00     2.157 C  
HETATM    3  C   UNL     1      -7.321  13.016  69.079  1.00  0.00     0.057 C  
HETATM    4  C   UNL     1      -7.678  12.922  67.054  1.00  0.00     0.037 C  
HETATM    5  C   UNL     1      -7.127  13.953  67.768  1.00  0.00    -0.181 C  
HETATM    6  C   UNL     1      -6.525   8.169  67.870  1.00  0.00    -0.053 A  
HETATM    7  O   UNL     1      -6.780  12.702  65.966  1.00  0.00     0.949 OA 
HETATM    8  C   UNL     1      -5.565  12.916  67.827  1.00  0.00    -0.130 C  
HETATM    9  C   UNL     1      -7.011  15.421  67.486  1.00  0.00    -0.223 C  
HETATM   10  C   UNL     1      -8.809  11.375  68.318  1.00  0.00    -0.167 C  
HETATM   11  H   UNL     1      -6.944  12.659  65.032  1.00  0.00     0.000 HD 
HETATM   12  C   UNL     1      -5.941  11.191  67.773  1.00  0.00    -0.047 C  
HETATM   13  C   UNL     1      -7.348  10.534  68.417  1.00  0.00    -0.086 C  
HETATM   14  C   UNL     1      -7.586   9.040  68.177  1.00  0.00    -0.092 A  
HETATM   15  C   UNL     1      -8.844   8.472  68.480  1.00  0.00    -0.139 A  
HETATM   16  C   UNL     1      -9.022   7.080  68.396  1.00  0.00    -0.122 A  
HETATM   17  C   UNL     1     -10.057   9.284  68.881  1.00  0.00    -0.207 C  
HETATM   18  C   UNL     1      -9.770  10.718  69.310  1.00  0.00    -0.142 C  
HETATM   19  C   UNL     1      -7.975   6.238  68.034  1.00  0.00    -0.108 A  
HETATM   20  C   UNL     1      -6.718   6.784  67.806  1.00  0.00    -0.068 A  
ENDROOT
BRANCH   4  21
HETATM   21  C   UNL     1      -8.856  13.545  66.247  1.00  0.00     0.227 C  
HETATM   22  C   UNL     1      -9.792  13.985  65.630  1.00  0.00    -0.255 C  
ENDBRANCH   4  21
BRANCH  19  23
HETATM   23  O   UNL     1      -8.082   4.879  67.893  1.00  0.00    -0.093 OA 
BRANCH  23  24
HETATM   24  C   UNL     1      -8.445   4.421  66.591  1.00  0.00    -0.105 C  
HETATM   25  C   UNL     1      -7.237   4.156  65.692  1.00  0.00    -0.072 C  
HETATM   26  C   UNL     1      -7.801   3.241  64.624  1.00  0.00    -0.078 C  
HETATM   27  C   UNL     1      -8.750   2.320  65.381  1.00  0.00    -0.119 C  
HETATM   28  C   UNL     1      -9.105   3.042  66.683  1.00  0.00    -0.171 C  
ENDBRANCH  23  24
ENDBRANCH  19  23
TORSDOF 3
ENDMDL
MODEL      137
REMARK 921   NORMALIZED FREE ENERGY PREDICTED BY IDOCK:    1.10 KCAL/MOL
REMARK 922        TOTAL FREE ENERGY PREDICTED BY IDOCK:    0.92 KCAL/MOL
REMARK 923 INTER-LIGAND FREE ENERGY PREDICTED BY IDOCK:    0.81 KCAL/MOL
REMARK 924 INTRA-LIGAND FREE ENERGY PREDICTED BY IDOCK:    0.11 KCAL/MOL
REMARK 927      BINDING AFFINITY PREDICTED BY RF-SCORE:    0.00 PKD
ROOT
HETATM    1  C   UNL     1     -11.078   8.995  71.533  1.00  0.00    -0.419 C  
HETATM    2  C   UNL     1     -11.491  10.214  70.943  1.00  0.00    -0.444 C  
HETATM    3  C   UNL     1     -12.356   9.037  70.662  1.00  0.00     0.046 C  
HETATM    4  C   UNL     1     -11.912   7.354  71.761  1.00  0.00    -0.305 C  
HETATM    5  C   UNL     1     -12.838   8.324  72.039  1.00  0.00    -0.369 C  
HETATM    6  C   UNL     1     -11.220   5.525  67.204  1.00  0.00     0.532 A  
HETATM    7  O   UNL     1     -12.618   6.119  71.887  1.00  0.00    -0.172 OA 
HETATM    8  C   UNL     1     -13.895   7.523  70.712  1.00  0.00     0.312 C  
HETATM    9  C   UNL     1     -13.487   8.755  73.319  1.00  0.00     0.883 C  
HETATM   10  C   UNL     1     -10.331   7.951  70.206  1.00  0.00    -0.212 C  
HETATM   11  H   UNL     1     -12.413   5.342  72.394  1.00  0.00     0.000 HD 
HETATM   12  C   UNL     1     -12.895   6.744  69.482  1.00  0.00     3.110 C  
HETATM   13  C   UNL     1     -11.371   7.302  69.045  1.00  0.00     0.213 C  
HETATM   14  C   UNL     1     -10.578   6.442  68.055  1.00  0.00    -0.315 A  
HETATM   15  C   UNL     1      -9.212   6.719  67.824  1.00  0.00    -0.111 A  
HETATM   16  C   UNL     1      -8.520   6.026  66.815  1.00  0.00    -0.110 A  
HETATM   17  C   UNL     1      -8.410   7.722  68.624  1.00  0.00    -0.129 C  
HETATM   18  C   UNL     1      -9.233   8.703  69.452  1.00  0.00    -0.150 C  
HETATM   19  C   UNL     1      -9.157   5.079  66.019  1.00  0.00    -0.146 A  
HETATM   20  C   UNL     1     -10.517   4.856  66.195  1.00  0.00    -0.346 A  
ENDROOT
BRANCH   4  21
HETATM   21  C   UNL     1     -11.025   7.234  73.036  1.00  0.00    -0.388 C  
HETATM   22  C   UNL     1     -10.342   7.092  74.018  1.00  0.00    -0.310 C  
ENDBRANCH   4  21
BRANCH  19  23
HETATM   23  O   UNL     1      -8.541   4.339  65.045  1.00  0.00    -0.117 OA 
BRANCH  23  24
HETATM   24  C   UNL     1      -7.881   3.155  65.495  1.00  0.00    -0.085 C  
HETATM   25  C   UNL     1      -6.557   2.898  64.776  1.00  0.00    -0.039 C  
HETATM   26  C   UNL     1      -5.834   1.956  65.717  1.00  0.00    -0.017 C  
HETATM   27  C   UNL     1      -6.172   2.482  67.107  1.00  0.00    -0.028 C  
HETATM   28  C   UNL     1      -7.445   3.318  66.954  1.00  0.00    -0.075 C  
ENDBRANCH  23  24
ENDBRANCH  19  23
TORSDOF 3
ENDMDL
MODEL      138
REMARK 921   NORMALIZED FREE ENERGY PREDICTED BY IDOCK:    2.03 KCAL/MOL
REMARK 922        TOTAL FREE ENERGY PREDICTED BY IDOCK:    2.01 KCAL/MOL
REMARK 923 INTER-LIGAND FREE ENERGY PREDICTED BY IDOCK:    2.02 KCAL/MOL
REMARK 924 INTRA-LIGAND FREE ENERGY PREDICTED BY IDOCK:   -0.01 KCAL/MOL
REMARK 927      BINDING AFFINITY PREDICTED BY RF-SCORE:    0.00 PKD
ROOT
HETATM    1  C   UNL     1     -12.862  15.733  70.608  1.00  0.00    -0.269 C  
HETATM    2  C   UNL     1     -14.043  15.561  69.847  1.00  0.00     2.366 C  
HETATM    3  C   UNL     1     -13.698  14.439  70.761  1.00  0.00     0.072 C  
HETATM    4  C   UNL     1     -12.155  14.829  72.067  1.00  0.00    -0.325 C  
HETATM    5  C   UNL     1     -13.501  14.965  72.284  1.00  0.00    -0.510 C  
HETATM    6  C   UNL     1     -10.195  10.956  69.670  1.00  0.00    -0.021 A  
HETATM    7  O   UNL     1     -11.673  14.076  73.180  1.00  0.00     0.773 OA 
HETATM    8  C   UNL     1     -13.539  13.096  72.444  1.00  0.00    -0.667 C  
HETATM    9  C   UNL     1     -14.283  15.791  73.261  1.00  0.00     0.625 C  
HETATM   10  C   UNL     1     -11.549  14.675  69.857  1.00  0.00    -0.333 C  
HETATM   11  H   UNL     1     -10.961  14.256  73.783  1.00  0.00     0.000 HD 
HETATM   12  C   UNL     1     -12.267  12.346  71.475  1.00  0.00     0.318 C  
HETATM   13  C   UNL     1     -11.696  13.002  70.037  1.00  0.00    -0.285 C  
HETATM   14  C   UNL     1     -10.502  12.298  69.382  1.00  0.00     0.279 A  
HETATM   15  C   UNL     1      -9.824  12.920  68.309  1.00  0.00    -0.228 A  
HETATM   16  C   UNL     1      -8.823  12.219  67.616  1.00  0.00    -0.175 A  
HETATM   17  C   UNL     1     -10.092  14.338  67.855  1.00  0.00    -0.233 C  
HETATM   18  C   UNL     1     -11.394  14.951  68.361  1.00  0.00    -0.320 C  
HETATM   19  C   UNL     1      -8.491  10.910  67.951  1.00  0.00    -0.129 A  
HETATM   20  C   UNL     1      -9.205  10.270  68.957  1.00  0.00    -0.188 A  
ENDROOT
BRANCH   4  21
HETATM   21  C   UNL     1     -11.524  16.204  72.439  1.00  0.00    -0.199 C  
HETATM   22  C   UNL     1     -11.047  17.258  72.774  1.00  0.00     2.013 C  
ENDBRANCH   4  21
BRANCH  19  23
HETATM   23  O   UNL     1      -7.503  10.177  67.347  1.00  0.00    -0.093 OA 
BRANCH  23  24
HETATM   24  C   UNL     1      -7.811   9.682  66.044  1.00  0.00    -0.102 C  
HETATM   25  C   UNL     1      -9.314   9.618  65.768  1.00  0.00    -0.286 C  
HETATM   26  C   UNL     1      -9.381   9.572  64.256  1.00  0.00    -0.077 C  
HETATM   27  C   UNL     1      -8.286  10.529  63.801  1.00  0.00    -0.068 C  
HETATM   28  C   UNL     1      -7.315  10.663  64.977  1.00  0.00     0.085 C  
ENDBRANCH  23  24
ENDBRANCH  19  23
TORSDOF 3
ENDMDL
MODEL      139
REMARK 921   NORMALIZED FREE ENERGY PREDICTED BY IDOCK:    2.23 KCAL/MOL
REMARK 922        TOTAL FREE ENERGY PREDICTED BY IDOCK:    2.24 KCAL/MOL
REMARK 923 INTER-LIGAND FREE ENERGY PREDICTED BY IDOCK:    2.18 KCAL/MOL
REMARK 924 INTRA-LIGAND FREE ENERGY PREDICTED BY IDOCK:    0.06 KCAL/MOL
REMARK 927      BINDING AFFINITY PREDICTED BY RF-SCORE:    0.00 PKD
ROOT
HETATM    1  C   UNL     1      -5.752  12.249  68.260  1.00  0.00    -0.057 C  
HETATM    2  C   UNL     1      -5.193  12.515  66.986  1.00  0.00     0.132 C  
HETATM    3  C   UNL     1      -6.634  12.851  67.140  1.00  0.00     0.109 C  
HETATM    4  C   UNL     1      -7.349  12.737  69.067  1.00  0.00     0.056 C  
HETATM    5  C   UNL     1      -6.873  13.838  68.407  1.00  0.00    -0.101 C  
HETATM    6  C   UNL     1     -10.321   9.395  66.926  1.00  0.00    -0.308 A  
HETATM    7  O   UNL     1      -8.603  13.145  69.614  1.00  0.00     0.673 OA 
HETATM    8  C   UNL     1      -8.514  13.851  67.497  1.00  0.00    -0.200 C  
HETATM    9  C   UNL     1      -6.307  15.137  68.897  1.00  0.00    -0.090 C  
HETATM   10  C   UNL     1      -6.784  10.726  68.114  1.00  0.00    -0.063 C  
HETATM   11  H   UNL     1      -8.934  13.092  70.503  1.00  0.00     0.000 HD 
HETATM   12  C   UNL     1      -9.183  12.221  67.363  1.00  0.00    -0.182 C  
HETATM   13  C   UNL     1      -8.230  10.841  67.250  1.00  0.00    -0.121 C  
HETATM   14  C   UNL     1      -8.961   9.495  67.268  1.00  0.00    -0.143 A  
HETATM   15  C   UNL     1      -8.222   8.298  67.414  1.00  0.00    -0.121 A  
HETATM   16  C   UNL     1      -8.871   7.057  67.289  1.00  0.00    -0.119 A  
HETATM   17  C   UNL     1      -6.742   8.257  67.725  1.00  0.00    -0.066 C  
HETATM   18  C   UNL     1      -5.992   9.567  67.506  1.00  0.00    -0.052 C  
HETATM   19  C   UNL     1     -10.231   6.977  67.007  1.00  0.00    -0.260 A  
HETATM   20  C   UNL     1     -10.945   8.149  66.792  1.00  0.00     0.421 A  
ENDROOT
BRANCH   4  21
HETATM   21  C   UNL     1      -6.543  12.657  70.398  1.00  0.00     0.679 C  
HETATM   22  C   UNL     1      -5.952  12.561  71.443  1.00  0.00     0.859 C  
ENDBRANCH   4  21
BRANCH  19  23
HETATM   23  O   UNL     1     -10.938   5.807  66.909  1.00  0.00    -0.279 OA 
BRANCH  23  24
HETATM   24  C   UNL     1     -11.067   5.062  68.119  1.00  0.00     1.298 C  
HETATM   25  C   UNL     1      -9.722   4.614  68.692  1.00  0.00    -0.217 C  
HETATM   26  C   UNL     1     -10.048   4.323  70.142  1.00  0.00    -0.078 C  
HETATM   27  C   UNL     1     -11.026   5.424  70.536  1.00  0.00    -0.101 C  
HETATM   28  C   UNL     1     -11.625   5.955  69.231  1.00  0.00     0.512 C  
ENDBRANCH  23  24
ENDBRANCH  19  23
TORSDOF 3
ENDMDL
MODEL      140
REMARK 921   NORMALIZED FREE ENERGY PREDICTED BY IDOCK:    2.31 KCAL/MOL
REMARK 922        TOTAL FREE ENERGY PREDICTED BY IDOCK:    2.34 KCAL/MOL
REMARK 923 INTER-LIGAND FREE ENERGY PREDICTED BY IDOCK:    0.88 KCAL/MOL
REMARK 924 INTRA-LIGAND FREE ENERGY PREDICTED BY IDOCK:    1.47 KCAL/MOL
REMARK 927      BINDING AFFINITY PREDICTED BY RF-SCORE:    0.00 PKD
ROOT
HETATM    1  C   UNL     1      -9.214   8.083  67.023  1.00  0.00    -0.181 C  
HETATM    2  C   UNL     1     -10.031   9.238  66.964  1.00  0.00    -0.286 C  
HETATM    3  C   UNL     1      -8.896   9.301  67.923  1.00  0.00    -0.124 C  
HETATM    4  C   UNL     1      -7.556   7.745  67.782  1.00  0.00    -0.113 C  
HETATM    5  C   UNL     1      -7.487   8.975  67.184  1.00  0.00    -0.087 C  
HETATM    6  C   UNL     1      -8.999   7.115  72.484  1.00  0.00    -0.147 A  
HETATM    7  O   UNL     1      -6.282   7.561  68.402  1.00  0.00    -0.034 OA 
HETATM    8  C   UNL     1      -6.983   9.629  68.869  1.00  0.00    -0.059 C  
HETATM    9  C   UNL     1      -6.756   9.463  65.970  1.00  0.00    -0.081 C  
HETATM   10  C   UNL     1      -9.634   7.175  68.574  1.00  0.00    -0.139 C  
HETATM   11  H   UNL     1      -5.664   6.843  68.337  1.00  0.00     0.000 HD 
HETATM   12  C   UNL     1      -7.677   8.653  70.168  1.00  0.00    -0.081 C  
HETATM   13  C   UNL     1      -9.157   7.867  70.038  1.00  0.00    -0.152 C  
HETATM   14  C   UNL     1      -9.560   6.957  71.204  1.00  0.00    -0.167 A  
HETATM   15  C   UNL     1     -10.666   6.089  71.065  1.00  0.00    -0.325 A  
HETATM   16  C   UNL     1     -11.125   5.359  72.176  1.00  0.00    -0.234 A  
HETATM   17  C   UNL     1     -11.401   5.866  69.762  1.00  0.00    -0.184 C  
HETATM   18  C   UNL     1     -11.136   6.904  68.677  1.00  0.00    -0.152 C  
HETATM   19  C   UNL     1     -10.521   5.484  73.423  1.00  0.00    -0.237 A  
HETATM   20  C   UNL     1      -9.480   6.390  73.581  1.00  0.00    -0.163 A  
ENDROOT
BRANCH   4  21
HETATM   21  C   UNL     1      -7.395   6.704  66.633  1.00  0.00    -0.078 C  
HETATM   22  C   UNL     1      -7.279   5.937  65.712  1.00  0.00    -0.075 C  
ENDBRANCH   4  21
BRANCH  19  23
HETATM   23  O   UNL     1     -10.886   4.779  74.540  1.00  0.00    -0.347 OA 
BRANCH  23  24
HETATM   24  C   UNL     1     -11.839   3.737  74.327  1.00  0.00     1.655 C  
HETATM   25  C   UNL     1     -12.595   3.878  73.005  1.00  0.00     1.090 C  
HETATM   26  C   UNL     1     -13.128   2.481  72.765  1.00  0.00     1.929 C  
HETATM   27  C   UNL     1     -11.997   1.565  73.217  1.00  0.00    -0.202 C  
HETATM   28  C   UNL     1     -11.122   2.393  74.161  1.00  0.00    -0.152 C  
ENDBRANCH  23  24
ENDBRANCH  19  23
TORSDOF 3
ENDMDL
MODEL      141
REMARK 921   NORMALIZED FREE ENERGY PREDICTED BY IDOCK:    3.41 KCAL/MOL
REMARK 922        TOTAL FREE ENERGY PREDICTED BY IDOCK:    3.63 KCAL/MOL
REMARK 923 INTER-LIGAND FREE ENERGY PREDICTED BY IDOCK:    3.54 KCAL/MOL
REMARK 924 INTRA-LIGAND FREE ENERGY PREDICTED BY IDOCK:    0.09 KCAL/MOL
REMARK 927      BINDING AFFINITY PREDICTED BY RF-SCORE:    0.00 PKD
ROOT
HETATM    1  C   UNL     1      -9.793  15.336  69.317  1.00  0.00    -0.255 C  
HETATM    2  C   UNL     1      -9.016  16.082  68.399  1.00  0.00    -0.188 C  
HETATM    3  C   UNL     1      -9.631  14.840  67.861  1.00  0.00    -0.210 C  
HETATM    4  C   UNL     1     -10.989  13.932  69.113  1.00  0.00    -0.218 C  
HETATM    5  C   UNL     1     -11.236  14.827  68.107  1.00  0.00    -0.307 C  
HETATM    6  C   UNL     1      -7.723  10.227  68.678  1.00  0.00    -0.094 A  
HETATM    7  O   UNL     1     -11.886  12.847  68.874  1.00  0.00    -0.302 OA 
HETATM    8  C   UNL     1     -10.939  13.397  66.928  1.00  0.00    -0.295 C  
HETATM    9  C   UNL     1     -12.384  15.754  67.844  1.00  0.00     0.954 C  
HETATM   10  C   UNL     1      -8.806  13.861  69.823  1.00  0.00     1.442 C  
HETATM   11  H   UNL     1     -12.513  12.428  69.452  1.00  0.00     0.000 HD 
HETATM   12  C   UNL     1      -9.814  12.223  67.620  1.00  0.00    -0.196 C  
HETATM   13  C   UNL     1      -8.577  12.644  68.676  1.00  0.00     0.046 C  
HETATM   14  C   UNL     1      -7.769  11.494  69.286  1.00  0.00     0.105 A  
HETATM   15  C   UNL     1      -6.877  11.752  70.352  1.00  0.00     1.011 A  
HETATM   16  C   UNL     1      -6.032  10.730  70.819  1.00  0.00    -0.048 A  
HETATM   17  C   UNL     1      -6.779  13.085  71.061  1.00  0.00     2.120 C  
HETATM   18  C   UNL     1      -7.421  14.261  70.333  1.00  0.00     0.968 C  
HETATM   19  C   UNL     1      -6.040   9.464  70.242  1.00  0.00    -0.049 A  
HETATM   20  C   UNL     1      -6.863   9.227  69.148  1.00  0.00    -0.050 A  
ENDROOT
BRANCH   4  21
HETATM   21  C   UNL     1     -11.680  14.517  70.381  1.00  0.00    -0.354 C  
HETATM   22  C   UNL     1     -12.254  14.939  71.353  1.00  0.00    -0.391 C  
ENDBRANCH   4  21
BRANCH  19  23
HETATM   23  O   UNL     1      -5.275   8.410  70.666  1.00  0.00    -0.022 OA 
BRANCH  23  24
HETATM   24  C   UNL     1      -5.986   7.199  70.928  1.00  0.00    -0.035 C  
HETATM   25  C   UNL     1      -6.142   6.317  69.689  1.00  0.00    -0.026 C  
HETATM   26  C   UNL     1      -6.435   4.952  70.277  1.00  0.00    -0.034 C  
HETATM   27  C   UNL     1      -5.531   4.867  71.500  1.00  0.00    -0.004 C  
HETATM   28  C   UNL     1      -5.176   6.308  71.875  1.00  0.00    -0.026 C  
ENDBRANCH  23  24
ENDBRANCH  19  23
TORSDOF 3
ENDMDL
MODEL      142
REMARK 921   NORMALIZED FREE ENERGY PREDICTED BY IDOCK:    4.16 KCAL/MOL
REMARK 922        TOTAL FREE ENERGY PREDICTED BY IDOCK:    4.52 KCAL/MOL
REMARK 923 INTER-LIGAND FREE ENERGY PREDICTED BY IDOCK:    4.59 KCAL/MOL
REMARK 924 INTRA-LIGAND FREE ENERGY PREDICTED BY IDOCK:   -0.07 KCAL/MOL
REMARK 927      BINDING AFFINITY PREDICTED BY RF-SCORE:    0.00 PKD
ROOT
HETATM    1  C   UNL     1     -12.864  10.811  69.591  1.00  0.00     0.275 C  
HETATM    2  C   UNL     1     -13.136  10.142  68.374  1.00  0.00     5.813 C  
HETATM    3  C   UNL     1     -11.806   9.864  68.978  1.00  0.00     0.337 C  
HETATM    4  C   UNL     1     -11.546  10.605  70.880  1.00  0.00    -0.217 C  
HETATM    5  C   UNL     1     -11.955   9.351  70.511  1.00  0.00    -0.154 C  
HETATM    6  C   UNL     1      -7.873  13.021  68.589  1.00  0.00    -0.050 A  
HETATM    7  O   UNL     1     -10.494  10.390  71.821  1.00  0.00     1.184 OA 
HETATM    8  C   UNL     1     -10.156   9.023  70.089  1.00  0.00    -0.220 C  
HETATM    9  C   UNL     1     -12.733   8.293  71.234  1.00  0.00    -0.209 C  
HETATM   10  C   UNL     1     -11.693  12.190  69.226  1.00  0.00    -0.386 C  
HETATM   11  H   UNL     1     -10.374  10.732  72.699  1.00  0.00     0.000 HD 
HETATM   12  C   UNL     1      -9.331  10.509  69.610  1.00  0.00    -0.010 C  
HETATM   13  C   UNL     1     -10.104  11.782  68.831  1.00  0.00    -0.088 C  
HETATM   14  C   UNL     1      -9.279  13.052  68.597  1.00  0.00     0.032 A  
HETATM   15  C   UNL     1      -9.920  14.235  68.165  1.00  0.00    -0.230 A  
HETATM   16  C   UNL     1      -9.151  15.359  67.815  1.00  0.00    -0.178 A  
HETATM   17  C   UNL     1     -11.423  14.390  68.071  1.00  0.00    -0.336 C  
HETATM   18  C   UNL     1     -12.216  13.088  68.104  1.00  0.00    -0.037 C  
HETATM   19  C   UNL     1      -7.761  15.329  67.867  1.00  0.00    -0.136 A  
HETATM   20  C   UNL     1      -7.125  14.146  68.222  1.00  0.00    -0.112 A  
ENDROOT
BRANCH   4  21
HETATM   21  C   UNL     1     -12.627  11.129  71.873  1.00  0.00    -0.163 C  
HETATM   22  C   UNL     1     -13.428  11.562  72.662  1.00  0.00     0.933 C  
ENDBRANCH   4  21
BRANCH  19  23
HETATM   23  O   UNL     1      -6.948  16.393  67.578  1.00  0.00    -0.123 OA 
BRANCH  23  24
HETATM   24  C   UNL     1      -7.393  17.659  68.066  1.00  0.00    -0.214 C  
HETATM   25  C   UNL     1      -6.259  18.671  68.227  1.00  0.00    -0.213 C  
HETATM   26  C   UNL     1      -6.986  20.000  68.245  1.00  0.00    -0.330 C  
HETATM   27  C   UNL     1      -8.088  19.839  67.206  1.00  0.00    -0.327 C  
HETATM   28  C   UNL     1      -8.299  18.333  67.030  1.00  0.00    -0.256 C  
ENDBRANCH  23  24
ENDBRANCH  19  23
TORSDOF 3
ENDMDL
MODEL      143
REMARK 921   NORMALIZED FREE ENERGY PREDICTED BY IDOCK:    5.29 KCAL/MOL
REMARK 922        TOTAL FREE ENERGY PREDICTED BY IDOCK:    5.84 KCAL/MOL
REMARK 923 INTER-LIGAND FREE ENERGY PREDICTED BY IDOCK:    4.98 KCAL/MOL
REMARK 924 INTRA-LIGAND FREE ENERGY PREDICTED BY IDOCK:    0.86 KCAL/MOL
REMARK 927      BINDING AFFINITY PREDICTED BY RF-SCORE:    0.00 PKD
ROOT
HETATM    1  C   UNL     1      -6.685  10.764  68.692  1.00  0.00    -0.058 C  
HETATM    2  C   UNL     1      -5.724  10.326  67.750  1.00  0.00    -0.044 C  
HETATM    3  C   UNL     1      -7.140  10.256  67.303  1.00  0.00    -0.088 C  
HETATM    4  C   UNL     1      -8.492  11.165  68.562  1.00  0.00    -0.156 C  
HETATM    5  C   UNL     1      -7.876  11.695  67.459  1.00  0.00    -0.137 C  
HETATM    6  C   UNL     1     -10.295   6.548  68.677  1.00  0.00    -0.216 A  
HETATM    7  O   UNL     1      -9.880  11.445  68.381  1.00  0.00    -0.192 OA 
HETATM    8  C   UNL     1      -9.079  10.671  66.447  1.00  0.00    -0.183 C  
HETATM    9  C   UNL     1      -7.600  13.109  67.044  1.00  0.00     0.123 C  
HETATM   10  C   UNL     1      -7.505   9.267  69.395  1.00  0.00    -0.078 C  
HETATM   11  H   UNL     1     -10.504  11.864  68.962  1.00  0.00     0.000 HD 
HETATM   12  C   UNL     1      -9.557   9.207  67.312  1.00  0.00    -0.200 C  
HETATM   13  C   UNL     1      -8.549   8.402  68.389  1.00  0.00    -0.139 C  
HETATM   14  C   UNL     1      -9.157   7.222  69.154  1.00  0.00    -0.137 A  
HETATM   15  C   UNL     1      -8.451   6.650  70.236  1.00  0.00    -0.135 A  
HETATM   16  C   UNL     1      -8.938   5.481  70.848  1.00  0.00    -0.153 A  
HETATM   17  C   UNL     1      -7.181   7.236  70.815  1.00  0.00    -0.069 C  
HETATM   18  C   UNL     1      -6.482   8.269  69.940  1.00  0.00    -0.039 C  
HETATM   19  C   UNL     1     -10.098   4.859  70.400  1.00  0.00    -0.245 A  
HETATM   20  C   UNL     1     -10.756   5.377  69.290  1.00  0.00    -0.198 A  
ENDROOT
BRANCH   4  21
HETATM   21  C   UNL     1      -8.214  12.164  69.725  1.00  0.00     1.845 C  
HETATM   22  C   UNL     1      -8.020  12.903  70.656  1.00  0.00     5.485 C  
ENDBRANCH   4  21
BRANCH  19  23
HETATM   23  O   UNL     1     -10.653   3.743  70.968  1.00  0.00     0.496 OA 
BRANCH  23  24
HETATM   24  C   UNL     1      -9.727   2.803  71.513  1.00  0.00    -0.155 C  
HETATM   25  C   UNL     1      -8.273   3.129  71.172  1.00  0.00    -0.077 C  
HETATM   26  C   UNL     1      -7.495   2.359  72.219  1.00  0.00    -0.044 C  
HETATM   27  C   UNL     1      -8.320   2.517  73.491  1.00  0.00    -0.063 C  
HETATM   28  C   UNL     1      -9.738   2.880  73.043  1.00  0.00    -0.165 C  
ENDBRANCH  23  24
ENDBRANCH  19  23
TORSDOF 3
ENDMDL
MODEL      144
REMARK 921   NORMALIZED FREE ENERGY PREDICTED BY IDOCK:    5.95 KCAL/MOL
REMARK 922        TOTAL FREE ENERGY PREDICTED BY IDOCK:    6.61 KCAL/MOL
REMARK 923 INTER-LIGAND FREE ENERGY PREDICTED BY IDOCK:    6.41 KCAL/MOL
REMARK 924 INTRA-LIGAND FREE ENERGY PREDICTED BY IDOCK:    0.20 KCAL/MOL
REMARK 927      BINDING AFFINITY PREDICTED BY RF-SCORE:    0.00 PKD
ROOT
HETATM    1  C   UNL     1      -8.131  16.843  68.597  1.00  0.00    -0.253 C  
HETATM    2  C   UNL     1      -7.581  17.737  67.647  1.00  0.00    -0.215 C  
HETATM    3  C   UNL     1      -8.946  17.233  67.341  1.00  0.00    -0.224 C  
HETATM    4  C   UNL     1      -9.843  16.178  68.865  1.00  0.00    -0.239 C  
HETATM    5  C   UNL     1      -9.963  17.511  68.576  1.00  0.00    -0.344 C  
HETATM    6  C   UNL     1      -9.834  12.658  65.373  1.00  0.00    -0.157 A  
HETATM    7  O   UNL     1     -11.183  15.704  68.998  1.00  0.00    -0.263 OA 
HETATM    8  C   UNL     1     -11.084  16.979  67.168  1.00  0.00     0.167 C  
HETATM    9  C   UNL     1     -10.363  18.689  69.412  1.00  0.00     0.343 C  
HETATM   10  C   UNL     1      -8.043  15.141  67.887  1.00  0.00    -0.144 C  
HETATM   11  H   UNL     1     -11.596  15.218  69.701  1.00  0.00     0.000 HD 
HETATM   12  C   UNL     1     -10.648  15.372  66.578  1.00  0.00    -0.306 C  
HETATM   13  C   UNL     1      -9.077  14.776  66.603  1.00  0.00    -0.300 C  
HETATM   14  C   UNL     1      -8.884  13.317  66.174  1.00  0.00     0.347 A  
HETATM   15  C   UNL     1      -7.641  12.681  66.391  1.00  0.00     0.915 A  
HETATM   16  C   UNL     1      -7.415  11.394  65.873  1.00  0.00     0.298 A  
HETATM   17  C   UNL     1      -6.509  13.297  67.185  1.00  0.00     0.354 C  
HETATM   18  C   UNL     1      -6.624  14.797  67.429  1.00  0.00    -0.016 C  
HETATM   19  C   UNL     1      -8.388  10.732  65.131  1.00  0.00    -0.064 A  
HETATM   20  C   UNL     1      -9.584  11.382  64.854  1.00  0.00    -0.244 A  
ENDROOT
BRANCH   4  21
HETATM   21  C   UNL     1      -9.431  16.105  70.366  1.00  0.00     1.290 C  
HETATM   22  C   UNL     1      -9.113  16.098  71.528  1.00  0.00     5.933 C  
ENDBRANCH   4  21
BRANCH  19  23
HETATM   23  O   UNL     1      -8.255   9.464  64.627  1.00  0.00    -0.130 OA 
BRANCH  23  24
HETATM   24  C   UNL     1      -9.255   8.531  65.037  1.00  0.00     0.290 C  
HETATM   25  C   UNL     1      -8.698   7.130  65.289  1.00  0.00     0.073 C  
HETATM   26  C   UNL     1      -9.760   6.491  66.160  1.00  0.00     0.015 C  
HETATM   27  C   UNL     1     -10.204   7.611  67.093  1.00  0.00    -0.360 C  
HETATM   28  C   UNL     1      -9.810   8.923  66.410  1.00  0.00    -0.353 C  
ENDBRANCH  23  24
ENDBRANCH  19  23
TORSDOF 3
ENDMDL
MODEL      145
REMARK 921   NORMALIZED FREE ENERGY PREDICTED BY IDOCK:    7.56 KCAL/MOL
REMARK 922        TOTAL FREE ENERGY PREDICTED BY IDOCK:    8.51 KCAL/MOL
REMARK 923 INTER-LIGAND FREE ENERGY PREDICTED BY IDOCK:    7.93 KCAL/MOL
REMARK 924 INTRA-LIGAND FREE ENERGY PREDICTED BY IDOCK:    0.58 KCAL/MOL
REMARK 927      BINDING AFFINITY PREDICTED BY RF-SCORE:    0.00 PKD
ROOT
HETATM    1  C   UNL     1     -12.781  11.273  69.201  1.00  0.00     0.622 C  
HETATM    2  C   UNL     1     -12.820  10.616  67.948  1.00  0.00     4.937 C  
HETATM    3  C   UNL     1     -11.473  10.744  68.566  1.00  0.00    -0.362 C  
HETATM    4  C   UNL     1     -11.473  11.429  70.507  1.00  0.00     0.095 C  
HETATM    5  C   UNL     1     -11.459  10.132  70.070  1.00  0.00    -0.344 C  
HETATM    6  C   UNL     1      -8.748  15.003  68.411  1.00  0.00    -0.175 A  
HETATM    7  O   UNL     1     -10.411  11.512  71.458  1.00  0.00     4.163 OA 
HETATM    8  C   UNL     1      -9.647  10.414  69.671  1.00  0.00    -0.142 C  
HETATM    9  C   UNL     1     -11.864   8.846  70.725  1.00  0.00    -0.230 C  
HETATM   10  C   UNL     1     -12.109  12.970  68.927  1.00  0.00    -0.207 C  
HETATM   11  H   UNL     1     -10.411  11.828  72.354  1.00  0.00     0.000 HD 
HETATM   12  C   UNL     1      -9.336  12.109  69.280  1.00  0.00     0.750 C  
HETATM   13  C   UNL     1     -10.469  13.108  68.546  1.00  0.00    -0.262 C  
HETATM   14  C   UNL     1     -10.091  14.585  68.391  1.00  0.00    -0.241 A  
HETATM   15  C   UNL     1     -11.073  15.524  68.002  1.00  0.00    -0.322 A  
HETATM   16  C   UNL     1     -10.700  16.850  67.722  1.00  0.00    -0.315 A  
HETATM   17  C   UNL     1     -12.546  15.198  67.884  1.00  0.00     0.993 C  
HETATM   18  C   UNL     1     -12.884  13.712  67.838  1.00  0.00     1.427 C  
HETATM   19  C   UNL     1      -9.373  17.261  67.802  1.00  0.00    -0.250 A  
HETATM   20  C   UNL     1      -8.395  16.324  68.114  1.00  0.00    -0.172 A  
ENDROOT
BRANCH   4  21
HETATM   21  C   UNL     1     -12.669  11.531  71.500  1.00  0.00    -0.439 C  
HETATM   22  C   UNL     1     -13.611  11.648  72.241  1.00  0.00    -0.007 C  
ENDBRANCH   4  21
BRANCH  19  23
HETATM   23  O   UNL     1      -8.940  18.542  67.582  1.00  0.00    -0.268 OA 
BRANCH  23  24
HETATM   24  C   UNL     1      -8.265  18.760  66.343  1.00  0.00    -0.284 C  
HETATM   25  C   UNL     1      -7.321  19.961  66.379  1.00  0.00    -0.291 C  
HETATM   26  C   UNL     1      -6.388  19.698  65.215  1.00  0.00    -0.297 C  
HETATM   27  C   UNL     1      -6.150  18.194  65.257  1.00  0.00    -0.150 C  
HETATM   28  C   UNL     1      -7.314  17.595  66.049  1.00  0.00    -0.301 C  
ENDBRANCH  23  24
ENDBRANCH  19  23
TORSDOF 3
ENDMDL
MODEL      146
REMARK 921   NORMALIZED FREE ENERGY PREDICTED BY IDOCK:    8.22 KCAL/MOL
REMARK 922        TOTAL FREE ENERGY PREDICTED BY IDOCK:    9.28 KCAL/MOL
REMARK 923 INTER-LIGAND FREE ENERGY PREDICTED BY IDOCK:    8.61 KCAL/MOL
REMARK 924 INTRA-LIGAND FREE ENERGY PREDICTED BY IDOCK:    0.67 KCAL/MOL
REMARK 927      BINDING AFFINITY PREDICTED BY RF-SCORE:    0.00 PKD
ROOT
HETATM    1  C   UNL     1      -7.934   7.287  65.509  1.00  0.00    -0.122 C  
HETATM    2  C   UNL     1      -6.825   6.445  65.256  1.00  0.00    -0.048 C  
HETATM    3  C   UNL     1      -7.516   6.224  66.554  1.00  0.00    -0.086 C  
HETATM    4  C   UNL     1      -9.290   7.245  66.775  1.00  0.00    -0.163 C  
HETATM    5  C   UNL     1      -9.103   5.961  66.335  1.00  0.00    -0.156 C  
HETATM    6  C   UNL     1      -6.797   9.163  70.607  1.00  0.00    -0.084 A  
HETATM    7  O   UNL     1     -10.293   7.148  67.787  1.00  0.00    -0.174 OA 
HETATM    8  C   UNL     1      -8.807   5.517  68.134  1.00  0.00    -0.105 C  
HETATM    9  C   UNL     1      -9.950   5.053  65.496  1.00  0.00    -0.039 C  
HETATM   10  C   UNL     1      -7.406   8.557  66.740  1.00  0.00    -0.082 C  
HETATM   11  H   UNL     1     -11.111   7.619  67.889  1.00  0.00     0.000 HD 
HETATM   12  C   UNL     1      -8.137   6.886  69.027  1.00  0.00    -0.117 C  
HETATM   13  C   UNL     1      -7.140   8.044  68.327  1.00  0.00    -0.088 C  
HETATM   14  C   UNL     1      -6.746   9.237  69.204  1.00  0.00    -0.050 A  
HETATM   15  C   UNL     1      -6.111  10.357  68.620  1.00  0.00    -0.043 A  
HETATM   16  C   UNL     1      -5.622  11.389  69.440  1.00  0.00    -0.051 A  
HETATM   17  C   UNL     1      -5.936  10.540  67.128  1.00  0.00    -0.054 C  
HETATM   18  C   UNL     1      -6.139   9.284  66.288  1.00  0.00    -0.060 C  
HETATM   19  C   UNL     1      -5.732  11.327  70.825  1.00  0.00    -0.083 A  
HETATM   20  C   UNL     1      -6.290  10.194  71.407  1.00  0.00     0.346 A  
ENDROOT
BRANCH   4  21
HETATM   21  C   UNL     1     -10.147   7.949  65.681  1.00  0.00     1.233 C  
HETATM   22  C   UNL     1     -10.767   8.512  64.815  1.00  0.00     6.400 C  
ENDBRANCH   4  21
BRANCH  19  23
HETATM   23  O   UNL     1      -5.314  12.308  71.685  1.00  0.00    -0.365 OA 
BRANCH  23  24
HETATM   24  C   UNL     1      -5.442  13.646  71.203  1.00  0.00    -0.203 C  
HETATM   25  C   UNL     1      -6.411  13.767  70.026  1.00  0.00    -0.084 C  
HETATM   26  C   UNL     1      -6.766  15.240  70.027  1.00  0.00    -0.104 C  
HETATM   27  C   UNL     1      -6.883  15.597  71.504  1.00  0.00     2.527 C  
HETATM   28  C   UNL     1      -6.097  14.529  72.269  1.00  0.00     0.464 C  
ENDBRANCH  23  24
ENDBRANCH  19  23
TORSDOF 3
ENDMDL
MODEL      147
REMARK 921   NORMALIZED FREE ENERGY PREDICTED BY IDOCK:    9.40 KCAL/MOL
REMARK 922        TOTAL FREE ENERGY PREDICTED BY IDOCK:   10.68 KCAL/MOL
REMARK 923 INTER-LIGAND FREE ENERGY PREDICTED BY IDOCK:   10.53 KCAL/MOL
REMARK 924 INTRA-LIGAND FREE ENERGY PREDICTED BY IDOCK:    0.14 KCAL/MOL
REMARK 927      BINDING AFFINITY PREDICTED BY RF-SCORE:    0.00 PKD
ROOT
HETATM    1  C   UNL     1     -11.516  18.011  67.024  1.00  0.00     1.158 C  
HETATM    2  C   UNL     1     -12.461  18.120  68.072  1.00  0.00     5.064 C  
HETATM    3  C   UNL     1     -11.070  17.802  68.491  1.00  0.00     0.358 C  
HETATM    4  C   UNL     1      -9.662  17.940  66.996  1.00  0.00    -0.298 C  
HETATM    5  C   UNL     1     -10.020  18.896  67.909  1.00  0.00    -0.408 C  
HETATM    6  C   UNL     1      -9.077  13.163  68.188  1.00  0.00    -0.200 A  
HETATM    7  O   UNL     1      -8.237  17.881  67.059  1.00  0.00    -0.214 OA 
HETATM    8  C   UNL     1      -9.017  17.909  69.151  1.00  0.00     0.108 C  
HETATM    9  C   UNL     1      -9.895  20.389  67.903  1.00  0.00    -0.433 C  
HETATM   10  C   UNL     1     -11.163  16.217  66.768  1.00  0.00     0.217 C  
HETATM   11  H   UNL     1      -7.587  17.944  66.369  1.00  0.00     0.000 HD 
HETATM   12  C   UNL     1      -9.000  16.191  68.738  1.00  0.00    -0.236 C  
HETATM   13  C   UNL     1     -10.275  15.418  67.961  1.00  0.00    -0.235 C  
HETATM   14  C   UNL     1     -10.054  13.956  67.559  1.00  0.00    -0.244 A  
HETATM   15  C   UNL     1     -10.979  13.317  66.703  1.00  0.00    -0.297 A  
HETATM   16  C   UNL     1     -10.858  11.940  66.447  1.00  0.00    -0.318 A  
HETATM   17  C   UNL     1     -12.113  14.035  66.005  1.00  0.00    -0.461 C  
HETATM   18  C   UNL     1     -12.449  15.416  66.557  1.00  0.00     1.222 C  
HETATM   19  C   UNL     1      -9.850  11.180  67.033  1.00  0.00    -0.185 A  
HETATM   20  C   UNL     1      -8.982  11.790  67.931  1.00  0.00    -0.180 A  
ENDROOT
BRANCH   4  21
HETATM   21  C   UNL     1      -9.794  18.617  65.599  1.00  0.00     0.384 C  
HETATM   22  C   UNL     1      -9.928  19.106  64.506  1.00  0.00     4.920 C  
ENDBRANCH   4  21
BRANCH  19  23
HETATM   23  O   UNL     1      -9.645   9.846  66.801  1.00  0.00    -0.168 OA 
BRANCH  23  24
HETATM   24  C   UNL     1      -8.896   9.532  65.628  1.00  0.00    -0.161 C  
HETATM   25  C   UNL     1      -9.643   8.603  64.671  1.00  0.00     1.126 C  
HETATM   26  C   UNL     1      -8.926   8.820  63.354  1.00  0.00     0.326 C  
HETATM   27  C   UNL     1      -8.634  10.315  63.327  1.00  0.00    -0.194 C  
HETATM   28  C   UNL     1      -8.691  10.792  64.780  1.00  0.00    -0.118 C  
ENDBRANCH  23  24
ENDBRANCH  19  23
TORSDOF 3
ENDMDL
MODEL      148
REMARK 921   NORMALIZED FREE ENERGY PREDICTED BY IDOCK:   11.03 KCAL/MOL
REMARK 922        TOTAL FREE ENERGY PREDICTED BY IDOCK:   12.59 KCAL/MOL
REMARK 923 INTER-LIGAND FREE ENERGY PREDICTED BY IDOCK:   12.37 KCAL/MOL
REMARK 924 INTRA-LIGAND FREE ENERGY PREDICTED BY IDOCK:    0.22 KCAL/MOL
REMARK 927      BINDING AFFINITY PREDICTED BY RF-SCORE:    0.00 PKD
ROOT
HETATM    1  C   UNL     1      -9.744  14.202  65.243  1.00  0.00    -0.060 C  
HETATM    2  C   UNL     1      -9.238  14.935  64.143  1.00  0.00     6.042 C  
HETATM    3  C   UNL     1     -10.298  13.943  63.822  1.00  0.00     1.606 C  
HETATM    4  C   UNL     1     -11.225  13.105  65.457  1.00  0.00    -0.281 C  
HETATM    5  C   UNL     1     -11.624  14.192  64.725  1.00  0.00    -0.400 C  
HETATM    6  C   UNL     1      -9.411   8.982  63.385  1.00  0.00     1.157 A  
HETATM    7  O   UNL     1     -12.379  12.268  65.539  1.00  0.00    -0.602 OA 
HETATM    8  C   UNL     1     -12.178  12.957  63.424  1.00  0.00    -0.574 C  
HETATM    9  C   UNL     1     -12.519  15.350  65.050  1.00  0.00     0.435 C  
HETATM   10  C   UNL     1      -9.029  12.502  65.163  1.00  0.00     0.892 C  
HETATM   11  H   UNL     1     -12.807  11.881  66.293  1.00  0.00     0.000 HD 
HETATM   12  C   UNL     1     -11.195  11.490  63.477  1.00  0.00    -0.412 C  
HETATM   13  C   UNL     1      -9.578  11.480  63.936  1.00  0.00    -0.213 C  
HETATM   14  C   UNL     1      -8.901  10.110  64.052  1.00  0.00    -0.247 A  
HETATM   15  C   UNL     1      -7.626  10.007  64.654  1.00  0.00    -0.143 A  
HETATM   16  C   UNL     1      -6.943   8.779  64.635  1.00  0.00    -0.080 A  
HETATM   17  C   UNL     1      -6.933  11.154  65.356  1.00  0.00     0.447 C  
HETATM   18  C   UNL     1      -7.504  12.538  65.065  1.00  0.00     5.199 C  
HETATM   19  C   UNL     1      -7.487   7.657  64.019  1.00  0.00    -0.107 A  
HETATM   20  C   UNL     1      -8.708   7.772  63.364  1.00  0.00     0.581 A  
ENDROOT
BRANCH   4  21
HETATM   21  C   UNL     1     -11.192  13.582  66.940  1.00  0.00    -0.329 C  
HETATM   22  C   UNL     1     -11.161  13.902  68.101  1.00  0.00    -0.293 C  
ENDBRANCH   4  21
BRANCH  19  23
HETATM   23  O   UNL     1      -6.900   6.419  63.994  1.00  0.00    -0.039 OA 
BRANCH  23  24
HETATM   24  C   UNL     1      -6.474   5.913  65.259  1.00  0.00    -0.042 C  
HETATM   25  C   UNL     1      -5.127   6.481  65.708  1.00  0.00    -0.017 C  
HETATM   26  C   UNL     1      -5.133   6.231  67.202  1.00  0.00    -0.005 C  
HETATM   27  C   UNL     1      -6.569   6.515  67.626  1.00  0.00    -0.061 C  
HETATM   28  C   UNL     1      -7.424   6.388  66.363  1.00  0.00    -0.086 C  
ENDBRANCH  23  24
ENDBRANCH  19  23
TORSDOF 3
ENDMDL
MODEL      149
REMARK 921   NORMALIZED FREE ENERGY PREDICTED BY IDOCK:   11.46 KCAL/MOL
REMARK 922        TOTAL FREE ENERGY PREDICTED BY IDOCK:   13.09 KCAL/MOL
REMARK 923 INTER-LIGAND FREE ENERGY PREDICTED BY IDOCK:   12.90 KCAL/MOL
REMARK 924 INTRA-LIGAND FREE ENERGY PREDICTED BY IDOCK:    0.19 KCAL/MOL
REMARK 927      BINDING AFFINITY PREDICTED BY RF-SCORE:    0.00 PKD
ROOT
HETATM    1  C   UNL     1      -8.061  17.480  70.510  1.00  0.00     4.087 C  
HETATM    2  C   UNL     1      -7.067  17.085  71.438  1.00  0.00     5.343 C  
HETATM    3  C   UNL     1      -6.981  16.454  70.094  1.00  0.00     0.669 C  
HETATM    4  C   UNL     1      -8.241  17.255  68.677  1.00  0.00    -0.262 C  
HETATM    5  C   UNL     1      -6.933  17.577  68.922  1.00  0.00    -0.252 C  
HETATM    6  C   UNL     1      -9.904  12.584  68.658  1.00  0.00    -0.083 A  
HETATM    7  O   UNL     1      -8.312  17.031  67.269  1.00  0.00    -0.180 OA 
HETATM    8  C   UNL     1      -6.502  15.976  68.043  1.00  0.00    -0.148 C  
HETATM    9  C   UNL     1      -6.127  18.805  68.623  1.00  0.00    -0.230 C  
HETATM   10  C   UNL     1      -9.280  16.101  70.369  1.00  0.00     1.568 C  
HETATM   11  H   UNL     1      -8.893  17.400  66.615  1.00  0.00     0.000 HD 
HETATM   12  C   UNL     1      -7.790  14.780  68.227  1.00  0.00    -0.125 C  
HETATM   13  C   UNL     1      -8.780  14.694  69.583  1.00  0.00     0.318 C  
HETATM   14  C   UNL     1      -9.931  13.684  69.534  1.00  0.00     0.689 A  
HETATM   15  C   UNL     1     -10.936  13.718  70.527  1.00  0.00     0.895 A  
HETATM   16  C   UNL     1     -11.913  12.707  70.567  1.00  0.00    -0.279 A  
HETATM   17  C   UNL     1     -11.052  14.810  71.568  1.00  0.00     0.211 C  
HETATM   18  C   UNL     1      -9.813  15.681  71.740  1.00  0.00     3.193 C  
HETATM   19  C   UNL     1     -11.905  11.656  69.656  1.00  0.00    -0.352 A  
HETATM   20  C   UNL     1     -10.877  11.579  68.724  1.00  0.00    -0.258 A  
ENDROOT
BRANCH   4  21
HETATM   21  C   UNL     1      -9.026  18.600  68.727  1.00  0.00    -0.291 C  
HETATM   22  C   UNL     1      -9.589  19.664  68.767  1.00  0.00    -0.444 C  
ENDBRANCH   4  21
BRANCH  19  23
HETATM   23  O   UNL     1     -12.843  10.658  69.609  1.00  0.00    -0.177 OA 
BRANCH  23  24
HETATM   24  C   UNL     1     -12.446   9.412  70.180  1.00  0.00     0.521 C  
HETATM   25  C   UNL     1     -10.956   9.356  70.520  1.00  0.00    -0.332 C  
HETATM   26  C   UNL     1     -10.878   8.226  71.526  1.00  0.00    -0.308 C  
HETATM   27  C   UNL     1     -12.128   8.395  72.380  1.00  0.00    -0.443 C  
HETATM   28  C   UNL     1     -13.110   9.224  71.548  1.00  0.00    -0.430 C  
ENDBRANCH  23  24
ENDBRANCH  19  23
TORSDOF 3
ENDMDL
MODEL      150
REMARK 921   NORMALIZED FREE ENERGY PREDICTED BY IDOCK:   13.25 KCAL/MOL
REMARK 922        TOTAL FREE ENERGY PREDICTED BY IDOCK:   15.20 KCAL/MOL
REMARK 923 INTER-LIGAND FREE ENERGY PREDICTED BY IDOCK:   13.63 KCAL/MOL
REMARK 924 INTRA-LIGAND FREE ENERGY PREDICTED BY IDOCK:    1.56 KCAL/MOL
REMARK 927      BINDING AFFINITY PREDICTED BY RF-SCORE:    0.00 PKD
ROOT
HETATM    1  C   UNL     1      -8.261  14.816  65.993  1.00  0.00     1.392 C  
HETATM    2  C   UNL     1      -8.553  14.265  64.722  1.00  0.00     5.345 C  
HETATM    3  C   UNL     1      -9.731  14.570  65.576  1.00  0.00    -0.232 C  
HETATM    4  C   UNL     1      -9.309  15.637  67.285  1.00  0.00    -0.215 C  
HETATM    5  C   UNL     1      -9.712  16.118  66.068  1.00  0.00    -0.376 C  
HETATM    6  C   UNL     1     -11.262  11.577  69.356  1.00  0.00    -0.324 A  
HETATM    7  O   UNL     1     -10.183  16.248  68.234  1.00  0.00    -0.239 OA 
HETATM    8  C   UNL     1     -11.425  15.509  66.532  1.00  0.00     0.080 C  
HETATM    9  C   UNL     1      -9.573  17.463  65.422  1.00  0.00     0.792 C  
HETATM   10  C   UNL     1      -8.502  13.487  67.251  1.00  0.00    -0.200 C  
HETATM   11  H   UNL     1      -9.989  16.740  69.023  1.00  0.00     0.000 HD 
HETATM   12  C   UNL     1     -11.336  14.116  67.616  1.00  0.00    -0.342 C  
HETATM   13  C   UNL     1     -10.085  12.994  67.574  1.00  0.00    -0.218 C  
HETATM   14  C   UNL     1     -10.086  11.917  68.663  1.00  0.00    -0.186 A  
HETATM   15  C   UNL     1      -8.952  11.090  68.833  1.00  0.00    -0.123 A  
HETATM   16  C   UNL     1      -9.003  10.011  69.733  1.00  0.00    -0.209 A  
HETATM   17  C   UNL     1      -7.641  11.304  68.110  1.00  0.00    -0.105 C  
HETATM   18  C   UNL     1      -7.706  12.230  66.900  1.00  0.00    -0.017 C  
HETATM   19  C   UNL     1     -10.158   9.724  70.454  1.00  0.00    -0.252 A  
HETATM   20  C   UNL     1     -11.297  10.489  70.236  1.00  0.00    -0.407 A  
ENDROOT
BRANCH   4  21
HETATM   21  C   UNL     1      -8.011  16.421  67.643  1.00  0.00    -0.165 C  
HETATM   22  C   UNL     1      -6.983  16.984  67.923  1.00  0.00    -0.169 C  
ENDBRANCH   4  21
BRANCH  19  23
HETATM   23  O   UNL     1     -10.270   8.716  71.375  1.00  0.00    -0.210 OA 
BRANCH  23  24
HETATM   24  C   UNL     1     -11.305   8.880  72.344  1.00  0.00    -0.102 C  
HETATM   25  C   UNL     1     -11.401  10.307  72.882  1.00  0.00     5.425 C  
HETATM   26  C   UNL     1     -12.802  10.364  73.454  1.00  0.00     5.448 C  
HETATM   27  C   UNL     1     -13.646   9.574  72.461  1.00  0.00    -0.381 C  
HETATM   28  C   UNL     1     -12.676   8.674  71.691  1.00  0.00    -0.379 C  
ENDBRANCH  23  24
ENDBRANCH  19  23
TORSDOF 3
ENDMDL
MODEL      151
REMARK 921   NORMALIZED FREE ENERGY PREDICTED BY IDOCK:   14.36 KCAL/MOL
REMARK 922        TOTAL FREE ENERGY PREDICTED BY IDOCK:   16.50 KCAL/MOL
REMARK 923 INTER-LIGAND FREE ENERGY PREDICTED BY IDOCK:   16.49 KCAL/MOL
REMARK 924 INTRA-LIGAND FREE ENERGY PREDICTED BY IDOCK:    0.01 KCAL/MOL
REMARK 927      BINDING AFFINITY PREDICTED BY RF-SCORE:    0.00 PKD
ROOT
HETATM    1  C   UNL     1      -9.160  14.367  65.855  1.00  0.00     0.195 C  
HETATM    2  C   UNL     1      -8.693  13.071  65.531  1.00  0.00     1.380 C  
HETATM    3  C   UNL     1     -10.165  13.262  65.451  1.00  0.00    -0.304 C  
HETATM    4  C   UNL     1     -10.798  15.212  65.634  1.00  0.00    -0.360 C  
HETATM    5  C   UNL     1     -10.542  14.512  64.486  1.00  0.00    -0.143 C  
HETATM    6  C   UNL     1     -13.184  13.245  69.510  1.00  0.00     1.835 A  
HETATM    7  O   UNL     1     -12.089  15.788  65.439  1.00  0.00     0.497 OA 
HETATM    8  C   UNL     1     -12.183  13.654  64.789  1.00  0.00    -0.440 C  
HETATM    9  C   UNL     1     -10.203  14.953  63.094  1.00  0.00     7.965 C  
HETATM   10  C   UNL     1      -9.910  14.290  67.541  1.00  0.00    -0.231 C  
HETATM   11  H   UNL     1     -12.381  16.688  65.524  1.00  0.00     0.000 HD 
HETATM   12  C   UNL     1     -12.555  13.579  66.515  1.00  0.00    -0.181 C  
HETATM   13  C   UNL     1     -11.376  13.469  67.707  1.00  0.00    -0.327 C  
HETATM   14  C   UNL     1     -11.854  13.542  69.161  1.00  0.00    -0.386 A  
HETATM   15  C   UNL     1     -10.911  13.692  70.203  1.00  0.00     0.462 A  
HETATM   16  C   UNL     1     -11.332  13.617  71.542  1.00  0.00     2.018 A  
HETATM   17  C   UNL     1      -9.440  13.958  69.973  1.00  0.00     1.932 C  
HETATM   18  C   UNL     1      -8.941  13.685  68.558  1.00  0.00    -0.102 C  
HETATM   19  C   UNL     1     -12.663  13.379  71.870  1.00  0.00    -0.176 A  
HETATM   20  C   UNL     1     -13.581  13.159  70.850  1.00  0.00     0.568 A  
ENDROOT
BRANCH   4  21
HETATM   21  C   UNL     1      -9.955  16.519  65.532  1.00  0.00    -0.137 C  
HETATM   22  C   UNL     1      -9.328  17.547  65.492  1.00  0.00     0.697 C  
ENDBRANCH   4  21
BRANCH  19  23
HETATM   23  O   UNL     1     -13.154  13.331  73.148  1.00  0.00    -0.199 OA 
BRANCH  23  24
HETATM   24  C   UNL     1     -13.486  14.592  73.729  1.00  0.00     1.415 C  
HETATM   25  C   UNL     1     -12.263  15.357  74.238  1.00  0.00    -0.751 C  
HETATM   26  C   UNL     1     -12.764  16.784  74.321  1.00  0.00     0.035 C  
HETATM   27  C   UNL     1     -13.647  16.946  73.090  1.00  0.00     1.765 C  
HETATM   28  C   UNL     1     -14.049  15.533  72.660  1.00  0.00    -0.536 C  
ENDBRANCH  23  24
ENDBRANCH  19  23
TORSDOF 3
ENDMDL
MODEL      152
REMARK 921   NORMALIZED FREE ENERGY PREDICTED BY IDOCK:   18.60 KCAL/MOL
REMARK 922        TOTAL FREE ENERGY PREDICTED BY IDOCK:   21.49 KCAL/MOL
REMARK 923 INTER-LIGAND FREE ENERGY PREDICTED BY IDOCK:   21.87 KCAL/MOL
REMARK 924 INTRA-LIGAND FREE ENERGY PREDICTED BY IDOCK:   -0.38 KCAL/MOL
REMARK 927      BINDING AFFINITY PREDICTED BY RF-SCORE:    0.00 PKD
ROOT
HETATM    1  C   UNL     1     -12.813  16.364  71.888  1.00  0.00     0.582 C  
HETATM    2  C   UNL     1     -14.022  15.879  72.443  1.00  0.00    -0.368 C  
HETATM    3  C   UNL     1     -12.799  15.109  72.793  1.00  0.00    -0.506 C  
HETATM    4  C   UNL     1     -11.027  15.992  72.228  1.00  0.00     0.930 C  
HETATM    5  C   UNL     1     -11.663  16.075  73.437  1.00  0.00    -0.217 C  
HETATM    6  C   UNL     1     -10.647  11.758  69.674  1.00  0.00     0.281 A  
HETATM    7  O   UNL     1      -9.678  15.642  72.541  1.00  0.00     3.971 OA 
HETATM    8  C   UNL     1     -11.025  14.339  73.755  1.00  0.00     3.281 C  
HETATM    9  C   UNL     1     -11.593  17.085  74.543  1.00  0.00     0.558 C  
HETATM   10  C   UNL     1     -12.341  15.243  70.500  1.00  0.00    -0.434 C  
HETATM   11  H   UNL     1      -8.861  16.049  72.280  1.00  0.00     0.000 HD 
HETATM   12  C   UNL     1     -10.833  13.443  72.244  1.00  0.00     6.821 C  
HETATM   13  C   UNL     1     -11.805  13.691  70.896  1.00  0.00    -0.082 C  
HETATM   14  C   UNL     1     -11.429  12.926  69.623  1.00  0.00    -0.251 A  
HETATM   15  C   UNL     1     -12.049  13.258  68.397  1.00  0.00    -0.244 A  
HETATM   16  C   UNL     1     -11.812  12.467  67.258  1.00  0.00    -0.381 A  
HETATM   17  C   UNL     1     -12.959  14.452  68.211  1.00  0.00     1.830 C  
HETATM   18  C   UNL     1     -13.485  15.077  69.498  1.00  0.00     1.638 C  
HETATM   19  C   UNL     1     -10.989  11.347  67.313  1.00  0.00    -0.282 A  
HETATM   20  C   UNL     1     -10.436  10.976  68.533  1.00  0.00    -0.210 A  
ENDROOT
BRANCH   4  21
HETATM   21  C   UNL     1     -10.777  17.462  71.777  1.00  0.00     2.652 C  
HETATM   22  C   UNL     1     -10.550  18.603  71.466  1.00  0.00     3.200 C  
ENDBRANCH   4  21
BRANCH  19  23
HETATM   23  O   UNL     1     -10.682  10.552  66.240  1.00  0.00    -0.174 OA 
BRANCH  23  24
HETATM   24  C   UNL     1      -9.310  10.172  66.128  1.00  0.00    -0.172 C  
HETATM   25  C   UNL     1      -9.125   8.688  65.810  1.00  0.00    -0.242 C  
HETATM   26  C   UNL     1      -7.718   8.631  65.253  1.00  0.00    -0.092 C  
HETATM   27  C   UNL     1      -7.596   9.893  64.408  1.00  0.00    -0.143 C  
HETATM   28  C   UNL     1      -8.671  10.857  64.916  1.00  0.00    -0.075 C  
ENDBRANCH  23  24
ENDBRANCH  19  23
TORSDOF 3
ENDMDL
MODEL      153
REMARK 921   NORMALIZED FREE ENERGY PREDICTED BY IDOCK:   21.38 KCAL/MOL
REMARK 922        TOTAL FREE ENERGY PREDICTED BY IDOCK:   24.75 KCAL/MOL
REMARK 923 INTER-LIGAND FREE ENERGY PREDICTED BY IDOCK:   24.71 KCAL/MOL
REMARK 924 INTRA-LIGAND FREE ENERGY PREDICTED BY IDOCK:    0.04 KCAL/MOL
REMARK 927      BINDING AFFINITY PREDICTED BY RF-SCORE:    0.00 PKD
ROOT
HETATM    1  C   UNL     1      -7.183   7.474  65.460  1.00  0.00    -0.069 C  
HETATM    2  C   UNL     1      -6.334   6.703  66.289  1.00  0.00    -0.042 C  
HETATM    3  C   UNL     1      -7.751   6.798  66.731  1.00  0.00    -0.106 C  
HETATM    4  C   UNL     1      -9.026   7.667  65.369  1.00  0.00     0.164 C  
HETATM    5  C   UNL     1      -8.764   6.335  65.549  1.00  0.00    -0.090 C  
HETATM    6  C   UNL     1      -9.636  10.825  69.143  1.00  0.00    -0.169 A  
HETATM    7  O   UNL     1     -10.451   7.768  65.370  1.00  0.00     1.703 OA 
HETATM    8  C   UNL     1      -9.855   6.452  67.072  1.00  0.00    -0.194 C  
HETATM    9  C   UNL     1      -8.911   5.149  64.644  1.00  0.00    -0.034 C  
HETATM   10  C   UNL     1      -7.484   9.086  66.307  1.00  0.00    -0.092 C  
HETATM   11  H   UNL     1     -11.039   8.169  64.742  1.00  0.00     0.000 HD 
HETATM   12  C   UNL     1      -9.808   8.076  67.767  1.00  0.00    -0.207 C  
HETATM   13  C   UNL     1      -8.459   9.075  67.685  1.00  0.00    -0.117 C  
HETATM   14  C   UNL     1      -8.622  10.500  68.224  1.00  0.00    -0.127 A  
HETATM   15  C   UNL     1      -7.615  11.462  67.977  1.00  0.00    -0.110 A  
HETATM   16  C   UNL     1      -7.692  12.726  68.588  1.00  0.00    -0.064 A  
HETATM   17  C   UNL     1      -6.437  11.228  67.058  1.00  0.00    -0.114 C  
HETATM   18  C   UNL     1      -6.173   9.771  66.694  1.00  0.00    -0.064 C  
HETATM   19  C   UNL     1      -8.735  13.051  69.450  1.00  0.00     1.231 A  
HETATM   20  C   UNL     1      -9.686  12.084  69.752  1.00  0.00     1.721 A  
ENDROOT
BRANCH   4  21
HETATM   21  C   UNL     1      -8.785   7.946  63.855  1.00  0.00     0.503 C  
HETATM   22  C   UNL     1      -8.550   8.164  62.694  1.00  0.00     0.048 C  
ENDBRANCH   4  21
BRANCH  19  23
HETATM   23  O   UNL     1      -8.897  14.271  70.051  1.00  0.00     0.921 OA 
BRANCH  23  24
HETATM   24  C   UNL     1      -8.242  14.432  71.309  1.00  0.00     4.360 C  
HETATM   25  C   UNL     1      -7.735  13.112  71.892  1.00  0.00    10.019 C  
HETATM   26  C   UNL     1      -6.688  13.560  72.891  1.00  0.00     3.768 C  
HETATM   27  C   UNL     1      -5.986  14.725  72.202  1.00  0.00     0.461 C  
HETATM   28  C   UNL     1      -6.951  15.238  71.131  1.00  0.00     1.409 C  
ENDBRANCH  23  24
ENDBRANCH  19  23
TORSDOF 3
ENDMDL
MODEL      154
REMARK 921   NORMALIZED FREE ENERGY PREDICTED BY IDOCK:   21.39 KCAL/MOL
REMARK 922        TOTAL FREE ENERGY PREDICTED BY IDOCK:   24.76 KCAL/MOL
REMARK 923 INTER-LIGAND FREE ENERGY PREDICTED BY IDOCK:   24.28 KCAL/MOL
REMARK 924 INTRA-LIGAND FREE ENERGY PREDICTED BY IDOCK:    0.48 KCAL/MOL
REMARK 927      BINDING AFFINITY PREDICTED BY RF-SCORE:    0.00 PKD
ROOT
HETATM    1  C   UNL     1     -12.049  13.316  70.224  1.00  0.00    -0.405 C  
HETATM    2  C   UNL     1     -11.488  13.082  71.503  1.00  0.00     2.543 C  
HETATM    3  C   UNL     1     -10.709  13.985  70.614  1.00  0.00     1.256 C  
HETATM    4  C   UNL     1     -11.677  14.547  68.887  1.00  0.00    -0.319 C  
HETATM    5  C   UNL     1     -11.626  15.215  70.082  1.00  0.00    -0.326 C  
HETATM    6  C   UNL     1      -7.732  12.309  66.884  1.00  0.00    -0.017 A  
HETATM    7  O   UNL     1     -11.323  15.519  67.903  1.00  0.00    -0.331 OA 
HETATM    8  C   UNL     1      -9.879  15.699  69.596  1.00  0.00    -0.280 C  
HETATM    9  C   UNL     1     -12.520  16.251  70.694  1.00  0.00     0.551 C  
HETATM   10  C   UNL     1     -11.083  12.332  68.997  1.00  0.00    -0.289 C  
HETATM   11  H   UNL     1     -11.770  15.779  67.106  1.00  0.00     0.000 HD 
HETATM   12  C   UNL     1      -9.145  14.477  68.553  1.00  0.00    -0.190 C  
HETATM   13  C   UNL     1      -9.510  12.840  68.653  1.00  0.00    -0.002 C  
HETATM   14  C   UNL     1      -8.884  11.926  67.593  1.00  0.00    -0.169 A  
HETATM   15  C   UNL     1      -9.327  10.589  67.471  1.00  0.00    -0.162 A  
HETATM   16  C   UNL     1      -8.660   9.710  66.600  1.00  0.00    -0.137 A  
HETATM   17  C   UNL     1     -10.516  10.026  68.217  1.00  0.00    -0.246 C  
HETATM   18  C   UNL     1     -10.999  10.859  69.400  1.00  0.00    -0.304 C  
HETATM   19  C   UNL     1      -7.555  10.122  65.861  1.00  0.00    -0.128 A  
HETATM   20  C   UNL     1      -7.073  11.414  66.033  1.00  0.00     0.238 A  
ENDROOT
BRANCH   4  21
HETATM   21  C   UNL     1     -13.190  14.418  68.537  1.00  0.00     2.907 C  
HETATM   22  C   UNL     1     -14.359  14.365  68.249  1.00  0.00    12.586 C  
ENDBRANCH   4  21
BRANCH  19  23
HETATM   23  O   UNL     1      -6.879   9.336  64.966  1.00  0.00    -0.082 OA 
BRANCH  23  24
HETATM   24  C   UNL     1      -7.685   8.437  64.204  1.00  0.00    -0.137 C  
HETATM   25  C   UNL     1      -8.374   7.376  65.063  1.00  0.00    -0.057 C  
HETATM   26  C   UNL     1      -9.507   6.902  64.177  1.00  0.00     2.581 C  
HETATM   27  C   UNL     1     -10.010   8.171  63.499  1.00  0.00     5.284 C  
HETATM   28  C   UNL     1      -8.868   9.186  63.584  1.00  0.00    -0.087 C  
ENDBRANCH  23  24
ENDBRANCH  19  23
TORSDOF 3
ENDMDL
MODEL      155
REMARK 921   NORMALIZED FREE ENERGY PREDICTED BY IDOCK:   21.57 KCAL/MOL
REMARK 922        TOTAL FREE ENERGY PREDICTED BY IDOCK:   24.97 KCAL/MOL
REMARK 923 INTER-LIGAND FREE ENERGY PREDICTED BY IDOCK:   24.09 KCAL/MOL
REMARK 924 INTRA-LIGAND FREE ENERGY PREDICTED BY IDOCK:    0.89 KCAL/MOL
REMARK 927      BINDING AFFINITY PREDICTED BY RF-SCORE:    0.00 PKD
ROOT
HETATM    1  C   UNL     1      -9.187  13.082  64.800  1.00  0.00     1.029 C  
HETATM    2  C   UNL     1      -7.966  12.958  64.096  1.00  0.00     7.402 C  
HETATM    3  C   UNL     1      -8.098  12.107  65.308  1.00  0.00     1.849 C  
HETATM    4  C   UNL     1      -9.978  12.078  66.145  1.00  0.00    -0.231 C  
HETATM    5  C   UNL     1      -9.442  11.199  65.242  1.00  0.00    -0.257 C  
HETATM    6  C   UNL     1      -7.427  13.857  70.007  1.00  0.00     0.793 A  
HETATM    7  O   UNL     1     -10.515  11.260  67.185  1.00  0.00    -0.204 OA 
HETATM    8  C   UNL     1      -8.479  10.491  66.688  1.00  0.00    -0.129 C  
HETATM    9  C   UNL     1     -10.072  10.257  64.261  1.00  0.00    -0.191 C  
HETATM   10  C   UNL     1      -8.862  14.077  66.321  1.00  0.00     0.181 C  
HETATM   11  H   UNL     1     -11.382  11.247  67.572  1.00  0.00     0.000 HD 
HETATM   12  C   UNL     1      -8.168  11.724  67.914  1.00  0.00    -0.147 C  
HETATM   13  C   UNL     1      -7.961  13.352  67.551  1.00  0.00    -0.186 C  
HETATM   14  C   UNL     1      -7.826  14.313  68.737  1.00  0.00    -0.128 A  
HETATM   15  C   UNL     1      -7.885  15.708  68.520  1.00  0.00    -0.133 A  
HETATM   16  C   UNL     1      -7.621  16.592  69.580  1.00  0.00     0.273 A  
HETATM   17  C   UNL     1      -8.245  16.337  67.191  1.00  0.00    -0.219 C  
HETATM   18  C   UNL     1      -8.177  15.403  65.988  1.00  0.00     0.808 C  
HETATM   19  C   UNL     1      -7.283  16.124  70.846  1.00  0.00     2.671 A  
HETATM   20  C   UNL     1      -7.153  14.754  71.046  1.00  0.00     1.115 A  
ENDROOT
BRANCH   4  21
HETATM   21  C   UNL     1     -11.324  12.558  65.524  1.00  0.00    -0.368 C  
HETATM   22  C   UNL     1     -12.369  12.961  65.082  1.00  0.00    -0.547 C  
ENDBRANCH   4  21
BRANCH  19  23
HETATM   23  O   UNL     1      -7.050  16.921  71.936  1.00  0.00     5.814 OA 
BRANCH  23  24
HETATM   24  C   UNL     1      -6.283  18.099  71.685  1.00  0.00     2.030 C  
HETATM   25  C   UNL     1      -6.052  18.357  70.196  1.00  0.00    -0.071 C  
HETATM   26  C   UNL     1      -5.701  19.829  70.155  1.00  0.00    -0.313 C  
HETATM   27  C   UNL     1      -6.628  20.466  71.183  1.00  0.00     0.296 C  
HETATM   28  C   UNL     1      -7.067  19.340  72.123  1.00  0.00     2.949 C  
ENDBRANCH  23  24
ENDBRANCH  19  23
TORSDOF 3
ENDMDL
MODEL      156
REMARK 921   NORMALIZED FREE ENERGY PREDICTED BY IDOCK:   28.93 KCAL/MOL
REMARK 922        TOTAL FREE ENERGY PREDICTED BY IDOCK:   33.63 KCAL/MOL
REMARK 923 INTER-LIGAND FREE ENERGY PREDICTED BY IDOCK:   33.96 KCAL/MOL
REMARK 924 INTRA-LIGAND FREE ENERGY PREDICTED BY IDOCK:   -0.33 KCAL/MOL
REMARK 927      BINDING AFFINITY PREDICTED BY RF-SCORE:    0.00 PKD
ROOT
HETATM    1  C   UNL     1     -13.076  12.237  71.554  1.00  0.00    -0.356 C  
HETATM    2  C   UNL     1     -13.118  11.421  72.710  1.00  0.00     1.873 C  
HETATM    3  C   UNL     1     -11.982  12.378  72.639  1.00  0.00     4.139 C  
HETATM    4  C   UNL     1     -12.100  13.751  71.110  1.00  0.00    -0.185 C  
HETATM    5  C   UNL     1     -12.509  13.896  72.408  1.00  0.00    -0.080 C  
HETATM    6  C   UNL     1      -7.835  11.551  69.863  1.00  0.00     1.178 A  
HETATM    7  O   UNL     1     -11.304  14.905  70.839  1.00  0.00    -0.401 OA 
HETATM    8  C   UNL     1     -10.692  14.099  72.829  1.00  0.00     4.334 C  
HETATM    9  C   UNL     1     -13.507  14.811  73.052  1.00  0.00    -0.473 C  
HETATM   10  C   UNL     1     -11.753  11.579  70.449  1.00  0.00    -0.328 C  
HETATM   11  H   UNL     1     -11.358  15.538  70.134  1.00  0.00     0.000 HD 
HETATM   12  C   UNL     1      -9.670  13.214  71.692  1.00  0.00    12.701 C  
HETATM   13  C   UNL     1     -10.150  11.792  70.936  1.00  0.00     5.627 C  
HETATM   14  C   UNL     1      -9.200  11.216  69.881  1.00  0.00     1.188 A  
HETATM   15  C   UNL     1      -9.638  10.164  69.044  1.00  0.00    -0.202 A  
HETATM   16  C   UNL     1      -8.727   9.539  68.174  1.00  0.00    -0.120 A  
HETATM   17  C   UNL     1     -11.064   9.662  69.001  1.00  0.00    -0.104 C  
HETATM   18  C   UNL     1     -11.941  10.087  70.174  1.00  0.00    -0.204 C  
HETATM   19  C   UNL     1      -7.390   9.922  68.128  1.00  0.00    -0.080 A  
HETATM   20  C   UNL     1      -6.941  10.906  69.001  1.00  0.00    -0.089 A  
ENDROOT
BRANCH   4  21
HETATM   21  C   UNL     1     -13.333  14.121  70.232  1.00  0.00     0.411 C  
HETATM   22  C   UNL     1     -14.315  14.381  69.585  1.00  0.00     5.420 C  
ENDBRANCH   4  21
BRANCH  19  23
HETATM   23  O   UNL     1      -6.455   9.388  67.282  1.00  0.00    -0.068 OA 
BRANCH  23  24
HETATM   24  C   UNL     1      -6.865   8.222  66.568  1.00  0.00    -0.067 C  
HETATM   25  C   UNL     1      -6.601   8.317  65.065  1.00  0.00    -0.059 C  
HETATM   26  C   UNL     1      -6.623   6.868  64.621  1.00  0.00    -0.042 C  
HETATM   27  C   UNL     1      -5.923   6.120  65.749  1.00  0.00    -0.025 C  
HETATM   28  C   UNL     1      -6.008   7.021  66.983  1.00  0.00    -0.026 C  
ENDBRANCH  23  24
ENDBRANCH  19  23
TORSDOF 3
ENDMDL
MODEL      157
REMARK 921   NORMALIZED FREE ENERGY PREDICTED BY IDOCK:   36.09 KCAL/MOL
REMARK 922        TOTAL FREE ENERGY PREDICTED BY IDOCK:   42.04 KCAL/MOL
REMARK 923 INTER-LIGAND FREE ENERGY PREDICTED BY IDOCK:   42.24 KCAL/MOL
REMARK 924 INTRA-LIGAND FREE ENERGY PREDICTED BY IDOCK:   -0.20 KCAL/MOL
REMARK 927      BINDING AFFINITY PREDICTED BY RF-SCORE:    0.00 PKD
ROOT
HETATM    1  C   UNL     1      -9.621  16.863  71.291  1.00  0.00     5.343 C  
HETATM    2  C   UNL     1      -8.513  16.001  71.473  1.00  0.00     6.416 C  
HETATM    3  C   UNL     1      -8.383  16.992  70.372  1.00  0.00     3.333 C  
HETATM    4  C   UNL     1      -9.864  18.421  70.312  1.00  0.00     1.687 C  
HETATM    5  C   UNL     1      -8.635  18.503  70.911  1.00  0.00     5.372 C  
HETATM    6  C   UNL     1     -10.547  16.395  65.839  1.00  0.00    -0.294 A  
HETATM    7  O   UNL     1      -9.974  19.607  69.526  1.00  0.00    -0.497 OA 
HETATM    8  C   UNL     1      -7.945  18.740  69.183  1.00  0.00    -0.086 C  
HETATM    9  C   UNL     1      -8.114  19.362  72.023  1.00  0.00     4.882 C  
HETATM   10  C   UNL     1     -10.543  16.288  69.799  1.00  0.00    -0.316 C  
HETATM   11  H   UNL     1     -10.657  20.266  69.498  1.00  0.00     0.000 HD 
HETATM   12  C   UNL     1      -8.951  17.931  67.976  1.00  0.00    -0.267 C  
HETATM   13  C   UNL     1      -9.818  16.527  68.292  1.00  0.00    -0.243 C  
HETATM   14  C   UNL     1     -10.742  16.021  67.180  1.00  0.00    -0.283 A  
HETATM   15  C   UNL     1     -11.671  14.991  67.455  1.00  0.00    -0.255 A  
HETATM   16  C   UNL     1     -12.419  14.428  66.406  1.00  0.00    -0.196 A  
HETATM   17  C   UNL     1     -11.941  14.451  68.842  1.00  0.00    -0.337 C  
HETATM   18  C   UNL     1     -10.896  14.803  69.894  1.00  0.00    -0.185 C  
HETATM   19  C   UNL     1     -12.255  14.851  65.091  1.00  0.00    -0.114 A  
HETATM   20  C   UNL     1     -11.292  15.811  64.807  1.00  0.00    -0.319 A  
ENDROOT
BRANCH   4  21
HETATM   21  C   UNL     1     -10.900  18.790  71.416  1.00  0.00     3.473 C  
HETATM   22  C   UNL     1     -11.663  19.083  72.301  1.00  0.00     8.155 C  
ENDBRANCH   4  21
BRANCH  19  23
HETATM   23  O   UNL     1     -12.973  14.377  64.025  1.00  0.00    -0.417 OA 
BRANCH  23  24
HETATM   24  C   UNL     1     -13.021  12.956  63.895  1.00  0.00     0.185 C  
HETATM   25  C   UNL     1     -13.593  12.496  62.554  1.00  0.00     3.415 C  
HETATM   26  C   UNL     1     -13.090  11.072  62.439  1.00  0.00     3.507 C  
HETATM   27  C   UNL     1     -11.672  11.128  62.995  1.00  0.00     0.802 C  
HETATM   28  C   UNL     1     -11.601  12.382  63.869  1.00  0.00    -0.518 C  
ENDBRANCH  23  24
ENDBRANCH  19  23
TORSDOF 3
ENDMDL
MODEL      158
REMARK 921   NORMALIZED FREE ENERGY PREDICTED BY IDOCK:   36.44 KCAL/MOL
REMARK 922        TOTAL FREE ENERGY PREDICTED BY IDOCK:   42.46 KCAL/MOL
REMARK 923 INTER-LIGAND FREE ENERGY PREDICTED BY IDOCK:   42.38 KCAL/MOL
REMARK 924 INTRA-LIGAND FREE ENERGY PREDICTED BY IDOCK:    0.08 KCAL/MOL
REMARK 927      BINDING AFFINITY PREDICTED BY RF-SCORE:    0.00 PKD
ROOT
HETATM    1  C   UNL     1      -7.215   8.564  70.203  1.00  0.00    -0.051 C  
HETATM    2  C   UNL     1      -6.540   8.341  71.427  1.00  0.00    -0.051 C  
HETATM    3  C   UNL     1      -7.907   7.763  71.332  1.00  0.00    -0.090 C  
HETATM    4  C   UNL     1      -8.751   7.839  69.456  1.00  0.00    -0.135 C  
HETATM    5  C   UNL     1      -8.049   6.810  70.025  1.00  0.00    -0.125 C  
HETATM    6  C   UNL     1     -12.119  10.496  71.943  1.00  0.00     0.197 A  
HETATM    7  O   UNL     1      -9.947   7.241  68.955  1.00  0.00    -0.169 OA 
HETATM    8  C   UNL     1      -9.602   6.463  71.020  1.00  0.00    -0.188 C  
HETATM    9  C   UNL     1      -7.297   5.657  69.432  1.00  0.00    -0.070 C  
HETATM   10  C   UNL     1      -8.486   9.871  70.492  1.00  0.00     0.165 C  
HETATM   11  H   UNL     1     -10.337   7.276  68.090  1.00  0.00     0.000 HD 
HETATM   12  C   UNL     1     -10.535   7.940  71.284  1.00  0.00    -0.233 C  
HETATM   13  C   UNL     1      -9.832   9.460  71.424  1.00  0.00    -0.180 C  
HETATM   14  C   UNL     1     -10.786  10.655  71.523  1.00  0.00     2.114 A  
HETATM   15  C   UNL     1     -10.278  11.969  71.408  1.00  0.00     8.897 A  
HETATM   16  C   UNL     1     -11.124  13.068  71.638  1.00  0.00     4.655 A  
HETATM   17  C   UNL     1      -8.850  12.287  71.020  1.00  0.00    10.935 C  
HETATM   18  C   UNL     1      -7.872  11.122  71.122  1.00  0.00     5.240 C  
HETATM   19  C   UNL     1     -12.457  12.893  71.998  1.00  0.00     0.310 A  
HETATM   20  C   UNL     1     -12.941  11.603  72.183  1.00  0.00    -0.211 A  
ENDROOT
BRANCH   4  21
HETATM   21  C   UNL     1      -8.057   8.124  68.091  1.00  0.00    -0.128 C  
HETATM   22  C   UNL     1      -7.483   8.366  67.060  1.00  0.00    -0.088 C  
ENDBRANCH   4  21
BRANCH  19  23
HETATM   23  O   UNL     1     -13.349  13.912  72.201  1.00  0.00    -0.382 OA 
BRANCH  23  24
HETATM   24  C   UNL     1     -13.029  15.148  71.564  1.00  0.00    -0.382 C  
HETATM   25  C   UNL     1     -12.799  15.005  70.060  1.00  0.00    -0.118 C  
HETATM   26  C   UNL     1     -12.984  16.419  69.549  1.00  0.00     2.423 C  
HETATM   27  C   UNL     1     -14.145  16.966  70.371  1.00  0.00     8.895 C  
HETATM   28  C   UNL     1     -14.226  16.102  71.631  1.00  0.00     1.151 C  
ENDBRANCH  23  24
ENDBRANCH  19  23
TORSDOF 3
ENDMDL
MODEL      159
REMARK 921   NORMALIZED FREE ENERGY PREDICTED BY IDOCK:   52.94 KCAL/MOL
REMARK 922        TOTAL FREE ENERGY PREDICTED BY IDOCK:   61.85 KCAL/MOL
REMARK 923 INTER-LIGAND FREE ENERGY PREDICTED BY IDOCK:   60.23 KCAL/MOL
REMARK 924 INTRA-LIGAND FREE ENERGY PREDICTED BY IDOCK:    1.62 KCAL/MOL
REMARK 927      BINDING AFFINITY PREDICTED BY RF-SCORE:    0.00 PKD
ROOT
HETATM    1  C   UNL     1      -7.478  14.982  65.130  1.00  0.00     9.270 C  
HETATM    2  C   UNL     1      -6.911  14.705  63.864  1.00  0.00    24.476 C  
HETATM    3  C   UNL     1      -8.296  14.206  64.071  1.00  0.00    11.192 C  
HETATM    4  C   UNL     1      -9.208  14.869  65.793  1.00  0.00     0.041 C  
HETATM    5  C   UNL     1      -9.287  15.406  64.535  1.00  0.00     3.348 C  
HETATM    6  C   UNL     1      -9.364   9.989  66.651  1.00  0.00    -0.202 A  
HETATM    7  O   UNL     1     -10.562  14.746  66.230  1.00  0.00    -0.291 OA 
HETATM    8  C   UNL     1     -10.443  13.983  64.135  1.00  0.00     0.418 C  
HETATM    9  C   UNL     1      -9.635  16.780  64.048  1.00  0.00     7.428 C  
HETATM   10  C   UNL     1      -7.457  13.418  66.111  1.00  0.00     2.850 C  
HETATM   11  H   UNL     1     -10.982  15.051  67.024  1.00  0.00     0.000 HD 
HETATM   12  C   UNL     1     -10.070  12.561  65.115  1.00  0.00    -0.266 C  
HETATM   13  C   UNL     1      -8.520  12.191  65.648  1.00  0.00     0.738 C  
HETATM   14  C   UNL     1      -8.383  10.994  66.595  1.00  0.00    -0.155 A  
HETATM   15  C   UNL     1      -7.159  10.767  67.265  1.00  0.00    -0.091 A  
HETATM   16  C   UNL     1      -6.984   9.595  68.021  1.00  0.00    -0.078 A  
HETATM   17  C   UNL     1      -5.997  11.735  67.243  1.00  0.00    -0.124 C  
HETATM   18  C   UNL     1      -6.058  12.803  66.156  1.00  0.00     3.107 C  
HETATM   19  C   UNL     1      -7.988   8.636  68.113  1.00  0.00    -0.107 A  
HETATM   20  C   UNL     1      -9.165   8.821  67.398  1.00  0.00    -0.158 A  
ENDROOT
BRANCH   4  21
HETATM   21  C   UNL     1      -8.779  16.040  66.728  1.00  0.00    -0.287 C  
HETATM   22  C   UNL     1      -8.401  16.937  67.437  1.00  0.00    -0.201 C  
ENDBRANCH   4  21
BRANCH  19  23
HETATM   23  O   UNL     1      -7.905   7.490  68.860  1.00  0.00    -0.118 OA 
BRANCH  23  24
HETATM   24  C   UNL     1      -9.153   6.891  69.210  1.00  0.00    -0.140 C  
HETATM   25  C   UNL     1     -10.201   7.909  69.660  1.00  0.00    -0.207 C  
HETATM   26  C   UNL     1     -11.505   7.159  69.483  1.00  0.00     0.012 C  
HETATM   27  C   UNL     1     -11.314   6.374  68.191  1.00  0.00    -0.097 C  
HETATM   28  C   UNL     1      -9.803   6.267  67.970  1.00  0.00    -0.128 C  
ENDBRANCH  23  24
ENDBRANCH  19  23
TORSDOF 3
ENDMDL
MODEL      160
REMARK 921   NORMALIZED FREE ENERGY PREDICTED BY IDOCK:   56.04 KCAL/MOL
REMARK 922        TOTAL FREE ENERGY PREDICTED BY IDOCK:   65.49 KCAL/MOL
REMARK 923 INTER-LIGAND FREE ENERGY PREDICTED BY IDOCK:   65.83 KCAL/MOL
REMARK 924 INTRA-LIGAND FREE ENERGY PREDICTED BY IDOCK:   -0.34 KCAL/MOL
REMARK 927      BINDING AFFINITY PREDICTED BY RF-SCORE:    0.00 PKD
ROOT
HETATM    1  C   UNL     1      -8.039   4.373  68.564  1.00  0.00    -0.081 C  
HETATM    2  C   UNL     1      -7.671   4.735  69.883  1.00  0.00    -0.055 C  
HETATM    3  C   UNL     1      -8.976   5.268  69.410  1.00  0.00    -0.124 C  
HETATM    4  C   UNL     1      -9.629   4.497  67.617  1.00  0.00    -0.165 C  
HETATM    5  C   UNL     1      -9.940   4.073  68.882  1.00  0.00     0.094 C  
HETATM    6  C   UNL     1      -9.388   9.290  66.370  1.00  0.00    -0.247 A  
HETATM    7  O   UNL     1     -10.886   4.636  66.953  1.00  0.00    -0.171 OA 
HETATM    8  C   UNL     1     -11.070   5.569  68.973  1.00  0.00     0.178 C  
HETATM    9  C   UNL     1     -10.434   2.760  69.409  1.00  0.00     2.344 C  
HETATM   10  C   UNL     1      -7.776   5.846  67.483  1.00  0.00    -0.097 C  
HETATM   11  H   UNL     1     -11.187   4.281  66.126  1.00  0.00     0.000 HD 
HETATM   12  C   UNL     1     -10.468   6.886  67.962  1.00  0.00    -0.255 C  
HETATM   13  C   UNL     1      -8.834   7.149  67.667  1.00  0.00    -0.119 C  
HETATM   14  C   UNL     1      -8.482   8.255  66.666  1.00  0.00    -0.124 A  
HETATM   15  C   UNL     1      -7.156   8.376  66.193  1.00  0.00    -0.076 A  
HETATM   16  C   UNL     1      -6.799   9.472  65.388  1.00  0.00    -0.086 A  
HETATM   17  C   UNL     1      -6.065   7.369  66.483  1.00  0.00    -0.040 C  
HETATM   18  C   UNL     1      -6.358   6.400  67.623  1.00  0.00    -0.040 C  
HETATM   19  C   UNL     1      -7.723  10.458  65.057  1.00  0.00    -0.095 A  
HETATM   20  C   UNL     1      -9.008  10.381  65.579  1.00  0.00    -0.199 A  
ENDROOT
BRANCH   4  21
HETATM   21  C   UNL     1      -9.117   3.235  66.860  1.00  0.00    -0.191 C  
HETATM   22  C   UNL     1      -8.760   2.234  66.293  1.00  0.00    -0.120 C  
ENDBRANCH   4  21
BRANCH  19  23
HETATM   23  O   UNL     1      -7.460  11.532  64.248  1.00  0.00     1.418 OA 
BRANCH  23  24
HETATM   24  C   UNL     1      -6.571  12.509  64.790  1.00  0.00     7.902 C  
HETATM   25  C   UNL     1      -5.656  13.136  63.737  1.00  0.00    12.995 C  
HETATM   26  C   UNL     1      -5.207  14.423  64.397  1.00  0.00    20.379 C  
HETATM   27  C   UNL     1      -6.450  14.928  65.120  1.00  0.00    13.742 C  
HETATM   28  C   UNL     1      -7.364  13.714  65.305  1.00  0.00     9.070 C  
ENDBRANCH  23  24
ENDBRANCH  19  23
TORSDOF 3
ENDMDL
MODEL      161
REMARK 921   NORMALIZED FREE ENERGY PREDICTED BY IDOCK:   56.92 KCAL/MOL
REMARK 922        TOTAL FREE ENERGY PREDICTED BY IDOCK:   66.52 KCAL/MOL
REMARK 923 INTER-LIGAND FREE ENERGY PREDICTED BY IDOCK:   66.77 KCAL/MOL
REMARK 924 INTRA-LIGAND FREE ENERGY PREDICTED BY IDOCK:   -0.24 KCAL/MOL
REMARK 927      BINDING AFFINITY PREDICTED BY RF-SCORE:    0.00 PKD
ROOT
HETATM    1  C   UNL     1      -6.386  12.838  70.787  1.00  0.00     0.738 C  
HETATM    2  C   UNL     1      -6.591  12.976  69.393  1.00  0.00    -0.063 C  
HETATM    3  C   UNL     1      -7.821  12.803  70.210  1.00  0.00     3.344 C  
HETATM    4  C   UNL     1      -7.531  12.901  72.245  1.00  0.00    10.508 C  
HETATM    5  C   UNL     1      -7.897  13.910  71.395  1.00  0.00     5.525 C  
HETATM    6  C   UNL     1      -9.391   8.315  71.936  1.00  0.00    -0.282 A  
HETATM    7  O   UNL     1      -8.478  12.953  73.313  1.00  0.00    14.048 OA 
HETATM    8  C   UNL     1      -9.601  13.122  71.391  1.00  0.00    11.714 C  
HETATM    9  C   UNL     1      -7.791  15.401  71.500  1.00  0.00     4.095 C  
HETATM   10  C   UNL     1      -6.626  11.058  71.217  1.00  0.00     1.638 C  
HETATM   11  H   UNL     1      -8.344  12.998  74.252  1.00  0.00     0.000 HD 
HETATM   12  C   UNL     1      -9.499  11.379  71.659  1.00  0.00    11.497 C  
HETATM   13  C   UNL     1      -8.197  10.444  71.154  1.00  0.00     2.807 C  
HETATM   14  C   UNL     1      -8.201   8.971  71.575  1.00  0.00    -0.055 A  
HETATM   15  C   UNL     1      -7.039   8.186  71.392  1.00  0.00    -0.068 A  
HETATM   16  C   UNL     1      -7.083   6.804  71.644  1.00  0.00    -0.076 A  
HETATM   17  C   UNL     1      -5.706   8.750  70.952  1.00  0.00    -0.034 C  
HETATM   18  C   UNL     1      -5.756  10.149  70.348  1.00  0.00    -0.069 C  
HETATM   19  C   UNL     1      -8.256   6.180  72.057  1.00  0.00    -0.110 A  
HETATM   20  C   UNL     1      -9.418   6.935  72.168  1.00  0.00    -0.148 A  
ENDROOT
BRANCH   4  21
HETATM   21  C   UNL     1      -6.290  13.430  73.023  1.00  0.00     2.374 C  
HETATM   22  C   UNL     1      -5.347  13.886  73.619  1.00  0.00    -0.272 C  
ENDBRANCH   4  21
BRANCH  19  23
HETATM   23  O   UNL     1      -8.366   4.848  72.358  1.00  0.00    -0.116 OA 
BRANCH  23  24
HETATM   24  C   UNL     1      -7.479   3.981  71.650  1.00  0.00    -0.060 C  
HETATM   25  C   UNL     1      -7.551   2.531  72.130  1.00  0.00    -0.048 C  
HETATM   26  C   UNL     1      -6.962   1.757  70.969  1.00  0.00    -0.032 C  
HETATM   27  C   UNL     1      -7.503   2.466  69.733  1.00  0.00    -0.043 C  
HETATM   28  C   UNL     1      -7.909   3.871  70.184  1.00  0.00    -0.048 C  
ENDBRANCH  23  24
ENDBRANCH  19  23
TORSDOF 3
ENDMDL
MODEL      162
REMARK 921   NORMALIZED FREE ENERGY PREDICTED BY IDOCK:   70.38 KCAL/MOL
REMARK 922        TOTAL FREE ENERGY PREDICTED BY IDOCK:   82.35 KCAL/MOL
REMARK 923 INTER-LIGAND FREE ENERGY PREDICTED BY IDOCK:   82.18 KCAL/MOL
REMARK 924 INTRA-LIGAND FREE ENERGY PREDICTED BY IDOCK:    0.17 KCAL/MOL
REMARK 927      BINDING AFFINITY PREDICTED BY RF-SCORE:    0.00 PKD
ROOT
HETATM    1  C   UNL     1     -11.944  19.177  65.028  1.00  0.00     4.928 C  
HETATM    2  C   UNL     1     -13.012  20.008  65.443  1.00  0.00    10.337 C  
HETATM    3  C   UNL     1     -11.931  19.800  66.444  1.00  0.00     2.376 C  
HETATM    4  C   UNL     1     -10.258  18.841  65.726  1.00  0.00    -0.122 C  
HETATM    5  C   UNL     1     -10.480  20.188  65.827  1.00  0.00    -0.385 C  
HETATM    6  C   UNL     1     -11.544  15.627  69.276  1.00  0.00    -0.375 A  
HETATM    7  O   UNL     1      -8.982  18.628  66.331  1.00  0.00    -0.304 OA 
HETATM    8  C   UNL     1     -10.158  19.978  67.664  1.00  0.00    -0.562 C  
HETATM    9  C   UNL     1      -9.878  21.363  65.117  1.00  0.00     3.846 C  
HETATM   10  C   UNL     1     -12.147  17.542  65.861  1.00  0.00     4.295 C  
HETATM   11  H   UNL     1      -8.210  18.185  66.000  1.00  0.00     0.000 HD 
HETATM   12  C   UNL     1     -10.610  18.360  68.211  1.00  0.00    -0.240 C  
HETATM   13  C   UNL     1     -11.858  17.470  67.523  1.00  0.00     1.794 C  
HETATM   14  C   UNL     1     -12.041  16.034  68.025  1.00  0.00     0.558 A  
HETATM   15  C   UNL     1     -12.908  15.156  67.336  1.00  0.00     2.000 A  
HETATM   16  C   UNL     1     -13.187  13.887  67.872  1.00  0.00     3.407 A  
HETATM   17  C   UNL     1     -13.559  15.486  66.010  1.00  0.00     3.826 C  
HETATM   18  C   UNL     1     -13.541  16.960  65.624  1.00  0.00    10.000 C  
HETATM   19  C   UNL     1     -12.640  13.477  69.084  1.00  0.00     0.417 A  
HETATM   20  C   UNL     1     -11.846  14.364  69.800  1.00  0.00    -0.375 A  
ENDROOT
BRANCH   4  21
HETATM   21  C   UNL     1      -9.845  18.589  64.244  1.00  0.00     7.604 C  
HETATM   22  C   UNL     1      -9.490  18.427  63.105  1.00  0.00    20.865 C  
ENDBRANCH   4  21
BRANCH  19  23
HETATM   23  O   UNL     1     -12.835  12.244  69.650  1.00  0.00     0.441 OA 
BRANCH  23  24
HETATM   24  C   UNL     1     -12.062  11.181  69.093  1.00  0.00    -0.283 C  
HETATM   25  C   UNL     1     -12.920  10.049  68.529  1.00  0.00     4.848 C  
HETATM   26  C   UNL     1     -11.971   9.338  67.586  1.00  0.00     3.597 C  
HETATM   27  C   UNL     1     -11.181  10.463  66.929  1.00  0.00     0.058 C  
HETATM   28  C   UNL     1     -11.302  11.674  67.857  1.00  0.00    -0.369 C  
ENDBRANCH  23  24
ENDBRANCH  19  23
TORSDOF 3
ENDMDL
