MODEL        1
REMARK 921   NORMALIZED FREE ENERGY PREDICTED BY IDOCK:   -7.12 KCAL/MOL
REMARK 922        TOTAL FREE ENERGY PREDICTED BY IDOCK:   -9.57 KCAL/MOL
REMARK 923 INTER-LIGAND FREE ENERGY PREDICTED BY IDOCK:   -8.78 KCAL/MOL
REMARK 924 INTRA-LIGAND FREE ENERGY PREDICTED BY IDOCK:   -0.79 KCAL/MOL
REMARK 927      BINDING AFFINITY PREDICTED BY RF-SCORE:    0.00 PKD
ROOT
HETATM    1  C   UNL     1     -10.765  12.853  66.624  1.00  0.00    -0.265 C  
HETATM    2  N   UNL     1     -12.152  12.678  66.076  1.00  0.00    -0.574 NA 
HETATM    3  C   UNL     1      -9.900  13.680  65.639  1.00  0.00    -0.196 C  
HETATM    4  C   UNL     1     -12.777  13.966  65.716  1.00  0.00    -0.461 C  
HETATM    5  C   UNL     1     -10.680  13.928  64.335  1.00  0.00    -0.286 C  
HETATM    6  C   UNL     1     -11.196  12.592  63.742  1.00  0.00    -0.519 C  
HETATM    7  C   UNL     1     -11.910  14.767  64.733  1.00  0.00    -0.425 C  
HETATM    8  C   UNL     1     -12.042  11.872  64.827  1.00  0.00    -0.097 C  
ENDROOT
BRANCH   1   9
HETATM    9  C   UNL     1     -10.701  13.354  68.116  1.00  0.00    -0.253 C  
HETATM   10  O   UNL     1      -9.396  13.752  68.554  1.00  0.00    -0.239 OA 
HETATM   11  H   UNL     1      -9.358  14.054  69.453  1.00  0.00     0.000 HD 
BRANCH   9  12
HETATM   12  C   UNL     1     -11.224  12.299  69.089  1.00  0.00    -0.300 A  
HETATM   13  N   UNL     1     -12.236  10.258  70.734  1.00  0.00    -0.323 NA 
HETATM   14  C   UNL     1     -10.883  10.953  68.881  1.00  0.00    -0.262 A  
HETATM   15  C   UNL     1     -12.551  11.542  70.968  1.00  0.00    -0.357 A  
HETATM   16  C   UNL     1     -13.385  11.804  72.044  1.00  0.00    -0.417 A  
HETATM   17  C   UNL     1     -11.408   9.988  69.711  1.00  0.00    -0.228 A  
HETATM   18  C   UNL     1     -13.774  13.104  72.384  1.00  0.00    -0.640 A  
HETATM   19  C   UNL     1     -12.086  12.617  70.177  1.00  0.00    -0.368 A  
HETATM   20  C   UNL     1     -13.331  14.174  71.620  1.00  0.00    -0.364 A  
HETATM   21  C   UNL     1     -12.501  13.927  70.524  1.00  0.00    -0.422 A  
BRANCH  20  22
HETATM   22  O   UNL     1     -13.626  15.491  71.833  1.00  0.00    -0.446 OA 
HETATM   23  C   UNL     1     -13.603  15.947  73.181  1.00  0.00    -0.499 C  
ENDBRANCH  20  22
ENDBRANCH   9  12
ENDBRANCH   1   9
BRANCH   6  24
HETATM   24  C   UNL     1     -10.082  11.711  63.226  1.00  0.00    -0.454 C  
HETATM   25  C   UNL     1      -9.786  10.504  63.724  1.00  0.00    -0.385 C  
ENDBRANCH   6  24
TORSDOF 4
ENDMDL
MODEL        2
REMARK 921   NORMALIZED FREE ENERGY PREDICTED BY IDOCK:   -7.06 KCAL/MOL
REMARK 922        TOTAL FREE ENERGY PREDICTED BY IDOCK:   -9.49 KCAL/MOL
REMARK 923 INTER-LIGAND FREE ENERGY PREDICTED BY IDOCK:   -8.62 KCAL/MOL
REMARK 924 INTRA-LIGAND FREE ENERGY PREDICTED BY IDOCK:   -0.87 KCAL/MOL
REMARK 927      BINDING AFFINITY PREDICTED BY RF-SCORE:    0.00 PKD
ROOT
HETATM    1  C   UNL     1     -10.968  13.031  67.032  1.00  0.00    -0.265 C  
HETATM    2  N   UNL     1     -12.044  14.074  66.929  1.00  0.00    -0.439 NA 
HETATM    3  C   UNL     1      -9.935  13.211  65.890  1.00  0.00    -0.275 C  
HETATM    4  C   UNL     1     -11.492  15.442  66.874  1.00  0.00    -0.071 C  
HETATM    5  C   UNL     1     -10.418  14.299  64.913  1.00  0.00    -0.454 C  
HETATM    6  C   UNL     1     -11.852  13.992  64.414  1.00  0.00    -0.453 C  
HETATM    7  C   UNL     1     -10.478  15.604  65.731  1.00  0.00    -0.383 C  
HETATM    8  C   UNL     1     -12.777  13.838  65.653  1.00  0.00    -0.478 C  
ENDROOT
BRANCH   1   9
HETATM    9  C   UNL     1     -10.328  12.881  68.463  1.00  0.00    -0.229 C  
HETATM   10  O   UNL     1      -9.012  12.313  68.469  1.00  0.00    -0.302 OA 
HETATM   11  H   UNL     1      -8.626  12.222  69.332  1.00  0.00     0.000 HD 
BRANCH   9  12
HETATM   12  C   UNL     1     -11.208  12.045  69.391  1.00  0.00    -0.263 A  
HETATM   13  N   UNL     1     -12.888  10.420  70.949  1.00  0.00    -0.377 NA 
HETATM   14  C   UNL     1     -11.239  10.651  69.226  1.00  0.00    -0.332 A  
HETATM   15  C   UNL     1     -12.851  11.748  71.145  1.00  0.00    -0.267 A  
HETATM   16  C   UNL     1     -13.669  12.266  72.137  1.00  0.00    -0.207 A  
HETATM   17  C   UNL     1     -12.083   9.898  70.010  1.00  0.00     0.051 A  
HETATM   18  C   UNL     1     -13.708  13.633  72.430  1.00  0.00    -0.697 A  
HETATM   19  C   UNL     1     -12.037  12.625  70.392  1.00  0.00    -0.381 A  
HETATM   20  C   UNL     1     -12.918  14.513  71.703  1.00  0.00    -0.337 A  
HETATM   21  C   UNL     1     -12.098  14.009  70.691  1.00  0.00    -0.424 A  
BRANCH  20  22
HETATM   22  O   UNL     1     -12.851  15.866  71.879  1.00  0.00    -0.448 OA 
HETATM   23  C   UNL     1     -12.175  16.332  73.042  1.00  0.00    -0.523 C  
ENDBRANCH  20  22
ENDBRANCH   9  12
ENDBRANCH   1   9
BRANCH   6  24
HETATM   24  C   UNL     1     -11.913  12.777  63.517  1.00  0.00    -0.633 C  
HETATM   25  C   UNL     1     -12.870  11.843  63.580  1.00  0.00    -0.435 C  
ENDBRANCH   6  24
TORSDOF 4
ENDMDL
MODEL        3
REMARK 921   NORMALIZED FREE ENERGY PREDICTED BY IDOCK:   -7.02 KCAL/MOL
REMARK 922        TOTAL FREE ENERGY PREDICTED BY IDOCK:   -9.45 KCAL/MOL
REMARK 923 INTER-LIGAND FREE ENERGY PREDICTED BY IDOCK:   -8.58 KCAL/MOL
REMARK 924 INTRA-LIGAND FREE ENERGY PREDICTED BY IDOCK:   -0.87 KCAL/MOL
REMARK 927      BINDING AFFINITY PREDICTED BY RF-SCORE:    0.00 PKD
ROOT
HETATM    1  C   UNL     1     -10.915  12.892  67.068  1.00  0.00    -0.262 C  
HETATM    2  N   UNL     1     -11.971  13.956  66.989  1.00  0.00    -0.414 NA 
HETATM    3  C   UNL     1      -9.857  13.102  65.955  1.00  0.00    -0.241 C  
HETATM    4  C   UNL     1     -11.395  15.316  67.003  1.00  0.00    -0.230 C  
HETATM    5  C   UNL     1     -10.301  14.239  65.017  1.00  0.00    -0.448 C  
HETATM    6  C   UNL     1     -11.730  13.978  64.477  1.00  0.00    -0.428 C  
HETATM    7  C   UNL     1     -10.356  15.508  65.888  1.00  0.00    -0.365 C  
HETATM    8  C   UNL     1     -12.682  13.788  65.689  1.00  0.00    -0.478 C  
ENDROOT
BRANCH   1   9
HETATM    9  C   UNL     1     -10.306  12.669  68.503  1.00  0.00    -0.221 C  
HETATM   10  O   UNL     1      -8.906  12.958  68.607  1.00  0.00    -0.356 OA 
HETATM   11  H   UNL     1      -8.539  12.823  69.472  1.00  0.00     0.000 HD 
BRANCH   9  12
HETATM   12  C   UNL     1     -10.532  11.242  68.999  1.00  0.00    -0.221 A  
HETATM   13  N   UNL     1     -10.964   8.565  69.734  1.00  0.00    -0.182 NA 
HETATM   14  C   UNL     1      -9.821  10.192  68.396  1.00  0.00    -0.164 A  
HETATM   15  C   UNL     1     -11.634   9.556  70.344  1.00  0.00    -0.212 A  
HETATM   16  C   UNL     1     -12.531   9.198  71.338  1.00  0.00    -0.396 A  
HETATM   17  C   UNL     1     -10.071   8.896  68.787  1.00  0.00    -0.200 A  
HETATM   18  C   UNL     1     -13.278  10.146  72.042  1.00  0.00    -0.534 A  
HETATM   19  C   UNL     1     -11.472  10.923  70.019  1.00  0.00    -0.411 A  
HETATM   20  C   UNL     1     -13.138  11.493  71.739  1.00  0.00    -0.398 A  
HETATM   21  C   UNL     1     -12.247  11.871  70.731  1.00  0.00    -0.401 A  
BRANCH  20  22
HETATM   22  O   UNL     1     -13.796  12.527  72.343  1.00  0.00    -0.404 OA 
HETATM   23  C   UNL     1     -13.208  13.818  72.230  1.00  0.00    -0.467 C  
ENDBRANCH  20  22
ENDBRANCH   9  12
ENDBRANCH   1   9
BRANCH   6  24
HETATM   24  C   UNL     1     -11.793  12.804  63.528  1.00  0.00    -0.618 C  
HETATM   25  C   UNL     1     -12.728  11.847  63.576  1.00  0.00    -0.530 C  
ENDBRANCH   6  24
TORSDOF 4
ENDMDL
MODEL        4
REMARK 921   NORMALIZED FREE ENERGY PREDICTED BY IDOCK:   -6.83 KCAL/MOL
REMARK 922        TOTAL FREE ENERGY PREDICTED BY IDOCK:   -9.21 KCAL/MOL
REMARK 923 INTER-LIGAND FREE ENERGY PREDICTED BY IDOCK:   -8.61 KCAL/MOL
REMARK 924 INTRA-LIGAND FREE ENERGY PREDICTED BY IDOCK:   -0.60 KCAL/MOL
REMARK 927      BINDING AFFINITY PREDICTED BY RF-SCORE:    0.00 PKD
ROOT
HETATM    1  C   UNL     1     -11.712   8.992  70.972  1.00  0.00    -0.296 C  
HETATM    2  N   UNL     1     -10.264   8.749  71.289  1.00  0.00    -0.237 NA 
HETATM    3  C   UNL     1     -12.559   7.749  71.346  1.00  0.00    -0.339 C  
HETATM    4  C   UNL     1     -10.062   8.326  72.689  1.00  0.00    -0.295 C  
HETATM    5  C   UNL     1     -11.635   6.595  71.776  1.00  0.00    -0.347 C  
HETATM    6  C   UNL     1     -10.564   6.316  70.691  1.00  0.00    -0.301 C  
HETATM    7  C   UNL     1     -10.902   7.088  73.038  1.00  0.00    -0.342 C  
HETATM    8  C   UNL     1      -9.794   7.637  70.415  1.00  0.00    -0.183 C  
ENDROOT
BRANCH   1   9
HETATM    9  C   UNL     1     -12.288  10.354  71.516  1.00  0.00    -0.368 C  
HETATM   10  O   UNL     1     -13.639  10.280  71.989  1.00  0.00    -0.377 OA 
HETATM   11  H   UNL     1     -13.987  11.101  72.317  1.00  0.00     0.000 HD 
BRANCH   9  12
HETATM   12  C   UNL     1     -12.216  11.459  70.463  1.00  0.00    -0.478 A  
HETATM   13  N   UNL     1     -11.922  13.422  68.476  1.00  0.00    -0.355 NA 
HETATM   14  C   UNL     1     -11.874  11.121  69.144  1.00  0.00    -0.419 A  
HETATM   15  C   UNL     1     -12.279  13.764  69.724  1.00  0.00    -0.310 A  
HETATM   16  C   UNL     1     -12.492  15.110  69.976  1.00  0.00    -0.316 A  
HETATM   17  C   UNL     1     -11.736  12.119  68.207  1.00  0.00    -0.342 A  
HETATM   18  C   UNL     1     -12.871  15.579  71.237  1.00  0.00    -0.540 A  
HETATM   19  C   UNL     1     -12.436  12.831  70.774  1.00  0.00    -0.357 A  
HETATM   20  C   UNL     1     -13.031  14.682  72.284  1.00  0.00    -0.355 A  
HETATM   21  C   UNL     1     -12.807  13.322  72.050  1.00  0.00    -0.313 A  
BRANCH  20  22
HETATM   22  O   UNL     1     -13.399  14.992  73.562  1.00  0.00    -0.482 OA 
HETATM   23  C   UNL     1     -12.444  15.689  74.356  1.00  0.00    -0.634 C  
ENDBRANCH  20  22
ENDBRANCH   9  12
ENDBRANCH   1   9
BRANCH   6  24
HETATM   24  C   UNL     1     -11.150   5.737  69.424  1.00  0.00    -0.259 C  
HETATM   25  C   UNL     1     -11.064   6.317  68.221  1.00  0.00    -0.364 C  
ENDBRANCH   6  24
TORSDOF 4
ENDMDL
MODEL        5
REMARK 921   NORMALIZED FREE ENERGY PREDICTED BY IDOCK:   -6.56 KCAL/MOL
REMARK 922        TOTAL FREE ENERGY PREDICTED BY IDOCK:   -8.88 KCAL/MOL
REMARK 923 INTER-LIGAND FREE ENERGY PREDICTED BY IDOCK:   -8.64 KCAL/MOL
REMARK 924 INTRA-LIGAND FREE ENERGY PREDICTED BY IDOCK:   -0.24 KCAL/MOL
REMARK 927      BINDING AFFINITY PREDICTED BY RF-SCORE:    0.00 PKD
ROOT
HETATM    1  C   UNL     1     -11.240  13.784  68.047  1.00  0.00    -0.267 C  
HETATM    2  N   UNL     1     -12.029  14.219  66.846  1.00  0.00    -0.433 NA 
HETATM    3  C   UNL     1      -9.803  13.381  67.628  1.00  0.00    -0.226 C  
HETATM    4  C   UNL     1     -11.343  15.280  66.081  1.00  0.00    -0.160 C  
HETATM    5  C   UNL     1      -9.680  13.399  66.093  1.00  0.00    -0.260 C  
HETATM    6  C   UNL     1     -10.786  12.529  65.444  1.00  0.00    -0.316 C  
HETATM    7  C   UNL     1      -9.925  14.859  65.667  1.00  0.00    -0.389 C  
HETATM    8  C   UNL     1     -12.165  13.039  65.946  1.00  0.00    -0.432 C  
ENDROOT
BRANCH   1   9
HETATM    9  C   UNL     1     -11.302  14.772  69.272  1.00  0.00    -0.294 C  
HETATM   10  O   UNL     1     -10.046  14.983  69.929  1.00  0.00    -0.440 OA 
HETATM   11  H   UNL     1     -10.083  15.579  70.668  1.00  0.00     0.000 HD 
BRANCH   9  12
HETATM   12  C   UNL     1     -12.312  14.309  70.321  1.00  0.00    -0.418 A  
HETATM   13  N   UNL     1     -14.107  13.593  72.359  1.00  0.00    -0.713 NA 
HETATM   14  C   UNL     1     -13.119  15.266  70.956  1.00  0.00    -0.544 A  
HETATM   15  C   UNL     1     -13.367  12.657  71.743  1.00  0.00    -0.310 A  
HETATM   16  C   UNL     1     -13.531  11.344  72.156  1.00  0.00    -0.203 A  
HETATM   17  C   UNL     1     -13.980  14.866  71.954  1.00  0.00    -0.488 A  
HETATM   18  C   UNL     1     -12.816  10.289  71.582  1.00  0.00    -0.568 A  
HETATM   19  C   UNL     1     -12.438  12.948  70.717  1.00  0.00    -0.370 A  
HETATM   20  C   UNL     1     -11.898  10.551  70.575  1.00  0.00    -0.347 A  
HETATM   21  C   UNL     1     -11.710  11.870  70.155  1.00  0.00    -0.337 A  
BRANCH  20  22
HETATM   22  O   UNL     1     -11.133   9.625  69.923  1.00  0.00    -0.236 OA 
HETATM   23  C   UNL     1      -9.829  10.033  69.524  1.00  0.00    -0.229 C  
ENDBRANCH  20  22
ENDBRANCH   9  12
ENDBRANCH   1   9
BRANCH   6  24
HETATM   24  C   UNL     1     -10.605  11.053  65.712  1.00  0.00    -0.260 C  
HETATM   25  C   UNL     1      -9.869  10.235  64.951  1.00  0.00    -0.404 C  
ENDBRANCH   6  24
TORSDOF 4
ENDMDL
MODEL        6
REMARK 921   NORMALIZED FREE ENERGY PREDICTED BY IDOCK:   -6.55 KCAL/MOL
REMARK 922        TOTAL FREE ENERGY PREDICTED BY IDOCK:   -8.86 KCAL/MOL
REMARK 923 INTER-LIGAND FREE ENERGY PREDICTED BY IDOCK:   -8.11 KCAL/MOL
REMARK 924 INTRA-LIGAND FREE ENERGY PREDICTED BY IDOCK:   -0.75 KCAL/MOL
REMARK 927      BINDING AFFINITY PREDICTED BY RF-SCORE:    0.00 PKD
ROOT
HETATM    1  C   UNL     1     -10.237  15.971  68.416  1.00  0.00    -0.236 C  
HETATM    2  N   UNL     1      -8.754  15.957  68.644  1.00  0.00    -0.187 NA 
HETATM    3  C   UNL     1     -10.578  16.800  67.151  1.00  0.00    -0.256 C  
HETATM    4  C   UNL     1      -8.009  15.504  67.453  1.00  0.00    -0.185 C  
HETATM    5  C   UNL     1      -9.307  17.483  66.614  1.00  0.00    -0.275 C  
HETATM    6  C   UNL     1      -8.612  18.304  67.730  1.00  0.00    -0.263 C  
HETATM    7  C   UNL     1      -8.352  16.343  66.212  1.00  0.00    -0.362 C  
HETATM    8  C   UNL     1      -8.330  17.358  68.928  1.00  0.00    -0.160 C  
ENDROOT
BRANCH   1   9
HETATM    9  C   UNL     1     -10.927  14.556  68.465  1.00  0.00    -0.249 C  
HETATM   10  O   UNL     1     -11.677  14.219  67.291  1.00  0.00    -0.356 OA 
HETATM   11  H   UNL     1     -12.094  13.366  67.321  1.00  0.00     0.000 HD 
BRANCH   9  12
HETATM   12  C   UNL     1     -11.853  14.419  69.672  1.00  0.00    -0.372 A  
HETATM   13  N   UNL     1     -13.461  14.303  71.973  1.00  0.00    -0.375 NA 
HETATM   14  C   UNL     1     -12.409  15.578  70.238  1.00  0.00    -0.431 A  
HETATM   15  C   UNL     1     -12.964  13.180  71.431  1.00  0.00    -0.298 A  
HETATM   16  C   UNL     1     -13.281  11.982  72.053  1.00  0.00    -0.481 A  
HETATM   17  C   UNL     1     -13.186  15.470  71.369  1.00  0.00    -0.510 A  
HETATM   18  C   UNL     1     -12.823  10.751  71.572  1.00  0.00    -0.567 A  
HETATM   19  C   UNL     1     -12.142  13.165  70.281  1.00  0.00    -0.399 A  
HETATM   20  C   UNL     1     -12.013  10.713  70.446  1.00  0.00    -0.346 A  
HETATM   21  C   UNL     1     -11.674  11.912  69.815  1.00  0.00    -0.403 A  
BRANCH  20  22
HETATM   22  O   UNL     1     -11.497   9.590  69.864  1.00  0.00    -0.184 OA 
HETATM   23  C   UNL     1     -10.738   9.773  68.673  1.00  0.00    -0.216 C  
ENDBRANCH  20  22
ENDBRANCH   9  12
ENDBRANCH   1   9
BRANCH   6  24
HETATM   24  C   UNL     1      -9.413  19.515  68.152  1.00  0.00    -0.439 C  
HETATM   25  C   UNL     1      -9.935  20.406  67.300  1.00  0.00    -0.564 C  
ENDBRANCH   6  24
TORSDOF 4
ENDMDL
MODEL        7
REMARK 921   NORMALIZED FREE ENERGY PREDICTED BY IDOCK:   -6.51 KCAL/MOL
REMARK 922        TOTAL FREE ENERGY PREDICTED BY IDOCK:   -8.82 KCAL/MOL
REMARK 923 INTER-LIGAND FREE ENERGY PREDICTED BY IDOCK:   -8.13 KCAL/MOL
REMARK 924 INTRA-LIGAND FREE ENERGY PREDICTED BY IDOCK:   -0.69 KCAL/MOL
REMARK 927      BINDING AFFINITY PREDICTED BY RF-SCORE:    0.00 PKD
ROOT
HETATM    1  C   UNL     1     -11.498   8.548  70.591  1.00  0.00    -0.228 C  
HETATM    2  N   UNL     1     -10.148   8.596  71.247  1.00  0.00    -0.220 NA 
HETATM    3  C   UNL     1     -12.186   7.189  70.876  1.00  0.00    -0.354 C  
HETATM    4  C   UNL     1     -10.217   8.288  72.689  1.00  0.00    -0.298 C  
HETATM    5  C   UNL     1     -11.209   6.250  71.607  1.00  0.00    -0.337 C  
HETATM    6  C   UNL     1      -9.878   6.124  70.823  1.00  0.00    -0.220 C  
HETATM    7  C   UNL     1     -10.893   6.934  72.952  1.00  0.00    -0.318 C  
HETATM    8  C   UNL     1      -9.301   7.549  70.608  1.00  0.00    -0.163 C  
ENDROOT
BRANCH   1   9
HETATM    9  C   UNL     1     -12.410   9.803  70.863  1.00  0.00    -0.290 C  
HETATM   10  O   UNL     1     -13.817   9.535  70.822  1.00  0.00    -0.552 OA 
HETATM   11  H   UNL     1     -14.368  10.291  70.986  1.00  0.00     0.000 HD 
BRANCH   9  12
HETATM   12  C   UNL     1     -12.118  10.938  69.883  1.00  0.00    -0.428 A  
HETATM   13  N   UNL     1     -11.419  12.946  68.046  1.00  0.00    -0.297 NA 
HETATM   14  C   UNL     1     -11.631  10.624  68.604  1.00  0.00    -0.297 A  
HETATM   15  C   UNL     1     -11.911  13.268  69.254  1.00  0.00    -0.331 A  
HETATM   16  C   UNL     1     -12.054  14.616  69.541  1.00  0.00    -0.335 A  
HETATM   17  C   UNL     1     -11.298  11.644  67.741  1.00  0.00    -0.288 A  
HETATM   18  C   UNL     1     -12.560  15.065  70.765  1.00  0.00    -0.429 A  
HETATM   19  C   UNL     1     -12.274  12.310  70.229  1.00  0.00    -0.342 A  
HETATM   20  C   UNL     1     -12.922  14.144  71.737  1.00  0.00    -0.348 A  
HETATM   21  C   UNL     1     -12.772  12.781  71.469  1.00  0.00    -0.330 A  
BRANCH  20  22
HETATM   22  O   UNL     1     -13.431  14.434  72.971  1.00  0.00    -0.615 OA 
HETATM   23  C   UNL     1     -13.155  15.730  73.493  1.00  0.00    -0.548 C  
ENDBRANCH  20  22
ENDBRANCH   9  12
ENDBRANCH   1   9
BRANCH   6  24
HETATM   24  C   UNL     1     -10.037   5.383  69.515  1.00  0.00    -0.310 C  
HETATM   25  C   UNL     1      -9.605   4.135  69.300  1.00  0.00    -0.256 C  
ENDBRANCH   6  24
TORSDOF 4
ENDMDL
MODEL        8
REMARK 921   NORMALIZED FREE ENERGY PREDICTED BY IDOCK:   -6.49 KCAL/MOL
REMARK 922        TOTAL FREE ENERGY PREDICTED BY IDOCK:   -8.79 KCAL/MOL
REMARK 923 INTER-LIGAND FREE ENERGY PREDICTED BY IDOCK:   -8.09 KCAL/MOL
REMARK 924 INTRA-LIGAND FREE ENERGY PREDICTED BY IDOCK:   -0.70 KCAL/MOL
REMARK 927      BINDING AFFINITY PREDICTED BY RF-SCORE:    0.00 PKD
ROOT
HETATM    1  C   UNL     1     -10.540  14.925  68.538  1.00  0.00    -0.245 C  
HETATM    2  N   UNL     1      -9.047  15.073  68.561  1.00  0.00    -0.181 NA 
HETATM    3  C   UNL     1     -11.149  15.792  67.407  1.00  0.00    -0.235 C  
HETATM    4  C   UNL     1      -8.438  14.796  67.244  1.00  0.00    -0.214 C  
HETATM    5  C   UNL     1     -10.051  16.659  66.763  1.00  0.00    -0.293 C  
HETATM    6  C   UNL     1      -9.296  17.478  67.840  1.00  0.00    -0.265 C  
HETATM    7  C   UNL     1      -9.046  15.671  66.138  1.00  0.00    -0.378 C  
HETATM    8  C   UNL     1      -8.741  16.491  68.903  1.00  0.00    -0.247 C  
ENDROOT
BRANCH   1   9
HETATM    9  C   UNL     1     -11.058  13.437  68.560  1.00  0.00    -0.270 C  
HETATM   10  O   UNL     1     -11.796  13.048  67.395  1.00  0.00    -0.358 OA 
HETATM   11  H   UNL     1     -12.109  12.151  67.408  1.00  0.00     0.000 HD 
BRANCH   9  12
HETATM   12  C   UNL     1     -11.927  13.158  69.785  1.00  0.00    -0.382 A  
HETATM   13  N   UNL     1     -13.445  12.789  72.120  1.00  0.00    -0.542 NA 
HETATM   14  C   UNL     1     -12.609  14.225  70.392  1.00  0.00    -0.405 A  
HETATM   15  C   UNL     1     -12.825  11.750  71.539  1.00  0.00    -0.345 A  
HETATM   16  C   UNL     1     -12.970  10.508  72.138  1.00  0.00    -0.366 A  
HETATM   17  C   UNL     1     -13.336  13.995  71.538  1.00  0.00    -0.350 A  
HETATM   18  C   UNL     1     -12.373   9.357  71.616  1.00  0.00    -0.465 A  
HETATM   19  C   UNL     1     -12.038  11.865  70.369  1.00  0.00    -0.421 A  
HETATM   20  C   UNL     1     -11.595   9.446  70.471  1.00  0.00    -0.235 A  
HETATM   21  C   UNL     1     -11.427  10.692  69.861  1.00  0.00    -0.393 A  
BRANCH  20  22
HETATM   22  O   UNL     1     -10.956   8.411  69.849  1.00  0.00    -0.239 OA 
HETATM   23  C   UNL     1     -11.192   7.105  70.365  1.00  0.00    -0.287 C  
ENDBRANCH  20  22
ENDBRANCH   9  12
ENDBRANCH   1   9
BRANCH   6  24
HETATM   24  C   UNL     1     -10.153  18.552  68.468  1.00  0.00    -0.414 C  
HETATM   25  C   UNL     1     -10.453  19.716  67.879  1.00  0.00    -0.556 C  
ENDBRANCH   6  24
TORSDOF 4
ENDMDL
MODEL        9
REMARK 921   NORMALIZED FREE ENERGY PREDICTED BY IDOCK:   -6.35 KCAL/MOL
REMARK 922        TOTAL FREE ENERGY PREDICTED BY IDOCK:   -8.62 KCAL/MOL
REMARK 923 INTER-LIGAND FREE ENERGY PREDICTED BY IDOCK:   -7.77 KCAL/MOL
REMARK 924 INTRA-LIGAND FREE ENERGY PREDICTED BY IDOCK:   -0.85 KCAL/MOL
REMARK 927      BINDING AFFINITY PREDICTED BY RF-SCORE:    0.00 PKD
ROOT
HETATM    1  C   UNL     1     -10.616  15.551  67.705  1.00  0.00    -0.281 C  
HETATM    2  N   UNL     1      -9.553  14.585  67.268  1.00  0.00    -0.221 NA 
HETATM    3  C   UNL     1     -11.911  14.788  68.086  1.00  0.00    -0.318 C  
HETATM    4  C   UNL     1      -9.314  13.527  68.269  1.00  0.00    -0.205 C  
HETATM    5  C   UNL     1     -11.758  13.294  67.746  1.00  0.00    -0.398 C  
HETATM    6  C   UNL     1     -11.337  13.109  66.266  1.00  0.00    -0.348 C  
HETATM    7  C   UNL     1     -10.605  12.776  68.627  1.00  0.00    -0.256 C  
HETATM    8  C   UNL     1     -10.035  13.920  66.024  1.00  0.00    -0.310 C  
ENDROOT
BRANCH   1   9
HETATM    9  C   UNL     1     -10.150  16.607  68.777  1.00  0.00    -0.270 C  
HETATM   10  O   UNL     1     -11.065  16.794  69.864  1.00  0.00    -0.423 OA 
HETATM   11  H   UNL     1     -10.785  17.431  70.510  1.00  0.00     0.000 HD 
BRANCH   9  12
HETATM   12  C   UNL     1      -9.881  17.972  68.146  1.00  0.00    -0.341 A  
HETATM   13  N   UNL     1      -9.460  20.419  66.832  1.00  0.00    -0.387 NA 
HETATM   14  C   UNL     1     -10.907  18.602  67.423  1.00  0.00    -0.381 A  
HETATM   15  C   UNL     1      -8.474  19.849  67.543  1.00  0.00    -0.329 A  
HETATM   16  C   UNL     1      -7.261  20.518  67.596  1.00  0.00    -0.356 A  
HETATM   17  C   UNL     1     -10.650  19.798  66.792  1.00  0.00    -0.467 A  
HETATM   18  C   UNL     1      -6.168  20.019  68.310  1.00  0.00    -0.300 A  
HETATM   19  C   UNL     1      -8.614  18.616  68.222  1.00  0.00    -0.347 A  
HETATM   20  C   UNL     1      -6.281  18.811  68.983  1.00  0.00    -0.240 A  
HETATM   21  C   UNL     1      -7.492  18.117  68.929  1.00  0.00    -0.246 A  
BRANCH  20  22
HETATM   22  O   UNL     1      -5.303  18.205  69.720  1.00  0.00    -0.190 OA 
HETATM   23  C   UNL     1      -5.502  16.835  70.052  1.00  0.00    -0.206 C  
ENDBRANCH  20  22
ENDBRANCH   9  12
ENDBRANCH   1   9
BRANCH   6  24
HETATM   24  C   UNL     1     -12.426  13.497  65.293  1.00  0.00    -0.525 C  
HETATM   25  C   UNL     1     -12.295  14.443  64.355  1.00  0.00    -0.428 C  
ENDBRANCH   6  24
TORSDOF 4
ENDMDL
MODEL       10
REMARK 921   NORMALIZED FREE ENERGY PREDICTED BY IDOCK:   -6.28 KCAL/MOL
REMARK 922        TOTAL FREE ENERGY PREDICTED BY IDOCK:   -8.54 KCAL/MOL
REMARK 923 INTER-LIGAND FREE ENERGY PREDICTED BY IDOCK:   -8.28 KCAL/MOL
REMARK 924 INTRA-LIGAND FREE ENERGY PREDICTED BY IDOCK:   -0.26 KCAL/MOL
REMARK 927      BINDING AFFINITY PREDICTED BY RF-SCORE:    0.00 PKD
ROOT
HETATM    1  C   UNL     1     -11.816   9.020  72.109  1.00  0.00    -0.313 C  
HETATM    2  N   UNL     1     -12.062   7.541  72.196  1.00  0.00    -0.288 NA 
HETATM    3  C   UNL     1     -10.438   9.296  71.456  1.00  0.00    -0.385 C  
HETATM    4  C   UNL     1     -11.910   6.871  70.889  1.00  0.00    -0.376 C  
HETATM    5  C   UNL     1      -9.681   7.972  71.246  1.00  0.00    -0.199 C  
HETATM    6  C   UNL     1      -9.594   7.174  72.572  1.00  0.00    -0.172 C  
HETATM    7  C   UNL     1     -10.535   7.149  70.262  1.00  0.00    -0.232 C  
HETATM    8  C   UNL     1     -11.036   6.968  73.112  1.00  0.00    -0.281 C  
ENDROOT
BRANCH   1   9
HETATM    9  C   UNL     1     -13.002   9.852  71.491  1.00  0.00    -0.422 C  
HETATM   10  O   UNL     1     -14.028   9.061  70.878  1.00  0.00    -0.587 OA 
HETATM   11  H   UNL     1     -14.743   9.563  70.506  1.00  0.00     0.000 HD 
BRANCH   9  12
HETATM   12  C   UNL     1     -12.506  10.864  70.459  1.00  0.00    -0.438 A  
HETATM   13  N   UNL     1     -11.445  12.619  68.540  1.00  0.00    -0.286 NA 
HETATM   14  C   UNL     1     -12.017  10.396  69.229  1.00  0.00    -0.105 A  
HETATM   15  C   UNL     1     -11.935  13.091  69.698  1.00  0.00    -0.302 A  
HETATM   16  C   UNL     1     -11.893  14.462  69.893  1.00  0.00    -0.382 A  
HETATM   17  C   UNL     1     -11.502  11.296  68.323  1.00  0.00    -0.308 A  
HETATM   18  C   UNL     1     -12.379  15.063  71.059  1.00  0.00    -0.394 A  
HETATM   19  C   UNL     1     -12.475  12.265  70.710  1.00  0.00    -0.356 A  
HETATM   20  C   UNL     1     -12.913  14.272  72.066  1.00  0.00    -0.355 A  
HETATM   21  C   UNL     1     -12.951  12.886  71.892  1.00  0.00    -0.405 A  
BRANCH  20  22
HETATM   22  O   UNL     1     -13.425  14.716  73.252  1.00  0.00    -0.570 OA 
HETATM   23  C   UNL     1     -12.525  15.373  74.138  1.00  0.00    -0.642 C  
ENDBRANCH  20  22
ENDBRANCH   9  12
ENDBRANCH   1   9
BRANCH   6  24
HETATM   24  C   UNL     1      -8.703   7.835  73.597  1.00  0.00    -0.308 C  
HETATM   25  C   UNL     1      -7.387   8.022  73.441  1.00  0.00    -0.173 C  
ENDBRANCH   6  24
TORSDOF 4
ENDMDL
MODEL       11
REMARK 921   NORMALIZED FREE ENERGY PREDICTED BY IDOCK:   -6.28 KCAL/MOL
REMARK 922        TOTAL FREE ENERGY PREDICTED BY IDOCK:   -8.53 KCAL/MOL
REMARK 923 INTER-LIGAND FREE ENERGY PREDICTED BY IDOCK:   -7.61 KCAL/MOL
REMARK 924 INTRA-LIGAND FREE ENERGY PREDICTED BY IDOCK:   -0.92 KCAL/MOL
REMARK 927      BINDING AFFINITY PREDICTED BY RF-SCORE:    0.00 PKD
ROOT
HETATM    1  C   UNL     1     -10.606  12.507  67.117  1.00  0.00    -0.228 C  
HETATM    2  N   UNL     1      -9.936  12.012  68.366  1.00  0.00    -0.210 NA 
HETATM    3  C   UNL     1     -10.834  11.334  66.129  1.00  0.00    -0.281 C  
HETATM    4  C   UNL     1     -10.665  10.886  68.982  1.00  0.00    -0.224 C  
HETATM    5  C   UNL     1     -10.160  10.058  66.666  1.00  0.00    -0.289 C  
HETATM    6  C   UNL     1      -8.667  10.320  66.989  1.00  0.00    -0.133 C  
HETATM    7  C   UNL     1     -10.873   9.730  67.992  1.00  0.00    -0.276 C  
HETATM    8  C   UNL     1      -8.586  11.511  67.982  1.00  0.00    -0.150 C  
ENDROOT
BRANCH   1   9
HETATM    9  C   UNL     1     -11.879  13.403  67.359  1.00  0.00    -0.375 C  
HETATM   10  O   UNL     1     -12.541  13.831  66.163  1.00  0.00    -0.438 OA 
HETATM   11  H   UNL     1     -13.308  14.371  66.309  1.00  0.00     0.000 HD 
BRANCH   9  12
HETATM   12  C   UNL     1     -11.548  14.644  68.186  1.00  0.00    -0.362 A  
HETATM   13  N   UNL     1     -10.769  16.920  69.637  1.00  0.00    -0.261 NA 
HETATM   14  C   UNL     1     -10.888  15.717  67.567  1.00  0.00    -0.315 A  
HETATM   15  C   UNL     1     -11.426  15.917  70.242  1.00  0.00    -0.366 A  
HETATM   16  C   UNL     1     -11.697  16.061  71.594  1.00  0.00    -0.583 A  
HETATM   17  C   UNL     1     -10.522  16.809  68.322  1.00  0.00    -0.341 A  
HETATM   18  C   UNL     1     -12.379  15.083  72.324  1.00  0.00    -0.434 A  
HETATM   19  C   UNL     1     -11.840  14.741  69.576  1.00  0.00    -0.366 A  
HETATM   20  C   UNL     1     -12.793  13.919  71.692  1.00  0.00    -0.349 A  
HETATM   21  C   UNL     1     -12.517  13.752  70.332  1.00  0.00    -0.384 A  
BRANCH  20  22
HETATM   22  O   UNL     1     -13.468  12.884  72.273  1.00  0.00    -0.562 OA 
HETATM   23  C   UNL     1     -13.155  11.573  71.815  1.00  0.00    -0.398 C  
ENDBRANCH  20  22
ENDBRANCH   9  12
ENDBRANCH   1   9
BRANCH   6  24
HETATM   24  C   UNL     1      -7.834  10.566  65.753  1.00  0.00    -0.154 C  
HETATM   25  C   UNL     1      -7.796   9.745  64.696  1.00  0.00    -0.136 C  
ENDBRANCH   6  24
TORSDOF 4
ENDMDL
MODEL       12
REMARK 921   NORMALIZED FREE ENERGY PREDICTED BY IDOCK:   -6.25 KCAL/MOL
REMARK 922        TOTAL FREE ENERGY PREDICTED BY IDOCK:   -8.49 KCAL/MOL
REMARK 923 INTER-LIGAND FREE ENERGY PREDICTED BY IDOCK:   -8.25 KCAL/MOL
REMARK 924 INTRA-LIGAND FREE ENERGY PREDICTED BY IDOCK:   -0.25 KCAL/MOL
REMARK 927      BINDING AFFINITY PREDICTED BY RF-SCORE:    0.00 PKD
ROOT
HETATM    1  C   UNL     1     -10.170  16.795  67.928  1.00  0.00    -0.300 C  
HETATM    2  N   UNL     1     -10.699  17.869  67.023  1.00  0.00    -0.274 NA 
HETATM    3  C   UNL     1      -8.892  17.286  68.655  1.00  0.00    -0.261 C  
HETATM    4  C   UNL     1     -10.908  19.146  67.735  1.00  0.00    -0.300 C  
HETATM    5  C   UNL     1      -8.472  18.662  68.105  1.00  0.00    -0.336 C  
HETATM    6  C   UNL     1      -8.334  18.616  66.562  1.00  0.00    -0.304 C  
HETATM    7  C   UNL     1      -9.629  19.622  68.441  1.00  0.00    -0.468 C  
HETATM    8  C   UNL     1      -9.676  18.111  65.967  1.00  0.00    -0.105 C  
ENDROOT
BRANCH   1   9
HETATM    9  C   UNL     1     -11.243  16.143  68.879  1.00  0.00    -0.351 C  
HETATM   10  O   UNL     1     -11.176  16.582  70.241  1.00  0.00    -0.464 OA 
HETATM   11  H   UNL     1     -11.823  16.189  70.814  1.00  0.00     0.000 HD 
BRANCH   9  12
HETATM   12  C   UNL     1     -11.155  14.618  68.870  1.00  0.00    -0.268 A  
HETATM   13  N   UNL     1     -11.030  11.818  68.675  1.00  0.00    -0.210 NA 
HETATM   14  C   UNL     1     -10.405  13.985  67.865  1.00  0.00    -0.239 A  
HETATM   15  C   UNL     1     -11.728  12.402  69.662  1.00  0.00    -0.307 A  
HETATM   16  C   UNL     1     -12.370  11.568  70.564  1.00  0.00    -0.432 A  
HETATM   17  C   UNL     1     -10.379  12.610  67.808  1.00  0.00    -0.220 A  
HETATM   18  C   UNL     1     -13.120  12.067  71.633  1.00  0.00    -0.422 A  
HETATM   19  C   UNL     1     -11.840  13.803  69.815  1.00  0.00    -0.394 A  
HETATM   20  C   UNL     1     -13.246  13.438  71.802  1.00  0.00    -0.407 A  
HETATM   21  C   UNL     1     -12.616  14.293  70.895  1.00  0.00    -0.426 A  
BRANCH  20  22
HETATM   22  O   UNL     1     -13.941  14.067  72.797  1.00  0.00    -0.669 OA 
HETATM   23  C   UNL     1     -13.749  15.471  72.928  1.00  0.00    -0.512 C  
ENDBRANCH  20  22
ENDBRANCH   9  12
ENDBRANCH   1   9
BRANCH   6  24
HETATM   24  C   UNL     1      -7.166  17.774  66.103  1.00  0.00    -0.346 C  
HETATM   25  C   UNL     1      -5.915  18.229  65.972  1.00  0.00    -0.233 C  
ENDBRANCH   6  24
TORSDOF 4
ENDMDL
MODEL       13
REMARK 921   NORMALIZED FREE ENERGY PREDICTED BY IDOCK:   -6.23 KCAL/MOL
REMARK 922        TOTAL FREE ENERGY PREDICTED BY IDOCK:   -8.48 KCAL/MOL
REMARK 923 INTER-LIGAND FREE ENERGY PREDICTED BY IDOCK:   -7.77 KCAL/MOL
REMARK 924 INTRA-LIGAND FREE ENERGY PREDICTED BY IDOCK:   -0.71 KCAL/MOL
REMARK 927      BINDING AFFINITY PREDICTED BY RF-SCORE:    0.00 PKD
ROOT
HETATM    1  C   UNL     1      -9.552  17.433  67.646  1.00  0.00    -0.261 C  
HETATM    2  N   UNL     1      -9.447  18.029  66.272  1.00  0.00    -0.449 NA 
HETATM    3  C   UNL     1      -9.829  18.542  68.692  1.00  0.00    -0.419 C  
HETATM    4  C   UNL     1     -10.625  18.850  65.928  1.00  0.00    -0.373 C  
HETATM    5  C   UNL     1      -9.752  19.926  68.022  1.00  0.00    -0.510 C  
HETATM    6  C   UNL     1      -8.407  20.099  67.272  1.00  0.00    -0.394 C  
HETATM    7  C   UNL     1     -10.879  19.950  66.971  1.00  0.00    -0.370 C  
HETATM    8  C   UNL     1      -8.259  18.929  66.262  1.00  0.00    -0.268 C  
ENDROOT
BRANCH   1   9
HETATM    9  C   UNL     1     -10.510  16.188  67.755  1.00  0.00    -0.295 C  
HETATM   10  O   UNL     1     -11.347  16.183  68.919  1.00  0.00    -0.341 OA 
HETATM   11  H   UNL     1     -11.925  15.432  68.985  1.00  0.00     0.000 HD 
BRANCH   9  12
HETATM   12  C   UNL     1      -9.734  14.872  67.726  1.00  0.00    -0.212 A  
HETATM   13  N   UNL     1      -8.154  12.551  67.646  1.00  0.00    -0.158 NA 
HETATM   14  C   UNL     1      -8.560  14.758  68.487  1.00  0.00    -0.168 A  
HETATM   15  C   UNL     1      -9.289  12.628  66.933  1.00  0.00    -0.228 A  
HETATM   16  C   UNL     1      -9.636  11.523  66.171  1.00  0.00    -0.248 A  
HETATM   17  C   UNL     1      -7.817  13.602  68.411  1.00  0.00    -0.140 A  
HETATM   18  C   UNL     1     -10.797  11.491  65.394  1.00  0.00    -0.318 A  
HETATM   19  C   UNL     1     -10.127  13.767  66.920  1.00  0.00    -0.260 A  
HETATM   20  C   UNL     1     -11.634  12.598  65.364  1.00  0.00    -0.363 A  
HETATM   21  C   UNL     1     -11.293  13.725  66.116  1.00  0.00    -0.320 A  
BRANCH  20  22
HETATM   22  O   UNL     1     -12.797  12.709  64.657  1.00  0.00    -0.704 OA 
HETATM   23  C   UNL     1     -12.903  11.938  63.465  1.00  0.00    -0.305 C  
ENDBRANCH  20  22
ENDBRANCH   9  12
ENDBRANCH   1   9
BRANCH   6  24
HETATM   24  C   UNL     1      -7.222  20.184  68.205  1.00  0.00    -0.280 C  
HETATM   25  C   UNL     1      -6.104  20.871  67.941  1.00  0.00    -0.382 C  
ENDBRANCH   6  24
TORSDOF 4
ENDMDL
MODEL       14
REMARK 921   NORMALIZED FREE ENERGY PREDICTED BY IDOCK:   -6.21 KCAL/MOL
REMARK 922        TOTAL FREE ENERGY PREDICTED BY IDOCK:   -8.45 KCAL/MOL
REMARK 923 INTER-LIGAND FREE ENERGY PREDICTED BY IDOCK:   -8.11 KCAL/MOL
REMARK 924 INTRA-LIGAND FREE ENERGY PREDICTED BY IDOCK:   -0.33 KCAL/MOL
REMARK 927      BINDING AFFINITY PREDICTED BY RF-SCORE:    0.00 PKD
ROOT
HETATM    1  C   UNL     1     -10.798  15.326  67.409  1.00  0.00    -0.304 C  
HETATM    2  N   UNL     1      -9.444  15.112  68.020  1.00  0.00    -0.197 NA 
HETATM    3  C   UNL     1     -10.779  16.571  66.485  1.00  0.00    -0.144 C  
HETATM    4  C   UNL     1      -8.376  15.047  67.003  1.00  0.00    -0.222 C  
HETATM    5  C   UNL     1      -9.425  17.293  66.606  1.00  0.00    -0.278 C  
HETATM    6  C   UNL     1      -9.103  17.611  68.089  1.00  0.00    -0.276 C  
HETATM    7  C   UNL     1      -8.367  16.292  66.104  1.00  0.00    -0.260 C  
HETATM    8  C   UNL     1      -9.155  16.284  68.894  1.00  0.00    -0.250 C  
ENDROOT
BRANCH   1   9
HETATM    9  C   UNL     1     -11.438  14.045  66.752  1.00  0.00    -0.363 C  
HETATM   10  O   UNL     1     -12.753  14.244  66.219  1.00  0.00    -0.510 OA 
HETATM   11  H   UNL     1     -13.139  13.472  65.823  1.00  0.00     0.000 HD 
BRANCH   9  12
HETATM   12  C   UNL     1     -11.498  12.876  67.734  1.00  0.00    -0.369 A  
HETATM   13  N   UNL     1     -11.688  10.627  69.406  1.00  0.00    -0.281 NA 
HETATM   14  C   UNL     1     -11.076  11.607  67.306  1.00  0.00    -0.346 A  
HETATM   15  C   UNL     1     -12.070  11.838  69.845  1.00  0.00    -0.287 A  
HETATM   16  C   UNL     1     -12.552  11.919  71.143  1.00  0.00    -0.390 A  
HETATM   17  C   UNL     1     -11.194  10.534  68.161  1.00  0.00    -0.293 A  
HETATM   18  C   UNL     1     -12.972  13.128  71.705  1.00  0.00    -0.429 A  
HETATM   19  C   UNL     1     -12.009  13.009  69.056  1.00  0.00    -0.312 A  
HETATM   20  C   UNL     1     -12.924  14.290  70.948  1.00  0.00    -0.329 A  
HETATM   21  C   UNL     1     -12.453  14.224  69.634  1.00  0.00    -0.215 A  
BRANCH  20  22
HETATM   22  O   UNL     1     -13.296  15.538  71.362  1.00  0.00    -0.484 OA 
HETATM   23  C   UNL     1     -13.742  15.662  72.709  1.00  0.00    -0.578 C  
ENDBRANCH  20  22
ENDBRANCH   9  12
ENDBRANCH   1   9
BRANCH   6  24
HETATM   24  C   UNL     1     -10.021  18.657  68.677  1.00  0.00    -0.431 C  
HETATM   25  C   UNL     1     -10.183  19.886  68.171  1.00  0.00    -0.564 C  
ENDBRANCH   6  24
TORSDOF 4
ENDMDL
MODEL       15
REMARK 921   NORMALIZED FREE ENERGY PREDICTED BY IDOCK:   -6.19 KCAL/MOL
REMARK 922        TOTAL FREE ENERGY PREDICTED BY IDOCK:   -8.42 KCAL/MOL
REMARK 923 INTER-LIGAND FREE ENERGY PREDICTED BY IDOCK:   -8.27 KCAL/MOL
REMARK 924 INTRA-LIGAND FREE ENERGY PREDICTED BY IDOCK:   -0.15 KCAL/MOL
REMARK 927      BINDING AFFINITY PREDICTED BY RF-SCORE:    0.00 PKD
ROOT
HETATM    1  C   UNL     1     -11.179  13.223  67.244  1.00  0.00    -0.292 C  
HETATM    2  N   UNL     1     -11.988  14.424  66.848  1.00  0.00    -0.419 NA 
HETATM    3  C   UNL     1     -10.160  12.872  66.130  1.00  0.00    -0.281 C  
HETATM    4  C   UNL     1     -11.139  15.573  66.475  1.00  0.00    -0.182 C  
HETATM    5  C   UNL     1     -10.403  13.763  64.897  1.00  0.00    -0.420 C  
HETATM    6  C   UNL     1     -11.882  13.677  64.441  1.00  0.00    -0.460 C  
HETATM    7  C   UNL     1     -10.143  15.209  65.363  1.00  0.00    -0.384 C  
HETATM    8  C   UNL     1     -12.787  14.051  65.646  1.00  0.00    -0.406 C  
ENDROOT
BRANCH   1   9
HETATM    9  C   UNL     1     -10.556  13.292  68.689  1.00  0.00    -0.246 C  
HETATM   10  O   UNL     1      -9.413  12.450  68.884  1.00  0.00    -0.400 OA 
HETATM   11  H   UNL     1      -9.037  12.492  69.756  1.00  0.00     0.000 HD 
BRANCH   9  12
HETATM   12  C   UNL     1     -11.585  12.949  69.765  1.00  0.00    -0.288 A  
HETATM   13  N   UNL     1     -13.407  12.455  71.845  1.00  0.00    -0.435 NA 
HETATM   14  C   UNL     1     -12.330  13.986  70.348  1.00  0.00    -0.429 A  
HETATM   15  C   UNL     1     -12.726  11.444  71.281  1.00  0.00    -0.393 A  
HETATM   16  C   UNL     1     -12.965  10.168  71.768  1.00  0.00    -0.567 A  
HETATM   17  C   UNL     1     -13.208  13.694  71.369  1.00  0.00    -0.283 A  
HETATM   18  C   UNL     1     -12.316   9.043  71.252  1.00  0.00    -0.361 A  
HETATM   19  C   UNL     1     -11.788  11.622  70.238  1.00  0.00    -0.414 A  
HETATM   20  C   UNL     1     -11.390   9.193  70.229  1.00  0.00    -0.188 A  
HETATM   21  C   UNL     1     -11.128  10.473  69.735  1.00  0.00    -0.354 A  
BRANCH  20  22
HETATM   22  O   UNL     1     -10.685   8.189  69.627  1.00  0.00    -0.229 OA 
HETATM   23  C   UNL     1      -9.713   8.574  68.661  1.00  0.00    -0.164 C  
ENDBRANCH  20  22
ENDBRANCH   9  12
ENDBRANCH   1   9
BRANCH   6  24
HETATM   24  C   UNL     1     -12.242  12.324  63.872  1.00  0.00    -0.608 C  
HETATM   25  C   UNL     1     -11.409  11.567  63.148  1.00  0.00    -0.068 C  
ENDBRANCH   6  24
TORSDOF 4
ENDMDL
MODEL       16
REMARK 921   NORMALIZED FREE ENERGY PREDICTED BY IDOCK:   -6.19 KCAL/MOL
REMARK 922        TOTAL FREE ENERGY PREDICTED BY IDOCK:   -8.42 KCAL/MOL
REMARK 923 INTER-LIGAND FREE ENERGY PREDICTED BY IDOCK:   -8.60 KCAL/MOL
REMARK 924 INTRA-LIGAND FREE ENERGY PREDICTED BY IDOCK:    0.19 KCAL/MOL
REMARK 927      BINDING AFFINITY PREDICTED BY RF-SCORE:    0.00 PKD
ROOT
HETATM    1  C   UNL     1     -10.803  12.328  67.786  1.00  0.00    -0.221 C  
HETATM    2  N   UNL     1      -9.373  12.495  67.359  1.00  0.00    -0.181 NA 
HETATM    3  C   UNL     1     -11.739  12.360  66.550  1.00  0.00    -0.443 C  
HETATM    4  C   UNL     1      -8.981  11.517  66.325  1.00  0.00    -0.196 C  
HETATM    5  C   UNL     1     -10.931  12.713  65.289  1.00  0.00    -0.320 C  
HETATM    6  C   UNL     1     -10.130  14.023  65.498  1.00  0.00    -0.343 C  
HETATM    7  C   UNL     1      -9.914  11.569  65.105  1.00  0.00    -0.304 C  
HETATM    8  C   UNL     1      -9.240  13.854  66.759  1.00  0.00    -0.254 C  
ENDROOT
BRANCH   1   9
HETATM    9  C   UNL     1     -11.065  11.121  68.763  1.00  0.00    -0.236 C  
HETATM   10  O   UNL     1     -11.747  10.011  68.167  1.00  0.00    -0.660 OA 
HETATM   11  H   UNL     1     -11.905   9.283  68.756  1.00  0.00     0.000 HD 
BRANCH   9  12
HETATM   12  C   UNL     1     -11.854  11.553  69.997  1.00  0.00    -0.435 A  
HETATM   13  N   UNL     1     -13.432  12.221  72.224  1.00  0.00    -0.428 NA 
HETATM   14  C   UNL     1     -12.346  10.569  70.869  1.00  0.00    -0.490 A  
HETATM   15  C   UNL     1     -12.946  13.181  71.420  1.00  0.00    -0.298 A  
HETATM   16  C   UNL     1     -13.256  14.493  71.740  1.00  0.00    -0.429 A  
HETATM   17  C   UNL     1     -13.119  10.946  71.944  1.00  0.00    -0.432 A  
HETATM   18  C   UNL     1     -12.800  15.572  70.976  1.00  0.00    -0.543 A  
HETATM   19  C   UNL     1     -12.154  12.916  70.279  1.00  0.00    -0.377 A  
HETATM   20  C   UNL     1     -12.023  15.336  69.851  1.00  0.00    -0.343 A  
HETATM   21  C   UNL     1     -11.712  14.019  69.506  1.00  0.00    -0.367 A  
BRANCH  20  22
HETATM   22  O   UNL     1     -11.507  16.286  69.015  1.00  0.00    -0.328 OA 
HETATM   23  C   UNL     1     -10.107  16.532  69.105  1.00  0.00    -0.287 C  
ENDBRANCH  20  22
ENDBRANCH   9  12
ENDBRANCH   1   9
BRANCH   6  24
HETATM   24  C   UNL     1     -11.017  15.242  65.601  1.00  0.00    -0.348 C  
HETATM   25  C   UNL     1     -11.283  16.067  64.580  1.00  0.00    -0.340 C  
ENDBRANCH   6  24
TORSDOF 4
ENDMDL
MODEL       17
REMARK 921   NORMALIZED FREE ENERGY PREDICTED BY IDOCK:   -6.13 KCAL/MOL
REMARK 922        TOTAL FREE ENERGY PREDICTED BY IDOCK:   -8.35 KCAL/MOL
REMARK 923 INTER-LIGAND FREE ENERGY PREDICTED BY IDOCK:   -7.88 KCAL/MOL
REMARK 924 INTRA-LIGAND FREE ENERGY PREDICTED BY IDOCK:   -0.47 KCAL/MOL
REMARK 927      BINDING AFFINITY PREDICTED BY RF-SCORE:    0.00 PKD
ROOT
HETATM    1  C   UNL     1      -8.604  17.951  67.105  1.00  0.00    -0.235 C  
HETATM    2  N   UNL     1      -7.568  18.310  66.079  1.00  0.00    -0.454 NA 
HETATM    3  C   UNL     1      -8.433  18.829  68.370  1.00  0.00    -0.374 C  
HETATM    4  C   UNL     1      -7.565  19.754  65.770  1.00  0.00    -0.289 C  
HETATM    5  C   UNL     1      -7.159  19.685  68.247  1.00  0.00    -0.337 C  
HETATM    6  C   UNL     1      -5.929  18.795  67.935  1.00  0.00    -0.194 C  
HETATM    7  C   UNL     1      -7.386  20.608  67.035  1.00  0.00    -0.370 C  
HETATM    8  C   UNL     1      -6.234  17.975  66.651  1.00  0.00    -0.173 C  
ENDROOT
BRANCH   1   9
HETATM    9  C   UNL     1     -10.080  17.885  66.559  1.00  0.00    -0.370 C  
HETATM   10  O   UNL     1     -11.017  18.692  67.282  1.00  0.00    -0.387 OA 
HETATM   11  H   UNL     1     -11.907  18.653  66.954  1.00  0.00     0.000 HD 
BRANCH   9  12
HETATM   12  C   UNL     1     -10.611  16.452  66.536  1.00  0.00    -0.235 A  
HETATM   13  N   UNL     1     -11.691  13.866  66.349  1.00  0.00    -0.363 NA 
HETATM   14  C   UNL     1     -10.672  15.770  65.310  1.00  0.00    -0.446 A  
HETATM   15  C   UNL     1     -11.614  14.489  67.536  1.00  0.00    -0.381 A  
HETATM   16  C   UNL     1     -12.086  13.802  68.645  1.00  0.00    -0.333 A  
HETATM   17  C   UNL     1     -11.215  14.506  65.269  1.00  0.00    -0.352 A  
HETATM   18  C   UNL     1     -12.051  14.352  69.930  1.00  0.00    -0.398 A  
HETATM   19  C   UNL     1     -11.091  15.792  67.702  1.00  0.00    -0.283 A  
HETATM   20  C   UNL     1     -11.543  15.630  70.116  1.00  0.00    -0.354 A  
HETATM   21  C   UNL     1     -11.076  16.341  69.008  1.00  0.00    -0.331 A  
BRANCH  20  22
HETATM   22  O   UNL     1     -11.443  16.291  71.307  1.00  0.00    -0.423 OA 
HETATM   23  C   UNL     1     -11.870  15.590  72.470  1.00  0.00    -0.470 C  
ENDBRANCH  20  22
ENDBRANCH   9  12
ENDBRANCH   1   9
BRANCH   6  24
HETATM   24  C   UNL     1      -5.543  17.901  69.090  1.00  0.00    -0.197 C  
HETATM   25  C   UNL     1      -5.516  16.564  69.031  1.00  0.00    -0.128 C  
ENDBRANCH   6  24
TORSDOF 4
ENDMDL
MODEL       18
REMARK 921   NORMALIZED FREE ENERGY PREDICTED BY IDOCK:   -6.11 KCAL/MOL
REMARK 922        TOTAL FREE ENERGY PREDICTED BY IDOCK:   -8.33 KCAL/MOL
REMARK 923 INTER-LIGAND FREE ENERGY PREDICTED BY IDOCK:   -8.18 KCAL/MOL
REMARK 924 INTRA-LIGAND FREE ENERGY PREDICTED BY IDOCK:   -0.15 KCAL/MOL
REMARK 927      BINDING AFFINITY PREDICTED BY RF-SCORE:    0.00 PKD
ROOT
HETATM    1  C   UNL     1     -11.665   9.680  71.363  1.00  0.00    -0.404 C  
HETATM    2  N   UNL     1     -12.177   8.408  71.975  1.00  0.00    -0.339 NA 
HETATM    3  C   UNL     1     -10.380   9.401  70.543  1.00  0.00    -0.341 C  
HETATM    4  C   UNL     1     -12.366   7.342  70.971  1.00  0.00    -0.297 C  
HETATM    5  C   UNL     1      -9.938   7.940  70.741  1.00  0.00    -0.192 C  
HETATM    6  C   UNL     1      -9.800   7.607  72.248  1.00  0.00    -0.229 C  
HETATM    7  C   UNL     1     -11.080   7.073  70.175  1.00  0.00    -0.323 C  
HETATM    8  C   UNL     1     -11.150   7.931  72.944  1.00  0.00    -0.379 C  
ENDROOT
BRANCH   1   9
HETATM    9  C   UNL     1     -12.749  10.529  70.598  1.00  0.00    -0.355 C  
HETATM   10  O   UNL     1     -12.628  10.498  69.170  1.00  0.00    -0.740 OA 
HETATM   11  H   UNL     1     -13.281  11.010  68.708  1.00  0.00     0.000 HD 
BRANCH   9  12
HETATM   12  C   UNL     1     -12.740  11.991  71.041  1.00  0.00    -0.337 A  
HETATM   13  N   UNL     1     -12.905  14.667  71.878  1.00  0.00    -0.315 NA 
HETATM   14  C   UNL     1     -13.442  12.354  72.201  1.00  0.00    -0.481 A  
HETATM   15  C   UNL     1     -12.203  14.338  70.782  1.00  0.00    -0.353 A  
HETATM   16  C   UNL     1     -11.574  15.367  70.098  1.00  0.00    -0.351 A  
HETATM   17  C   UNL     1     -13.498  13.679  72.568  1.00  0.00    -0.570 A  
HETATM   18  C   UNL     1     -10.814  15.139  68.947  1.00  0.00    -0.241 A  
HETATM   19  C   UNL     1     -12.085  13.014  70.299  1.00  0.00    -0.388 A  
HETATM   20  C   UNL     1     -10.685  13.848  68.454  1.00  0.00    -0.257 A  
HETATM   21  C   UNL     1     -11.323  12.801  69.124  1.00  0.00    -0.337 A  
BRANCH  20  22
HETATM   22  O   UNL     1      -9.976  13.476  67.348  1.00  0.00    -0.228 OA 
HETATM   23  C   UNL     1     -10.191  14.231  66.160  1.00  0.00    -0.307 C  
ENDBRANCH  20  22
ENDBRANCH   9  12
ENDBRANCH   1   9
BRANCH   6  24
HETATM   24  C   UNL     1      -8.646   8.330  72.904  1.00  0.00    -0.276 C  
HETATM   25  C   UNL     1      -7.389   8.313  72.446  1.00  0.00    -0.140 C  
ENDBRANCH   6  24
TORSDOF 4
ENDMDL
MODEL       19
REMARK 921   NORMALIZED FREE ENERGY PREDICTED BY IDOCK:   -6.07 KCAL/MOL
REMARK 922        TOTAL FREE ENERGY PREDICTED BY IDOCK:   -8.28 KCAL/MOL
REMARK 923 INTER-LIGAND FREE ENERGY PREDICTED BY IDOCK:   -7.44 KCAL/MOL
REMARK 924 INTRA-LIGAND FREE ENERGY PREDICTED BY IDOCK:   -0.84 KCAL/MOL
REMARK 927      BINDING AFFINITY PREDICTED BY RF-SCORE:    0.00 PKD
ROOT
HETATM    1  C   UNL     1     -10.711  14.617  67.312  1.00  0.00    -0.290 C  
HETATM    2  N   UNL     1      -9.766  13.475  67.547  1.00  0.00    -0.222 NA 
HETATM    3  C   UNL     1     -12.044  14.096  66.717  1.00  0.00    -0.474 C  
HETATM    4  C   UNL     1     -10.372  12.407  68.367  1.00  0.00    -0.229 C  
HETATM    5  C   UNL     1     -11.927  12.593  66.404  1.00  0.00    -0.425 C  
HETATM    6  C   UNL     1     -10.693  12.314  65.508  1.00  0.00    -0.314 C  
HETATM    7  C   UNL     1     -11.687  11.897  67.758  1.00  0.00    -0.362 C  
HETATM    8  C   UNL     1      -9.436  12.884  66.219  1.00  0.00    -0.200 C  
ENDROOT
BRANCH   1   9
HETATM    9  C   UNL     1     -10.888  15.593  68.536  1.00  0.00    -0.282 C  
HETATM   10  O   UNL     1     -12.249  15.831  68.914  1.00  0.00    -0.581 OA 
HETATM   11  H   UNL     1     -12.356  16.419  69.652  1.00  0.00     0.000 HD 
BRANCH   9  12
HETATM   12  C   UNL     1     -10.225  16.945  68.281  1.00  0.00    -0.318 A  
HETATM   13  N   UNL     1      -9.075  19.428  67.643  1.00  0.00    -0.296 NA 
HETATM   14  C   UNL     1     -10.977  17.970  67.685  1.00  0.00    -0.115 A  
HETATM   15  C   UNL     1      -8.345  18.472  68.241  1.00  0.00    -0.322 A  
HETATM   16  C   UNL     1      -7.021  18.768  68.523  1.00  0.00    -0.288 A  
HETATM   17  C   UNL     1     -10.367  19.168  67.387  1.00  0.00    -0.430 A  
HETATM   18  C   UNL     1      -6.170  17.851  69.146  1.00  0.00    -0.231 A  
HETATM   19  C   UNL     1      -8.856  17.199  68.582  1.00  0.00    -0.266 A  
HETATM   20  C   UNL     1      -6.650  16.594  69.489  1.00  0.00    -0.212 A  
HETATM   21  C   UNL     1      -7.979  16.274  69.200  1.00  0.00    -0.221 A  
BRANCH  20  22
HETATM   22  O   UNL     1      -5.939  15.601  70.102  1.00  0.00    -0.160 OA 
HETATM   23  C   UNL     1      -6.429  14.273  69.953  1.00  0.00    -0.137 C  
ENDBRANCH  20  22
ENDBRANCH   9  12
ENDBRANCH   1   9
BRANCH   6  24
HETATM   24  C   UNL     1     -10.845  12.871  64.112  1.00  0.00    -0.445 C  
HETATM   25  C   UNL     1     -11.956  12.758  63.373  1.00  0.00    -0.613 C  
ENDBRANCH   6  24
TORSDOF 4
ENDMDL
MODEL       20
REMARK 921   NORMALIZED FREE ENERGY PREDICTED BY IDOCK:   -6.01 KCAL/MOL
REMARK 922        TOTAL FREE ENERGY PREDICTED BY IDOCK:   -8.20 KCAL/MOL
REMARK 923 INTER-LIGAND FREE ENERGY PREDICTED BY IDOCK:   -7.37 KCAL/MOL
REMARK 924 INTRA-LIGAND FREE ENERGY PREDICTED BY IDOCK:   -0.84 KCAL/MOL
REMARK 927      BINDING AFFINITY PREDICTED BY RF-SCORE:    0.00 PKD
ROOT
HETATM    1  C   UNL     1     -10.385  11.646  66.713  1.00  0.00    -0.222 C  
HETATM    2  N   UNL     1      -9.911  10.917  67.938  1.00  0.00    -0.169 NA 
HETATM    3  C   UNL     1     -10.299  10.722  65.472  1.00  0.00    -0.308 C  
HETATM    4  C   UNL     1     -10.619   9.637  68.135  1.00  0.00    -0.226 C  
HETATM    5  C   UNL     1      -9.607   9.400  65.849  1.00  0.00    -0.338 C  
HETATM    6  C   UNL     1      -8.236   9.670  66.521  1.00  0.00    -0.119 C  
HETATM    7  C   UNL     1     -10.516   8.731  66.899  1.00  0.00    -0.319 C  
HETATM    8  C   UNL     1      -8.467  10.602  67.742  1.00  0.00    -0.116 C  
ENDROOT
BRANCH   1   9
HETATM    9  C   UNL     1     -11.767  12.383  66.876  1.00  0.00    -0.362 C  
HETATM   10  O   UNL     1     -12.480  12.586  65.650  1.00  0.00    -0.648 OA 
HETATM   11  H   UNL     1     -13.314  13.030  65.747  1.00  0.00     0.000 HD 
BRANCH   9  12
HETATM   12  C   UNL     1     -11.609  13.739  67.560  1.00  0.00    -0.387 A  
HETATM   13  N   UNL     1     -11.149  16.245  68.744  1.00  0.00    -0.343 NA 
HETATM   14  C   UNL     1     -11.120  14.824  66.814  1.00  0.00    -0.338 A  
HETATM   15  C   UNL     1     -11.646  15.230  69.469  1.00  0.00    -0.322 A  
HETATM   16  C   UNL     1     -11.916  15.477  70.805  1.00  0.00    -0.420 A  
HETATM   17  C   UNL     1     -10.906  16.031  67.441  1.00  0.00    -0.277 A  
HETATM   18  C   UNL     1     -12.439  14.495  71.652  1.00  0.00    -0.422 A  
HETATM   19  C   UNL     1     -11.893  13.942  68.940  1.00  0.00    -0.393 A  
HETATM   20  C   UNL     1     -12.689  13.223  71.156  1.00  0.00    -0.320 A  
HETATM   21  C   UNL     1     -12.409  12.953  69.814  1.00  0.00    -0.118 A  
BRANCH  20  22
HETATM   22  O   UNL     1     -13.199  12.170  71.860  1.00  0.00    -0.478 OA 
HETATM   23  C   UNL     1     -12.800  10.866  71.449  1.00  0.00    -0.449 C  
ENDBRANCH  20  22
ENDBRANCH   9  12
ENDBRANCH   1   9
BRANCH   6  24
HETATM   24  C   UNL     1      -7.218  10.245  65.564  1.00  0.00    -0.149 C  
HETATM   25  C   UNL     1      -5.963  10.565  65.904  1.00  0.00    -0.121 C  
ENDBRANCH   6  24
TORSDOF 4
ENDMDL
MODEL       21
REMARK 921   NORMALIZED FREE ENERGY PREDICTED BY IDOCK:   -6.01 KCAL/MOL
REMARK 922        TOTAL FREE ENERGY PREDICTED BY IDOCK:   -8.20 KCAL/MOL
REMARK 923 INTER-LIGAND FREE ENERGY PREDICTED BY IDOCK:   -7.41 KCAL/MOL
REMARK 924 INTRA-LIGAND FREE ENERGY PREDICTED BY IDOCK:   -0.79 KCAL/MOL
REMARK 927      BINDING AFFINITY PREDICTED BY RF-SCORE:    0.00 PKD
ROOT
HETATM    1  C   UNL     1     -10.129  11.635  66.223  1.00  0.00    -0.221 C  
HETATM    2  N   UNL     1      -9.429  11.045  67.413  1.00  0.00    -0.159 NA 
HETATM    3  C   UNL     1     -10.235  10.586  65.087  1.00  0.00    -0.358 C  
HETATM    4  C   UNL     1     -10.055   9.785  67.861  1.00  0.00    -0.173 C  
HETATM    5  C   UNL     1      -9.449   9.318  65.470  1.00  0.00    -0.309 C  
HETATM    6  C   UNL     1      -7.991   9.672  65.859  1.00  0.00    -0.112 C  
HETATM    7  C   UNL     1     -10.143   8.754  66.725  1.00  0.00    -0.359 C  
HETATM    8  C   UNL     1      -8.033  10.725  66.999  1.00  0.00    -0.124 C  
ENDROOT
BRANCH   1   9
HETATM    9  C   UNL     1     -11.483  12.370  66.550  1.00  0.00    -0.371 C  
HETATM   10  O   UNL     1     -12.444  12.346  65.487  1.00  0.00    -0.643 OA 
HETATM   11  H   UNL     1     -13.261  12.790  65.684  1.00  0.00     0.000 HD 
BRANCH   9  12
HETATM   12  C   UNL     1     -11.254  13.828  66.947  1.00  0.00    -0.326 A  
HETATM   13  N   UNL     1     -10.668  16.497  67.596  1.00  0.00    -0.329 NA 
HETATM   14  C   UNL     1     -10.764  14.725  65.985  1.00  0.00    -0.314 A  
HETATM   15  C   UNL     1     -11.165  15.663  68.524  1.00  0.00    -0.342 A  
HETATM   16  C   UNL     1     -11.371  16.178  69.794  1.00  0.00    -0.323 A  
HETATM   17  C   UNL     1     -10.487  16.023  66.353  1.00  0.00    -0.309 A  
HETATM   18  C   UNL     1     -11.887  15.402  70.836  1.00  0.00    -0.400 A  
HETATM   19  C   UNL     1     -11.474  14.307  68.269  1.00  0.00    -0.334 A  
HETATM   20  C   UNL     1     -12.196  14.068  70.610  1.00  0.00    -0.372 A  
HETATM   21  C   UNL     1     -11.982  13.529  69.338  1.00  0.00    -0.383 A  
BRANCH  20  22
HETATM   22  O   UNL     1     -12.708  13.194  71.526  1.00  0.00    -0.338 OA 
HETATM   23  C   UNL     1     -13.713  13.693  72.402  1.00  0.00    -0.595 C  
ENDBRANCH  20  22
ENDBRANCH   9  12
ENDBRANCH   1   9
BRANCH   6  24
HETATM   24  C   UNL     1      -7.172  10.154  64.684  1.00  0.00    -0.124 C  
HETATM   25  C   UNL     1      -6.933   9.428  63.585  1.00  0.00    -0.095 C  
ENDBRANCH   6  24
TORSDOF 4
ENDMDL
MODEL       22
REMARK 921   NORMALIZED FREE ENERGY PREDICTED BY IDOCK:   -6.00 KCAL/MOL
REMARK 922        TOTAL FREE ENERGY PREDICTED BY IDOCK:   -8.19 KCAL/MOL
REMARK 923 INTER-LIGAND FREE ENERGY PREDICTED BY IDOCK:   -7.29 KCAL/MOL
REMARK 924 INTRA-LIGAND FREE ENERGY PREDICTED BY IDOCK:   -0.91 KCAL/MOL
REMARK 927      BINDING AFFINITY PREDICTED BY RF-SCORE:    0.00 PKD
ROOT
HETATM    1  C   UNL     1      -8.599  17.081  68.026  1.00  0.00    -0.217 C  
HETATM    2  N   UNL     1      -8.035  18.223  68.822  1.00  0.00    -0.287 NA 
HETATM    3  C   UNL     1      -8.173  17.200  66.541  1.00  0.00    -0.308 C  
HETATM    4  C   UNL     1      -6.573  18.349  68.659  1.00  0.00    -0.233 C  
HETATM    5  C   UNL     1      -7.440  18.535  66.311  1.00  0.00    -0.289 C  
HETATM    6  C   UNL     1      -8.298  19.725  66.811  1.00  0.00    -0.354 C  
HETATM    7  C   UNL     1      -6.171  18.475  67.182  1.00  0.00    -0.181 C  
HETATM    8  C   UNL     1      -8.650  19.478  68.303  1.00  0.00    -0.340 C  
ENDROOT
BRANCH   1   9
HETATM    9  C   UNL     1      -8.360  15.656  68.654  1.00  0.00    -0.177 C  
HETATM   10  O   UNL     1      -7.243  14.945  68.106  1.00  0.00    -0.102 OA 
HETATM   11  H   UNL     1      -7.098  14.086  68.484  1.00  0.00     0.000 HD 
BRANCH   9  12
HETATM   12  C   UNL     1      -9.595  14.767  68.525  1.00  0.00    -0.218 A  
HETATM   13  N   UNL     1     -11.874  13.178  68.111  1.00  0.00    -0.352 NA 
HETATM   14  C   UNL     1      -9.675  13.865  67.452  1.00  0.00    -0.234 A  
HETATM   15  C   UNL     1     -11.806  14.012  69.161  1.00  0.00    -0.350 A  
HETATM   16  C   UNL     1     -12.897  14.047  70.015  1.00  0.00     0.008 A  
HETATM   17  C   UNL     1     -10.815  13.112  67.288  1.00  0.00    -0.257 A  
HETATM   18  C   UNL     1     -12.933  14.874  71.142  1.00  0.00    -0.432 A  
HETATM   19  C   UNL     1     -10.695  14.846  69.425  1.00  0.00    -0.264 A  
HETATM   20  C   UNL     1     -11.855  15.702  71.420  1.00  0.00    -0.421 A  
HETATM   21  C   UNL     1     -10.752  15.689  70.562  1.00  0.00    -0.295 A  
BRANCH  20  22
HETATM   22  O   UNL     1     -11.749  16.557  72.481  1.00  0.00    -0.506 OA 
HETATM   23  C   UNL     1     -12.442  16.196  73.671  1.00  0.00    -0.576 C  
ENDBRANCH  20  22
ENDBRANCH   9  12
ENDBRANCH   1   9
BRANCH   6  24
HETATM   24  C   UNL     1      -9.536  19.949  65.974  1.00  0.00    -0.403 C  
HETATM   25  C   UNL     1     -10.785  19.740  66.408  1.00  0.00    -0.499 C  
ENDBRANCH   6  24
TORSDOF 4
ENDMDL
MODEL       23
REMARK 921   NORMALIZED FREE ENERGY PREDICTED BY IDOCK:   -6.00 KCAL/MOL
REMARK 922        TOTAL FREE ENERGY PREDICTED BY IDOCK:   -8.18 KCAL/MOL
REMARK 923 INTER-LIGAND FREE ENERGY PREDICTED BY IDOCK:   -7.43 KCAL/MOL
REMARK 924 INTRA-LIGAND FREE ENERGY PREDICTED BY IDOCK:   -0.76 KCAL/MOL
REMARK 927      BINDING AFFINITY PREDICTED BY RF-SCORE:    0.00 PKD
ROOT
HETATM    1  C   UNL     1     -10.184  14.514  69.023  1.00  0.00    -0.206 C  
HETATM    2  N   UNL     1      -9.462  13.760  67.944  1.00  0.00    -0.207 NA 
HETATM    3  C   UNL     1      -9.525  15.900  69.241  1.00  0.00    -0.260 C  
HETATM    4  C   UNL     1      -9.354  14.539  66.695  1.00  0.00    -0.281 C  
HETATM    5  C   UNL     1      -8.241  16.009  68.399  1.00  0.00    -0.165 C  
HETATM    6  C   UNL     1      -7.294  14.817  68.685  1.00  0.00    -0.123 C  
HETATM    7  C   UNL     1      -8.691  15.905  66.929  1.00  0.00    -0.272 C  
HETATM    8  C   UNL     1      -8.077  13.500  68.428  1.00  0.00    -0.145 C  
ENDROOT
BRANCH   1   9
HETATM    9  C   UNL     1     -11.750  14.562  68.863  1.00  0.00    -0.319 C  
HETATM   10  O   UNL     1     -12.280  15.865  68.588  1.00  0.00    -0.488 OA 
HETATM   11  H   UNL     1     -13.224  15.894  68.491  1.00  0.00     0.000 HD 
BRANCH   9  12
HETATM   12  C   UNL     1     -12.462  14.013  70.098  1.00  0.00    -0.380 A  
HETATM   13  N   UNL     1     -13.696  13.141  72.466  1.00  0.00    -0.668 NA 
HETATM   14  C   UNL     1     -13.162  14.902  70.930  1.00  0.00    -0.420 A  
HETATM   15  C   UNL     1     -13.058  12.269  71.669  1.00  0.00    -0.306 A  
HETATM   16  C   UNL     1     -13.040  10.941  72.066  1.00  0.00    -0.462 A  
HETATM   17  C   UNL     1     -13.746  14.427  72.083  1.00  0.00    -0.463 A  
HETATM   18  C   UNL     1     -12.409   9.948  71.311  1.00  0.00    -0.478 A  
HETATM   19  C   UNL     1     -12.408  12.640  70.469  1.00  0.00    -0.350 A  
HETATM   20  C   UNL     1     -11.764  10.288  70.131  1.00  0.00    -0.284 A  
HETATM   21  C   UNL     1     -11.761  11.624  69.722  1.00  0.00    -0.425 A  
BRANCH  20  22
HETATM   22  O   UNL     1     -11.112   9.429  69.293  1.00  0.00    -0.169 OA 
HETATM   23  C   UNL     1     -10.556   8.257  69.879  1.00  0.00    -0.232 C  
ENDBRANCH  20  22
ENDBRANCH   9  12
ENDBRANCH   1   9
BRANCH   6  24
HETATM   24  C   UNL     1      -6.708  14.855  70.077  1.00  0.00    -0.154 C  
HETATM   25  C   UNL     1      -6.034  13.844  70.638  1.00  0.00    -0.174 C  
ENDBRANCH   6  24
TORSDOF 4
ENDMDL
MODEL       24
REMARK 921   NORMALIZED FREE ENERGY PREDICTED BY IDOCK:   -5.99 KCAL/MOL
REMARK 922        TOTAL FREE ENERGY PREDICTED BY IDOCK:   -8.18 KCAL/MOL
REMARK 923 INTER-LIGAND FREE ENERGY PREDICTED BY IDOCK:   -7.26 KCAL/MOL
REMARK 924 INTRA-LIGAND FREE ENERGY PREDICTED BY IDOCK:   -0.92 KCAL/MOL
REMARK 927      BINDING AFFINITY PREDICTED BY RF-SCORE:    0.00 PKD
ROOT
HETATM    1  C   UNL     1      -8.693  17.414  67.458  1.00  0.00    -0.219 C  
HETATM    2  N   UNL     1      -7.876  17.778  66.252  1.00  0.00    -0.374 NA 
HETATM    3  C   UNL     1      -8.242  18.250  68.683  1.00  0.00    -0.301 C  
HETATM    4  C   UNL     1      -7.890  19.229  65.984  1.00  0.00    -0.258 C  
HETATM    5  C   UNL     1      -6.993  19.075  68.324  1.00  0.00    -0.284 C  
HETATM    6  C   UNL     1      -5.880  18.164  67.746  1.00  0.00    -0.154 C  
HETATM    7  C   UNL     1      -7.432  20.040  67.205  1.00  0.00    -0.312 C  
HETATM    8  C   UNL     1      -6.464  17.391  66.533  1.00  0.00    -0.234 C  
ENDROOT
BRANCH   1   9
HETATM    9  C   UNL     1     -10.250  17.403  67.223  1.00  0.00    -0.324 C  
HETATM   10  O   UNL     1     -10.931  18.574  67.691  1.00  0.00    -0.355 OA 
HETATM   11  H   UNL     1     -11.870  18.567  67.549  1.00  0.00     0.000 HD 
BRANCH   9  12
HETATM   12  C   UNL     1     -10.911  16.184  67.866  1.00  0.00    -0.332 A  
HETATM   13  N   UNL     1     -12.021  13.974  69.197  1.00  0.00    -0.348 NA 
HETATM   14  C   UNL     1     -11.392  16.287  69.181  1.00  0.00    -0.291 A  
HETATM   15  C   UNL     1     -11.594  13.862  67.929  1.00  0.00    -0.342 A  
HETATM   16  C   UNL     1     -11.728  12.623  67.321  1.00  0.00    -0.435 A  
HETATM   17  C   UNL     1     -11.924  15.173  69.792  1.00  0.00    -0.334 A  
HETATM   18  C   UNL     1     -11.321  12.394  66.004  1.00  0.00    -0.397 A  
HETATM   19  C   UNL     1     -11.018  14.929  67.202  1.00  0.00    -0.323 A  
HETATM   20  C   UNL     1     -10.752  13.426  65.272  1.00  0.00    -0.313 A  
HETATM   21  C   UNL     1     -10.597  14.678  65.873  1.00  0.00    -0.319 A  
BRANCH  20  22
HETATM   22  O   UNL     1     -10.313  13.350  63.980  1.00  0.00    -0.336 OA 
HETATM   23  C   UNL     1     -10.053  12.049  63.463  1.00  0.00    -0.424 C  
ENDBRANCH  20  22
ENDBRANCH   9  12
ENDBRANCH   1   9
BRANCH   6  24
HETATM   24  C   UNL     1      -5.297  17.225  68.777  1.00  0.00    -0.147 C  
HETATM   25  C   UNL     1      -5.388  15.891  68.718  1.00  0.00    -0.104 C  
ENDBRANCH   6  24
TORSDOF 4
ENDMDL
MODEL       25
REMARK 921   NORMALIZED FREE ENERGY PREDICTED BY IDOCK:   -5.98 KCAL/MOL
REMARK 922        TOTAL FREE ENERGY PREDICTED BY IDOCK:   -8.17 KCAL/MOL
REMARK 923 INTER-LIGAND FREE ENERGY PREDICTED BY IDOCK:   -7.52 KCAL/MOL
REMARK 924 INTRA-LIGAND FREE ENERGY PREDICTED BY IDOCK:   -0.65 KCAL/MOL
REMARK 927      BINDING AFFINITY PREDICTED BY RF-SCORE:    0.00 PKD
ROOT
HETATM    1  C   UNL     1     -10.783  11.406  67.373  1.00  0.00    -0.232 C  
HETATM    2  N   UNL     1     -11.994  12.293  67.398  1.00  0.00    -0.544 NA 
HETATM    3  C   UNL     1      -9.539  12.209  66.917  1.00  0.00    -0.210 C  
HETATM    4  C   UNL     1     -11.778  13.509  68.206  1.00  0.00    -0.359 C  
HETATM    5  C   UNL     1      -9.960  13.624  66.479  1.00  0.00    -0.288 C  
HETATM    6  C   UNL     1     -11.084  13.557  65.414  1.00  0.00    -0.302 C  
HETATM    7  C   UNL     1     -10.547  14.298  67.734  1.00  0.00    -0.253 C  
HETATM    8  C   UNL     1     -12.261  12.729  65.999  1.00  0.00    -0.314 C  
ENDROOT
BRANCH   1   9
HETATM    9  C   UNL     1     -10.559  10.555  68.679  1.00  0.00    -0.200 C  
HETATM   10  O   UNL     1      -9.367  10.881  69.404  1.00  0.00    -0.404 OA 
HETATM   11  H   UNL     1      -9.231  10.368  70.191  1.00  0.00     0.000 HD 
BRANCH   9  12
HETATM   12  C   UNL     1     -10.535   9.057  68.381  1.00  0.00    -0.234 A  
HETATM   13  N   UNL     1     -10.617   6.331  67.704  1.00  0.00    -0.235 NA 
HETATM   14  C   UNL     1     -10.447   8.630  67.046  1.00  0.00    -0.354 A  
HETATM   15  C   UNL     1     -10.672   6.716  68.989  1.00  0.00    -0.259 A  
HETATM   16  C   UNL     1     -10.768   5.719  69.947  1.00  0.00    -0.412 A  
HETATM   17  C   UNL     1     -10.497   7.283  66.765  1.00  0.00    -0.241 A  
HETATM   18  C   UNL     1     -10.828   6.004  71.314  1.00  0.00    -0.331 A  
HETATM   19  C   UNL     1     -10.644   8.069  69.401  1.00  0.00    -0.210 A  
HETATM   20  C   UNL     1     -10.804   7.324  71.741  1.00  0.00    -0.224 A  
HETATM   21  C   UNL     1     -10.720   8.343  70.789  1.00  0.00    -0.244 A  
BRANCH  20  22
HETATM   22  O   UNL     1     -10.851   7.752  73.038  1.00  0.00    -0.373 OA 
HETATM   23  C   UNL     1     -10.206   6.936  74.009  1.00  0.00    -0.350 C  
ENDBRANCH  20  22
ENDBRANCH   9  12
ENDBRANCH   1   9
BRANCH   6  24
HETATM   24  C   UNL     1     -10.608  12.996  64.094  1.00  0.00    -0.421 C  
HETATM   25  C   UNL     1     -11.193  11.975  63.456  1.00  0.00    -0.526 C  
ENDBRANCH   6  24
TORSDOF 4
ENDMDL
MODEL       26
REMARK 921   NORMALIZED FREE ENERGY PREDICTED BY IDOCK:   -5.98 KCAL/MOL
REMARK 922        TOTAL FREE ENERGY PREDICTED BY IDOCK:   -8.17 KCAL/MOL
REMARK 923 INTER-LIGAND FREE ENERGY PREDICTED BY IDOCK:   -8.31 KCAL/MOL
REMARK 924 INTRA-LIGAND FREE ENERGY PREDICTED BY IDOCK:    0.15 KCAL/MOL
REMARK 927      BINDING AFFINITY PREDICTED BY RF-SCORE:    0.00 PKD
ROOT
HETATM    1  C   UNL     1     -10.263  15.719  67.792  1.00  0.00    -0.251 C  
HETATM    2  N   UNL     1     -10.300  16.831  66.784  1.00  0.00    -0.300 NA 
HETATM    3  C   UNL     1      -9.338  16.099  68.976  1.00  0.00    -0.248 C  
HETATM    4  C   UNL     1     -10.662  18.126  67.393  1.00  0.00    -0.335 C  
HETATM    5  C   UNL     1      -8.619  17.427  68.675  1.00  0.00    -0.259 C  
HETATM    6  C   UNL     1      -7.889  17.359  67.309  1.00  0.00    -0.218 C  
HETATM    7  C   UNL     1      -9.728  18.490  68.558  1.00  0.00    -0.399 C  
HETATM    8  C   UNL     1      -8.927  16.972  66.221  1.00  0.00    -0.247 C  
ENDROOT
BRANCH   1   9
HETATM    9  C   UNL     1     -11.675  15.173  68.226  1.00  0.00    -0.314 C  
HETATM   10  O   UNL     1     -12.194  15.755  69.429  1.00  0.00    -0.502 OA 
HETATM   11  H   UNL     1     -13.045  15.426  69.691  1.00  0.00     0.000 HD 
BRANCH   9  12
HETATM   12  C   UNL     1     -11.666  13.656  68.402  1.00  0.00    -0.393 A  
HETATM   13  N   UNL     1     -11.726  10.852  68.561  1.00  0.00    -0.452 NA 
HETATM   14  C   UNL     1     -11.204  12.852  67.348  1.00  0.00    -0.331 A  
HETATM   15  C   UNL     1     -12.145  11.602  69.593  1.00  0.00    -0.280 A  
HETATM   16  C   UNL     1     -12.598  10.934  70.720  1.00  0.00    -0.470 A  
HETATM   17  C   UNL     1     -11.259  11.482  67.471  1.00  0.00    -0.298 A  
HETATM   18  C   UNL     1     -13.052  11.614  71.854  1.00  0.00    -0.490 A  
HETATM   19  C   UNL     1     -12.150  13.016  69.578  1.00  0.00    -0.289 A  
HETATM   20  C   UNL     1     -13.068  13.002  71.862  1.00  0.00    -0.384 A  
HETATM   21  C   UNL     1     -12.627  13.690  70.729  1.00  0.00    -0.397 A  
BRANCH  20  22
HETATM   22  O   UNL     1     -13.480  13.796  72.894  1.00  0.00    -0.652 OA 
HETATM   23  C   UNL     1     -12.783  15.024  73.079  1.00  0.00    -0.456 C  
ENDBRANCH  20  22
ENDBRANCH   9  12
ENDBRANCH   1   9
BRANCH   6  24
HETATM   24  C   UNL     1      -6.712  16.411  67.320  1.00  0.00    -0.221 C  
HETATM   25  C   UNL     1      -5.567  16.642  67.973  1.00  0.00    -0.127 C  
ENDBRANCH   6  24
TORSDOF 4
ENDMDL
MODEL       27
REMARK 921   NORMALIZED FREE ENERGY PREDICTED BY IDOCK:   -5.95 KCAL/MOL
REMARK 922        TOTAL FREE ENERGY PREDICTED BY IDOCK:   -8.13 KCAL/MOL
REMARK 923 INTER-LIGAND FREE ENERGY PREDICTED BY IDOCK:   -7.55 KCAL/MOL
REMARK 924 INTRA-LIGAND FREE ENERGY PREDICTED BY IDOCK:   -0.58 KCAL/MOL
REMARK 927      BINDING AFFINITY PREDICTED BY RF-SCORE:    0.00 PKD
ROOT
HETATM    1  C   UNL     1     -11.148  12.339  67.774  1.00  0.00    -0.255 C  
HETATM    2  N   UNL     1     -11.433  11.136  66.922  1.00  0.00    -0.399 NA 
HETATM    3  C   UNL     1      -9.624  12.616  67.819  1.00  0.00    -0.197 C  
HETATM    4  C   UNL     1     -10.837  11.252  65.576  1.00  0.00    -0.179 C  
HETATM    5  C   UNL     1      -8.863  11.481  67.110  1.00  0.00    -0.168 C  
HETATM    6  C   UNL     1      -9.264  10.103  67.694  1.00  0.00    -0.151 C  
HETATM    7  C   UNL     1      -9.325  11.517  65.641  1.00  0.00    -0.221 C  
HETATM    8  C   UNL     1     -10.807   9.958  67.586  1.00  0.00    -0.257 C  
ENDROOT
BRANCH   1   9
HETATM    9  C   UNL     1     -12.025  13.605  67.444  1.00  0.00    -0.376 C  
HETATM   10  O   UNL     1     -11.972  14.024  66.074  1.00  0.00    -0.376 OA 
HETATM   11  H   UNL     1     -12.501  14.788  65.875  1.00  0.00     0.000 HD 
BRANCH   9  12
HETATM   12  C   UNL     1     -11.646  14.799  68.318  1.00  0.00    -0.348 A  
HETATM   13  N   UNL     1     -10.781  16.987  69.853  1.00  0.00    -0.076 NA 
HETATM   14  C   UNL     1     -10.964  15.880  67.735  1.00  0.00    -0.315 A  
HETATM   15  C   UNL     1     -11.458  15.979  70.425  1.00  0.00    -0.377 A  
HETATM   16  C   UNL     1     -11.705  16.072  71.786  1.00  0.00    -0.593 A  
HETATM   17  C   UNL     1     -10.556  16.927  68.531  1.00  0.00    -0.367 A  
HETATM   18  C   UNL     1     -12.405  15.083  72.483  1.00  0.00    -0.445 A  
HETATM   19  C   UNL     1     -11.915  14.845  69.715  1.00  0.00    -0.366 A  
HETATM   20  C   UNL     1     -12.862  13.960  71.808  1.00  0.00    -0.335 A  
HETATM   21  C   UNL     1     -12.610  13.844  70.439  1.00  0.00    -0.350 A  
BRANCH  20  22
HETATM   22  O   UNL     1     -13.558  12.920  72.355  1.00  0.00    -0.579 OA 
HETATM   23  C   UNL     1     -13.208  11.610  71.920  1.00  0.00    -0.369 C  
ENDBRANCH  20  22
ENDBRANCH   9  12
ENDBRANCH   1   9
BRANCH   6  24
HETATM   24  C   UNL     1      -8.784   9.905  69.113  1.00  0.00    -0.159 C  
HETATM   25  C   UNL     1      -9.561   9.488  70.120  1.00  0.00    -0.290 C  
ENDBRANCH   6  24
TORSDOF 4
ENDMDL
MODEL       28
REMARK 921   NORMALIZED FREE ENERGY PREDICTED BY IDOCK:   -5.93 KCAL/MOL
REMARK 922        TOTAL FREE ENERGY PREDICTED BY IDOCK:   -8.10 KCAL/MOL
REMARK 923 INTER-LIGAND FREE ENERGY PREDICTED BY IDOCK:   -7.33 KCAL/MOL
REMARK 924 INTRA-LIGAND FREE ENERGY PREDICTED BY IDOCK:   -0.77 KCAL/MOL
REMARK 927      BINDING AFFINITY PREDICTED BY RF-SCORE:    0.00 PKD
ROOT
HETATM    1  C   UNL     1     -10.189  15.644  67.636  1.00  0.00    -0.261 C  
HETATM    2  N   UNL     1      -9.881  16.224  66.286  1.00  0.00    -0.292 NA 
HETATM    3  C   UNL     1      -9.840  16.662  68.750  1.00  0.00    -0.252 C  
HETATM    4  C   UNL     1     -10.530  17.535  66.080  1.00  0.00    -0.288 C  
HETATM    5  C   UNL     1      -9.137  17.888  68.139  1.00  0.00    -0.278 C  
HETATM    6  C   UNL     1      -7.918  17.454  67.286  1.00  0.00    -0.218 C  
HETATM    7  C   UNL     1     -10.165  18.533  67.189  1.00  0.00    -0.408 C  
HETATM    8  C   UNL     1      -8.408  16.441  66.216  1.00  0.00    -0.327 C  
ENDROOT
BRANCH   1   9
HETATM    9  C   UNL     1     -11.624  15.007  67.770  1.00  0.00    -0.319 C  
HETATM   10  O   UNL     1     -12.476  15.658  68.720  1.00  0.00    -0.528 OA 
HETATM   11  H   UNL     1     -13.341  15.274  68.801  1.00  0.00     0.000 HD 
BRANCH   9  12
HETATM   12  C   UNL     1     -11.553  13.526  68.137  1.00  0.00    -0.368 A  
HETATM   13  N   UNL     1     -11.331  10.850  68.963  1.00  0.00    -0.257 NA 
HETATM   14  C   UNL     1     -11.884  13.132  69.443  1.00  0.00    -0.383 A  
HETATM   15  C   UNL     1     -11.037  11.200  67.700  1.00  0.00    -0.287 A  
HETATM   16  C   UNL     1     -10.628  10.192  66.841  1.00  0.00    -0.267 A  
HETATM   17  C   UNL     1     -11.754  11.809  69.802  1.00  0.00    -0.335 A  
HETATM   18  C   UNL     1     -10.302  10.441  65.505  1.00  0.00    -0.265 A  
HETATM   19  C   UNL     1     -11.118  12.527  67.220  1.00  0.00    -0.319 A  
HETATM   20  C   UNL     1     -10.372  11.736  65.011  1.00  0.00    -0.281 A  
HETATM   21  C   UNL     1     -10.770  12.767  65.867  1.00  0.00    -0.294 A  
BRANCH  20  22
HETATM   22  O   UNL     1     -10.088  12.128  63.734  1.00  0.00    -0.371 OA 
HETATM   23  C   UNL     1      -9.397  11.193  62.912  1.00  0.00    -0.364 C  
ENDBRANCH  20  22
ENDBRANCH   9  12
ENDBRANCH   1   9
BRANCH   6  24
HETATM   24  C   UNL     1      -6.793  16.885  68.119  1.00  0.00    -0.164 C  
HETATM   25  C   UNL     1      -6.058  17.600  68.980  1.00  0.00    -0.206 C  
ENDBRANCH   6  24
TORSDOF 4
ENDMDL
MODEL       29
REMARK 921   NORMALIZED FREE ENERGY PREDICTED BY IDOCK:   -5.91 KCAL/MOL
REMARK 922        TOTAL FREE ENERGY PREDICTED BY IDOCK:   -8.08 KCAL/MOL
REMARK 923 INTER-LIGAND FREE ENERGY PREDICTED BY IDOCK:   -7.74 KCAL/MOL
REMARK 924 INTRA-LIGAND FREE ENERGY PREDICTED BY IDOCK:   -0.33 KCAL/MOL
REMARK 927      BINDING AFFINITY PREDICTED BY RF-SCORE:    0.00 PKD
ROOT
HETATM    1  C   UNL     1     -10.640   8.759  69.716  1.00  0.00    -0.224 C  
HETATM    2  N   UNL     1     -10.238   7.342  70.010  1.00  0.00    -0.205 NA 
HETATM    3  C   UNL     1     -11.253   9.415  70.979  1.00  0.00    -0.412 C  
HETATM    4  C   UNL     1      -9.350   7.246  71.185  1.00  0.00    -0.156 C  
HETATM    5  C   UNL     1     -11.406   8.365  72.094  1.00  0.00    -0.437 C  
HETATM    6  C   UNL     1     -12.198   7.134  71.584  1.00  0.00    -0.385 C  
HETATM    7  C   UNL     1      -9.978   7.893  72.429  1.00  0.00    -0.291 C  
HETATM    8  C   UNL     1     -11.479   6.579  70.325  1.00  0.00    -0.411 C  
ENDROOT
BRANCH   1   9
HETATM    9  C   UNL     1      -9.533   9.628  69.009  1.00  0.00    -0.168 C  
HETATM   10  O   UNL     1      -9.093  10.761  69.768  1.00  0.00    -0.368 OA 
HETATM   11  H   UNL     1      -8.426  11.285  69.342  1.00  0.00     0.000 HD 
BRANCH   9  12
HETATM   12  C   UNL     1      -9.993  10.126  67.640  1.00  0.00    -0.216 A  
HETATM   13  N   UNL     1     -10.669  11.011  65.061  1.00  0.00    -0.241 NA 
HETATM   14  C   UNL     1      -9.671   9.374  66.499  1.00  0.00    -0.299 A  
HETATM   15  C   UNL     1     -11.014  11.731  66.141  1.00  0.00    -0.307 A  
HETATM   16  C   UNL     1     -11.709  12.910  65.922  1.00  0.00    -0.449 A  
HETATM   17  C   UNL     1     -10.019   9.853  65.256  1.00  0.00    -0.249 A  
HETATM   18  C   UNL     1     -12.122  13.735  66.973  1.00  0.00    -0.436 A  
HETATM   19  C   UNL     1     -10.699  11.350  67.466  1.00  0.00    -0.266 A  
HETATM   20  C   UNL     1     -11.823  13.383  68.281  1.00  0.00    -0.358 A  
HETATM   21  C   UNL     1     -11.112  12.204  68.519  1.00  0.00    -0.295 A  
BRANCH  20  22
HETATM   22  O   UNL     1     -12.163  14.085  69.402  1.00  0.00    -0.336 OA 
HETATM   23  C   UNL     1     -12.182  13.367  70.631  1.00  0.00    -0.350 C  
ENDBRANCH  20  22
ENDBRANCH   9  12
ENDBRANCH   1   9
BRANCH   6  24
HETATM   24  C   UNL     1     -13.651   7.446  71.306  1.00  0.00    -0.341 C  
HETATM   25  C   UNL     1     -14.410   8.240  72.070  1.00  0.00    -0.541 C  
ENDBRANCH   6  24
TORSDOF 4
ENDMDL
MODEL       30
REMARK 921   NORMALIZED FREE ENERGY PREDICTED BY IDOCK:   -5.90 KCAL/MOL
REMARK 922        TOTAL FREE ENERGY PREDICTED BY IDOCK:   -8.06 KCAL/MOL
REMARK 923 INTER-LIGAND FREE ENERGY PREDICTED BY IDOCK:   -7.67 KCAL/MOL
REMARK 924 INTRA-LIGAND FREE ENERGY PREDICTED BY IDOCK:   -0.39 KCAL/MOL
REMARK 927      BINDING AFFINITY PREDICTED BY RF-SCORE:    0.00 PKD
ROOT
HETATM    1  C   UNL     1     -10.628   9.631  69.266  1.00  0.00    -0.219 C  
HETATM    2  N   UNL     1     -10.077   8.240  69.387  1.00  0.00    -0.193 NA 
HETATM    3  C   UNL     1     -11.015  10.179  70.663  1.00  0.00    -0.357 C  
HETATM    4  C   UNL     1      -8.965   8.162  70.355  1.00  0.00    -0.146 C  
HETATM    5  C   UNL     1     -10.866   9.070  71.721  1.00  0.00    -0.437 C  
HETATM    6  C   UNL     1     -11.658   7.804  71.305  1.00  0.00    -0.301 C  
HETATM    7  C   UNL     1      -9.370   8.699  71.736  1.00  0.00    -0.343 C  
HETATM    8  C   UNL     1     -11.172   7.366  69.896  1.00  0.00    -0.135 C  
ENDROOT
BRANCH   1   9
HETATM    9  C   UNL     1      -9.750  10.618  68.407  1.00  0.00    -0.166 C  
HETATM   10  O   UNL     1      -8.672  11.232  69.125  1.00  0.00    -0.369 OA 
HETATM   11  H   UNL     1      -8.142  11.827  68.607  1.00  0.00     0.000 HD 
BRANCH   9  12
HETATM   12  C   UNL     1     -10.593  11.727  67.781  1.00  0.00    -0.232 A  
HETATM   13  N   UNL     1     -12.274  13.729  66.754  1.00  0.00    -0.420 NA 
HETATM   14  C   UNL     1     -11.214  12.666  68.621  1.00  0.00    -0.323 A  
HETATM   15  C   UNL     1     -11.667  12.860  65.930  1.00  0.00    -0.399 A  
HETATM   16  C   UNL     1     -11.906  13.000  64.572  1.00  0.00    -0.431 A  
HETATM   17  C   UNL     1     -12.033  13.625  68.070  1.00  0.00    -0.350 A  
HETATM   18  C   UNL     1     -11.322  12.155  63.623  1.00  0.00    -0.545 A  
HETATM   19  C   UNL     1     -10.816  11.824  66.379  1.00  0.00    -0.325 A  
HETATM   20  C   UNL     1     -10.485  11.130  64.040  1.00  0.00    -0.383 A  
HETATM   21  C   UNL     1     -10.243  10.966  65.407  1.00  0.00    -0.339 A  
BRANCH  20  22
HETATM   22  O   UNL     1      -9.846  10.233  63.232  1.00  0.00    -0.261 OA 
HETATM   23  C   UNL     1      -8.613  10.651  62.655  1.00  0.00    -0.230 C  
ENDBRANCH  20  22
ENDBRANCH   9  12
ENDBRANCH   1   9
BRANCH   6  24
HETATM   24  C   UNL     1     -13.154   8.011  71.340  1.00  0.00    -0.265 C  
HETATM   25  C   UNL     1     -13.791   8.741  72.263  1.00  0.00    -0.505 C  
ENDBRANCH   6  24
TORSDOF 4
ENDMDL
MODEL       31
REMARK 921   NORMALIZED FREE ENERGY PREDICTED BY IDOCK:   -5.89 KCAL/MOL
REMARK 922        TOTAL FREE ENERGY PREDICTED BY IDOCK:   -8.05 KCAL/MOL
REMARK 923 INTER-LIGAND FREE ENERGY PREDICTED BY IDOCK:   -7.36 KCAL/MOL
REMARK 924 INTRA-LIGAND FREE ENERGY PREDICTED BY IDOCK:   -0.69 KCAL/MOL
REMARK 927      BINDING AFFINITY PREDICTED BY RF-SCORE:    0.00 PKD
ROOT
HETATM    1  C   UNL     1     -10.709  11.521  67.911  1.00  0.00    -0.200 C  
HETATM    2  N   UNL     1      -9.829  12.640  67.435  1.00  0.00    -0.203 NA 
HETATM    3  C   UNL     1     -10.950  10.503  66.767  1.00  0.00    -0.150 C  
HETATM    4  C   UNL     1      -8.571  12.147  66.841  1.00  0.00    -0.191 C  
HETATM    5  C   UNL     1     -10.346  11.036  65.455  1.00  0.00    -0.321 C  
HETATM    6  C   UNL     1     -10.875  12.459  65.146  1.00  0.00    -0.333 C  
HETATM    7  C   UNL     1      -8.829  11.147  65.703  1.00  0.00    -0.165 C  
HETATM    8  C   UNL     1     -10.569  13.369  66.367  1.00  0.00    -0.285 C  
ENDROOT
BRANCH   1   9
HETATM    9  C   UNL     1     -10.268  10.867  69.275  1.00  0.00    -0.166 C  
HETATM   10  O   UNL     1      -9.748   9.537  69.155  1.00  0.00    -0.166 OA 
HETATM   11  H   UNL     1      -9.482   9.142  69.977  1.00  0.00     0.000 HD 
BRANCH   9  12
HETATM   12  C   UNL     1     -11.413  10.838  70.285  1.00  0.00    -0.406 A  
HETATM   13  N   UNL     1     -13.598  10.653  72.041  1.00  0.00    -0.207 NA 
HETATM   14  C   UNL     1     -11.867   9.598  70.763  1.00  0.00    -0.378 A  
HETATM   15  C   UNL     1     -13.161  11.851  71.620  1.00  0.00    -0.328 A  
HETATM   16  C   UNL     1     -13.830  12.971  72.089  1.00  0.00    -0.450 A  
HETATM   17  C   UNL     1     -12.945   9.559  71.618  1.00  0.00    -0.396 A  
HETATM   18  C   UNL     1     -13.458  14.267  71.721  1.00  0.00    -0.464 A  
HETATM   19  C   UNL     1     -12.074  12.017  70.731  1.00  0.00    -0.297 A  
HETATM   20  C   UNL     1     -12.395  14.454  70.848  1.00  0.00    -0.349 A  
HETATM   21  C   UNL     1     -11.718  13.336  70.356  1.00  0.00    -0.161 A  
BRANCH  20  22
HETATM   22  O   UNL     1     -11.919  15.656  70.405  1.00  0.00    -0.330 OA 
HETATM   23  C   UNL     1     -11.665  15.772  69.009  1.00  0.00    -0.396 C  
ENDBRANCH  20  22
ENDBRANCH   9  12
ENDBRANCH   1   9
BRANCH   6  24
HETATM   24  C   UNL     1     -12.345  12.475  64.793  1.00  0.00    -0.544 C  
HETATM   25  C   UNL     1     -12.839  12.082  63.612  1.00  0.00    -0.472 C  
ENDBRANCH   6  24
TORSDOF 4
ENDMDL
MODEL       32
REMARK 921   NORMALIZED FREE ENERGY PREDICTED BY IDOCK:   -5.85 KCAL/MOL
REMARK 922        TOTAL FREE ENERGY PREDICTED BY IDOCK:   -8.00 KCAL/MOL
REMARK 923 INTER-LIGAND FREE ENERGY PREDICTED BY IDOCK:   -7.12 KCAL/MOL
REMARK 924 INTRA-LIGAND FREE ENERGY PREDICTED BY IDOCK:   -0.88 KCAL/MOL
REMARK 927      BINDING AFFINITY PREDICTED BY RF-SCORE:    0.00 PKD
ROOT
HETATM    1  C   UNL     1      -9.380  12.826  67.692  1.00  0.00    -0.191 C  
HETATM    2  N   UNL     1     -10.654  12.684  66.911  1.00  0.00    -0.239 NA 
HETATM    3  C   UNL     1      -8.927  11.447  68.234  1.00  0.00    -0.175 C  
HETATM    4  C   UNL     1     -10.547  11.664  65.848  1.00  0.00    -0.271 C  
HETATM    5  C   UNL     1     -10.005  10.387  67.941  1.00  0.00    -0.192 C  
HETATM    6  C   UNL     1     -11.385  10.845  68.477  1.00  0.00    -0.367 C  
HETATM    7  C   UNL     1     -10.106  10.302  66.406  1.00  0.00    -0.296 C  
HETATM    8  C   UNL     1     -11.713  12.231  67.857  1.00  0.00    -0.347 C  
ENDROOT
BRANCH   1   9
HETATM    9  C   UNL     1      -8.245  13.638  66.963  1.00  0.00    -0.037 C  
HETATM   10  O   UNL     1      -6.939  13.057  67.066  1.00  0.00    -0.360 OA 
HETATM   11  H   UNL     1      -6.254  13.546  66.627  1.00  0.00     0.000 HD 
BRANCH   9  12
HETATM   12  C   UNL     1      -8.163  15.077  67.471  1.00  0.00    -0.199 A  
HETATM   13  N   UNL     1      -8.027  17.656  68.575  1.00  0.00    -0.276 NA 
HETATM   14  C   UNL     1      -7.296  15.374  68.534  1.00  0.00    -0.116 A  
HETATM   15  C   UNL     1      -8.842  17.400  67.538  1.00  0.00    -0.224 A  
HETATM   16  C   UNL     1      -9.597  18.455  67.049  1.00  0.00    -0.301 A  
HETATM   17  C   UNL     1      -7.269  16.652  69.045  1.00  0.00    -0.222 A  
HETATM   18  C   UNL     1     -10.473  18.304  65.971  1.00  0.00    -0.380 A  
HETATM   19  C   UNL     1      -8.966  16.125  66.940  1.00  0.00    -0.248 A  
HETATM   20  C   UNL     1     -10.613  17.062  65.369  1.00  0.00    -0.134 A  
HETATM   21  C   UNL     1      -9.869  15.985  65.857  1.00  0.00    -0.380 A  
BRANCH  20  22
HETATM   22  O   UNL     1     -11.425  16.767  64.310  1.00  0.00    -1.125 OA 
HETATM   23  C   UNL     1     -11.925  15.436  64.233  1.00  0.00    -0.188 C  
ENDBRANCH  20  22
ENDBRANCH   9  12
ENDBRANCH   1   9
BRANCH   6  24
HETATM   24  C   UNL     1     -11.445  10.881  69.986  1.00  0.00    -0.411 C  
HETATM   25  C   UNL     1     -12.174  11.755  70.690  1.00  0.00    -0.443 C  
ENDBRANCH   6  24
TORSDOF 4
ENDMDL
MODEL       33
REMARK 921   NORMALIZED FREE ENERGY PREDICTED BY IDOCK:   -5.84 KCAL/MOL
REMARK 922        TOTAL FREE ENERGY PREDICTED BY IDOCK:   -7.99 KCAL/MOL
REMARK 923 INTER-LIGAND FREE ENERGY PREDICTED BY IDOCK:   -7.33 KCAL/MOL
REMARK 924 INTRA-LIGAND FREE ENERGY PREDICTED BY IDOCK:   -0.66 KCAL/MOL
REMARK 927      BINDING AFFINITY PREDICTED BY RF-SCORE:    0.00 PKD
ROOT
HETATM    1  C   UNL     1     -10.862  12.534  68.591  1.00  0.00    -0.248 C  
HETATM    2  N   UNL     1      -9.502  13.053  68.224  1.00  0.00    -0.220 NA 
HETATM    3  C   UNL     1     -11.951  13.233  67.739  1.00  0.00    -0.356 C  
HETATM    4  C   UNL     1      -9.238  12.953  66.775  1.00  0.00    -0.230 C  
HETATM    5  C   UNL     1     -11.317  14.356  66.896  1.00  0.00    -0.357 C  
HETATM    6  C   UNL     1     -10.508  15.326  67.794  1.00  0.00    -0.253 C  
HETATM    7  C   UNL     1     -10.322  13.660  65.947  1.00  0.00    -0.304 C  
HETATM    8  C   UNL     1      -9.460  14.498  68.586  1.00  0.00    -0.205 C  
ENDROOT
BRANCH   1   9
HETATM    9  C   UNL     1     -10.982  10.964  68.630  1.00  0.00    -0.227 C  
HETATM   10  O   UNL     1     -11.655  10.391  67.502  1.00  0.00    -0.555 OA 
HETATM   11  H   UNL     1     -11.728   9.445  67.525  1.00  0.00     0.000 HD 
BRANCH   9  12
HETATM   12  C   UNL     1     -11.689  10.482  69.896  1.00  0.00    -0.372 A  
HETATM   13  N   UNL     1     -12.930   9.748  72.306  1.00  0.00    -0.381 NA 
HETATM   14  C   UNL     1     -12.502  11.380  70.604  1.00  0.00    -0.419 A  
HETATM   15  C   UNL     1     -12.180   8.863  71.629  1.00  0.00    -0.343 A  
HETATM   16  C   UNL     1     -12.053   7.593  72.170  1.00  0.00    -0.325 A  
HETATM   17  C   UNL     1     -13.085  10.975  71.784  1.00  0.00    -0.449 A  
HETATM   18  C   UNL     1     -11.301   6.593  71.547  1.00  0.00    -0.326 A  
HETATM   19  C   UNL     1     -11.520   9.167  70.416  1.00  0.00    -0.228 A  
HETATM   20  C   UNL     1     -10.644   6.868  70.357  1.00  0.00    -0.219 A  
HETATM   21  C   UNL     1     -10.750   8.147  69.805  1.00  0.00    -0.229 A  
BRANCH  20  22
HETATM   22  O   UNL     1      -9.879   5.993  69.638  1.00  0.00    -0.154 OA 
HETATM   23  C   UNL     1      -9.721   4.684  70.175  1.00  0.00    -0.215 C  
ENDBRANCH  20  22
ENDBRANCH   9  12
ENDBRANCH   1   9
BRANCH   6  24
HETATM   24  C   UNL     1     -11.386  16.142  68.714  1.00  0.00    -0.359 C  
HETATM   25  C   UNL     1     -11.355  16.062  70.050  1.00  0.00    -0.353 C  
ENDBRANCH   6  24
TORSDOF 4
ENDMDL
MODEL       34
REMARK 921   NORMALIZED FREE ENERGY PREDICTED BY IDOCK:   -5.82 KCAL/MOL
REMARK 922        TOTAL FREE ENERGY PREDICTED BY IDOCK:   -7.97 KCAL/MOL
REMARK 923 INTER-LIGAND FREE ENERGY PREDICTED BY IDOCK:   -7.56 KCAL/MOL
REMARK 924 INTRA-LIGAND FREE ENERGY PREDICTED BY IDOCK:   -0.41 KCAL/MOL
REMARK 927      BINDING AFFINITY PREDICTED BY RF-SCORE:    0.00 PKD
ROOT
HETATM    1  C   UNL     1      -9.775  14.754  66.790  1.00  0.00    -0.254 C  
HETATM    2  N   UNL     1     -11.056  14.860  66.015  1.00  0.00    -0.333 NA 
HETATM    3  C   UNL     1      -9.276  13.286  66.803  1.00  0.00    -0.237 C  
HETATM    4  C   UNL     1     -10.937  14.291  64.658  1.00  0.00    -0.367 C  
HETATM    5  C   UNL     1     -10.329  12.369  66.155  1.00  0.00    -0.271 C  
HETATM    6  C   UNL     1     -11.712  12.563  66.824  1.00  0.00    -0.453 C  
HETATM    7  C   UNL     1     -10.450  12.834  64.691  1.00  0.00    -0.373 C  
HETATM    8  C   UNL     1     -12.088  14.067  66.741  1.00  0.00    -0.447 C  
ENDROOT
BRANCH   1   9
HETATM    9  C   UNL     1      -8.673  15.807  66.395  1.00  0.00    -0.337 C  
HETATM   10  O   UNL     1      -7.326  15.369  66.614  1.00  0.00    -0.263 OA 
HETATM   11  H   UNL     1      -6.661  16.004  66.375  1.00  0.00     0.000 HD 
BRANCH   9  12
HETATM   12  C   UNL     1      -8.864  17.131  67.133  1.00  0.00    -0.232 A  
HETATM   13  N   UNL     1      -9.396  19.551  68.455  1.00  0.00    -0.367 NA 
HETATM   14  C   UNL     1      -9.886  17.234  68.090  1.00  0.00    -0.290 A  
HETATM   15  C   UNL     1      -8.395  19.467  67.565  1.00  0.00    -0.297 A  
HETATM   16  C   UNL     1      -7.650  20.614  67.337  1.00  0.00    -0.375 A  
HETATM   17  C   UNL     1     -10.111  18.443  68.708  1.00  0.00    -0.363 A  
HETATM   18  C   UNL     1      -6.582  20.639  66.435  1.00  0.00    -0.307 A  
HETATM   19  C   UNL     1      -8.077  18.285  66.857  1.00  0.00    -0.259 A  
HETATM   20  C   UNL     1      -6.253  19.491  65.728  1.00  0.00    -0.194 A  
HETATM   21  C   UNL     1      -7.002  18.330  65.936  1.00  0.00    -0.312 A  
BRANCH  20  22
HETATM   22  O   UNL     1      -5.239  19.367  64.821  1.00  0.00    -0.153 OA 
HETATM   23  C   UNL     1      -5.590  19.469  63.445  1.00  0.00    -0.319 C  
ENDBRANCH  20  22
ENDBRANCH   9  12
ENDBRANCH   1   9
BRANCH   6  24
HETATM   24  C   UNL     1     -11.751  12.056  68.247  1.00  0.00    -0.396 C  
HETATM   25  C   UNL     1     -11.887  12.841  69.323  1.00  0.00    -0.358 C  
ENDBRANCH   6  24
TORSDOF 4
ENDMDL
MODEL       35
REMARK 921   NORMALIZED FREE ENERGY PREDICTED BY IDOCK:   -5.82 KCAL/MOL
REMARK 922        TOTAL FREE ENERGY PREDICTED BY IDOCK:   -7.97 KCAL/MOL
REMARK 923 INTER-LIGAND FREE ENERGY PREDICTED BY IDOCK:   -7.17 KCAL/MOL
REMARK 924 INTRA-LIGAND FREE ENERGY PREDICTED BY IDOCK:   -0.80 KCAL/MOL
REMARK 927      BINDING AFFINITY PREDICTED BY RF-SCORE:    0.00 PKD
ROOT
HETATM    1  C   UNL     1      -7.981  17.534  68.076  1.00  0.00    -0.234 C  
HETATM    2  N   UNL     1      -9.255  17.659  67.291  1.00  0.00    -0.239 NA 
HETATM    3  C   UNL     1      -7.543  18.922  68.610  1.00  0.00    -0.366 C  
HETATM    4  C   UNL     1     -10.321  18.333  68.058  1.00  0.00    -0.391 C  
HETATM    5  C   UNL     1      -8.459  20.018  68.037  1.00  0.00    -0.256 C  
HETATM    6  C   UNL     1      -8.514  19.934  66.491  1.00  0.00    -0.379 C  
HETATM    7  C   UNL     1      -9.871  19.710  68.572  1.00  0.00    -0.519 C  
HETATM    8  C   UNL     1      -8.965  18.502  66.096  1.00  0.00    -0.108 C  
ENDROOT
BRANCH   1   9
HETATM    9  C   UNL     1      -7.983  16.395  69.163  1.00  0.00    -0.204 C  
HETATM   10  O   UNL     1      -6.682  15.912  69.520  1.00  0.00    -0.178 OA 
HETATM   11  H   UNL     1      -6.683  15.225  70.176  1.00  0.00     0.000 HD 
BRANCH   9  12
HETATM   12  C   UNL     1      -8.828  15.199  68.728  1.00  0.00    -0.196 A  
HETATM   13  N   UNL     1     -10.355  13.052  67.753  1.00  0.00    -0.222 NA 
HETATM   14  C   UNL     1      -8.358  14.375  67.693  1.00  0.00    -0.186 A  
HETATM   15  C   UNL     1     -10.811  13.809  68.765  1.00  0.00    -0.259 A  
HETATM   16  C   UNL     1     -12.049  13.482  69.294  1.00  0.00    -0.335 A  
HETATM   17  C   UNL     1      -9.146  13.338  67.246  1.00  0.00    -0.221 A  
HETATM   18  C   UNL     1     -12.618  14.198  70.351  1.00  0.00    -0.397 A  
HETATM   19  C   UNL     1     -10.100  14.908  69.298  1.00  0.00    -0.201 A  
HETATM   20  C   UNL     1     -11.940  15.282  70.890  1.00  0.00    -0.342 A  
HETATM   21  C   UNL     1     -10.696  15.633  70.359  1.00  0.00    -0.336 A  
BRANCH  20  22
HETATM   22  O   UNL     1     -12.368  16.069  71.921  1.00  0.00    -0.447 OA 
HETATM   23  C   UNL     1     -13.557  15.662  72.590  1.00  0.00    -0.579 C  
ENDBRANCH  20  22
ENDBRANCH   9  12
ENDBRANCH   1   9
BRANCH   6  24
HETATM   24  C   UNL     1      -7.205  20.308  65.836  1.00  0.00    -0.268 C  
HETATM   25  C   UNL     1      -6.444  19.457  65.137  1.00  0.00    -0.302 C  
ENDBRANCH   6  24
TORSDOF 4
ENDMDL
MODEL       36
REMARK 921   NORMALIZED FREE ENERGY PREDICTED BY IDOCK:   -5.78 KCAL/MOL
REMARK 922        TOTAL FREE ENERGY PREDICTED BY IDOCK:   -7.92 KCAL/MOL
REMARK 923 INTER-LIGAND FREE ENERGY PREDICTED BY IDOCK:   -7.50 KCAL/MOL
REMARK 924 INTRA-LIGAND FREE ENERGY PREDICTED BY IDOCK:   -0.42 KCAL/MOL
REMARK 927      BINDING AFFINITY PREDICTED BY RF-SCORE:    0.00 PKD
ROOT
HETATM    1  C   UNL     1     -11.564   8.510  71.068  1.00  0.00    -0.279 C  
HETATM    2  N   UNL     1     -10.459   8.502  72.084  1.00  0.00    -0.325 NA 
HETATM    3  C   UNL     1     -11.880   7.064  70.608  1.00  0.00    -0.377 C  
HETATM    4  C   UNL     1     -10.747   7.598  73.215  1.00  0.00    -0.350 C  
HETATM    5  C   UNL     1     -10.858   6.085  71.214  1.00  0.00    -0.331 C  
HETATM    6  C   UNL     1      -9.410   6.538  70.897  1.00  0.00    -0.165 C  
HETATM    7  C   UNL     1     -11.049   6.168  72.741  1.00  0.00    -0.294 C  
HETATM    8  C   UNL     1      -9.232   7.994  71.409  1.00  0.00    -0.144 C  
ENDROOT
BRANCH   1   9
HETATM    9  C   UNL     1     -12.833   9.349  71.476  1.00  0.00    -0.362 C  
HETATM   10  O   UNL     1     -14.056   8.910  70.871  1.00  0.00    -0.594 OA 
HETATM   11  H   UNL     1     -14.821   9.416  71.117  1.00  0.00     0.000 HD 
BRANCH   9  12
HETATM   12  C   UNL     1     -12.656  10.833  71.160  1.00  0.00    -0.532 A  
HETATM   13  N   UNL     1     -12.506  13.586  70.623  1.00  0.00    -0.349 NA 
HETATM   14  C   UNL     1     -13.137  11.785  72.073  1.00  0.00    -0.436 A  
HETATM   15  C   UNL     1     -12.011  12.694  69.750  1.00  0.00    -0.295 A  
HETATM   16  C   UNL     1     -11.433  13.191  68.593  1.00  0.00    -0.342 A  
HETATM   17  C   UNL     1     -13.046  13.123  71.762  1.00  0.00    -0.383 A  
HETATM   18  C   UNL     1     -10.883  12.354  67.618  1.00  0.00    -0.258 A  
HETATM   19  C   UNL     1     -12.061  11.295  69.952  1.00  0.00    -0.414 A  
HETATM   20  C   UNL     1     -10.922  10.978  67.793  1.00  0.00    -0.269 A  
HETATM   21  C   UNL     1     -11.513  10.459  68.948  1.00  0.00    -0.251 A  
BRANCH  20  22
HETATM   22  O   UNL     1     -10.424  10.042  66.932  1.00  0.00    -0.236 OA 
HETATM   23  C   UNL     1     -10.165  10.468  65.598  1.00  0.00    -0.246 C  
ENDBRANCH  20  22
ENDBRANCH   9  12
ENDBRANCH   1   9
BRANCH   6  24
HETATM   24  C   UNL     1      -9.065   6.416  69.431  1.00  0.00    -0.140 C  
HETATM   25  C   UNL     1      -8.753   7.451  68.642  1.00  0.00    -0.128 C  
ENDBRANCH   6  24
TORSDOF 4
ENDMDL
MODEL       37
REMARK 921   NORMALIZED FREE ENERGY PREDICTED BY IDOCK:   -5.77 KCAL/MOL
REMARK 922        TOTAL FREE ENERGY PREDICTED BY IDOCK:   -7.91 KCAL/MOL
REMARK 923 INTER-LIGAND FREE ENERGY PREDICTED BY IDOCK:   -7.48 KCAL/MOL
REMARK 924 INTRA-LIGAND FREE ENERGY PREDICTED BY IDOCK:   -0.43 KCAL/MOL
REMARK 927      BINDING AFFINITY PREDICTED BY RF-SCORE:    0.00 PKD
ROOT
HETATM    1  C   UNL     1     -10.285  15.612  66.962  1.00  0.00    -0.274 C  
HETATM    2  N   UNL     1      -9.776  16.575  65.929  1.00  0.00    -0.470 NA 
HETATM    3  C   UNL     1     -10.213  16.250  68.373  1.00  0.00    -0.249 C  
HETATM    4  C   UNL     1     -10.463  17.881  65.997  1.00  0.00    -0.293 C  
HETATM    5  C   UNL     1      -9.494  17.609  68.297  1.00  0.00    -0.295 C  
HETATM    6  C   UNL     1      -8.114  17.463  67.607  1.00  0.00    -0.203 C  
HETATM    7  C   UNL     1     -10.372  18.502  67.399  1.00  0.00    -0.432 C  
HETATM    8  C   UNL     1      -8.333  16.816  66.212  1.00  0.00    -0.318 C  
ENDROOT
BRANCH   1   9
HETATM    9  C   UNL     1     -11.674  14.951  66.622  1.00  0.00    -0.217 C  
HETATM   10  O   UNL     1     -12.340  14.358  67.744  1.00  0.00    -0.620 OA 
HETATM   11  H   UNL     1     -13.177  13.959  67.540  1.00  0.00     0.000 HD 
BRANCH   9  12
HETATM   12  C   UNL     1     -11.544  13.887  65.534  1.00  0.00    -0.332 A  
HETATM   13  N   UNL     1     -11.486  11.939  63.511  1.00  0.00    -0.436 NA 
HETATM   14  C   UNL     1     -12.212  14.077  64.314  1.00  0.00    -0.453 A  
HETATM   15  C   UNL     1     -10.814  11.750  64.658  1.00  0.00    -0.307 A  
HETATM   16  C   UNL     1     -10.103  10.568  64.790  1.00  0.00    -0.406 A  
HETATM   17  C   UNL     1     -12.159  13.091  63.355  1.00  0.00    -0.515 A  
HETATM   18  C   UNL     1      -9.365  10.269  65.939  1.00  0.00    -0.226 A  
HETATM   19  C   UNL     1     -10.807  12.684  65.720  1.00  0.00    -0.304 A  
HETATM   20  C   UNL     1      -9.344  11.169  66.995  1.00  0.00    -0.170 A  
HETATM   21  C   UNL     1     -10.066  12.360  66.884  1.00  0.00    -0.230 A  
BRANCH  20  22
HETATM   22  O   UNL     1      -8.668  11.014  68.172  1.00  0.00    -0.130 OA 
HETATM   23  C   UNL     1      -9.267  10.174  69.153  1.00  0.00    -0.197 C  
ENDBRANCH  20  22
ENDBRANCH   9  12
ENDBRANCH   1   9
BRANCH   6  24
HETATM   24  C   UNL     1      -7.124  16.680  68.437  1.00  0.00    -0.167 C  
HETATM   25  C   UNL     1      -6.406  17.199  69.441  1.00  0.00    -0.238 C  
ENDBRANCH   6  24
TORSDOF 4
ENDMDL
MODEL       38
REMARK 921   NORMALIZED FREE ENERGY PREDICTED BY IDOCK:   -5.72 KCAL/MOL
REMARK 922        TOTAL FREE ENERGY PREDICTED BY IDOCK:   -7.84 KCAL/MOL
REMARK 923 INTER-LIGAND FREE ENERGY PREDICTED BY IDOCK:   -7.49 KCAL/MOL
REMARK 924 INTRA-LIGAND FREE ENERGY PREDICTED BY IDOCK:   -0.36 KCAL/MOL
REMARK 927      BINDING AFFINITY PREDICTED BY RF-SCORE:    0.00 PKD
ROOT
HETATM    1  C   UNL     1     -10.972  15.332  67.032  1.00  0.00    -0.324 C  
HETATM    2  N   UNL     1      -9.968  15.597  68.116  1.00  0.00    -0.216 NA 
HETATM    3  C   UNL     1     -10.526  16.008  65.710  1.00  0.00    -0.391 C  
HETATM    4  C   UNL     1      -8.600  15.212  67.716  1.00  0.00    -0.152 C  
HETATM    5  C   UNL     1      -9.277  16.873  65.959  1.00  0.00    -0.205 C  
HETATM    6  C   UNL     1      -9.524  17.872  67.119  1.00  0.00    -0.263 C  
HETATM    7  C   UNL     1      -8.172  15.899  66.411  1.00  0.00    -0.264 C  
HETATM    8  C   UNL     1      -9.961  17.065  68.372  1.00  0.00    -0.289 C  
ENDROOT
BRANCH   1   9
HETATM    9  C   UNL     1     -11.393  13.822  66.875  1.00  0.00    -0.328 C  
HETATM   10  O   UNL     1     -12.535  13.608  66.037  1.00  0.00    -0.445 OA 
HETATM   11  H   UNL     1     -12.789  12.697  65.942  1.00  0.00     0.000 HD 
BRANCH   9  12
HETATM   12  C   UNL     1     -11.669  13.168  68.227  1.00  0.00    -0.384 A  
HETATM   13  N   UNL     1     -12.088  12.104  70.793  1.00  0.00    -0.287 NA 
HETATM   14  C   UNL     1     -12.160  13.959  69.278  1.00  0.00    -0.383 A  
HETATM   15  C   UNL     1     -11.646  11.322  69.795  1.00  0.00    -0.333 A  
HETATM   16  C   UNL     1     -11.413   9.988  70.089  1.00  0.00    -0.344 A  
HETATM   17  C   UNL     1     -12.344  13.393  70.519  1.00  0.00    -0.329 A  
HETATM   18  C   UNL     1     -10.957   9.083  69.127  1.00  0.00    -0.025 A  
HETATM   19  C   UNL     1     -11.406  11.792  68.483  1.00  0.00    -0.328 A  
HETATM   20  C   UNL     1     -10.712   9.522  67.833  1.00  0.00    -0.228 A  
HETATM   21  C   UNL     1     -10.930  10.867  67.522  1.00  0.00    -0.352 A  
BRANCH  20  22
HETATM   22  O   UNL     1     -10.270   8.755  66.793  1.00  0.00    -0.266 OA 
HETATM   23  C   UNL     1     -10.509   7.354  66.877  1.00  0.00    -0.309 C  
ENDBRANCH  20  22
ENDBRANCH   9  12
ENDBRANCH   1   9
BRANCH   6  24
HETATM   24  C   UNL     1     -10.529  18.943  66.766  1.00  0.00    -0.497 C  
HETATM   25  C   UNL     1     -10.424  19.753  65.706  1.00  0.00    -0.545 C  
ENDBRANCH   6  24
TORSDOF 4
ENDMDL
MODEL       39
REMARK 921   NORMALIZED FREE ENERGY PREDICTED BY IDOCK:   -5.71 KCAL/MOL
REMARK 922        TOTAL FREE ENERGY PREDICTED BY IDOCK:   -7.83 KCAL/MOL
REMARK 923 INTER-LIGAND FREE ENERGY PREDICTED BY IDOCK:   -6.93 KCAL/MOL
REMARK 924 INTRA-LIGAND FREE ENERGY PREDICTED BY IDOCK:   -0.90 KCAL/MOL
REMARK 927      BINDING AFFINITY PREDICTED BY RF-SCORE:    0.00 PKD
ROOT
HETATM    1  C   UNL     1     -10.922  13.676  65.592  1.00  0.00    -0.290 C  
HETATM    2  N   UNL     1     -11.958  12.614  65.821  1.00  0.00    -0.466 NA 
HETATM    3  C   UNL     1     -10.069  13.333  64.343  1.00  0.00    -0.190 C  
HETATM    4  C   UNL     1     -12.783  12.370  64.621  1.00  0.00    -0.283 C  
HETATM    5  C   UNL     1     -10.443  11.934  63.821  1.00  0.00    -0.468 C  
HETATM    6  C   UNL     1     -10.343  10.880  64.953  1.00  0.00    -0.371 C  
HETATM    7  C   UNL     1     -11.922  12.023  63.397  1.00  0.00    -0.571 C  
HETATM    8  C   UNL     1     -11.240  11.345  66.132  1.00  0.00    -0.137 C  
ENDROOT
BRANCH   1   9
HETATM    9  C   UNL     1     -11.471  15.152  65.613  1.00  0.00    -0.192 C  
HETATM   10  O   UNL     1     -11.447  15.813  64.342  1.00  0.00    -0.677 OA 
HETATM   11  H   UNL     1     -11.778  16.703  64.354  1.00  0.00     0.000 HD 
BRANCH   9  12
HETATM   12  C   UNL     1     -10.714  16.023  66.613  1.00  0.00    -0.247 A  
HETATM   13  N   UNL     1      -9.167  17.575  68.370  1.00  0.00    -0.273 NA 
HETATM   14  C   UNL     1      -9.726  16.900  66.139  1.00  0.00    -0.296 A  
HETATM   15  C   UNL     1     -10.128  16.765  68.843  1.00  0.00    -0.285 A  
HETATM   16  C   UNL     1     -10.315  16.735  70.216  1.00  0.00     0.483 A  
HETATM   17  C   UNL     1      -8.990  17.636  67.041  1.00  0.00    -0.250 A  
HETATM   18  C   UNL     1     -11.289  15.933  70.816  1.00  0.00    -0.424 A  
HETATM   19  C   UNL     1     -10.937  15.951  68.017  1.00  0.00    -0.336 A  
HETATM   20  C   UNL     1     -12.094  15.124  70.027  1.00  0.00    -0.345 A  
HETATM   21  C   UNL     1     -11.910  15.132  68.642  1.00  0.00    -0.329 A  
BRANCH  20  22
HETATM   22  O   UNL     1     -13.084  14.294  70.471  1.00  0.00    -0.297 OA 
HETATM   23  C   UNL     1     -12.693  13.225  71.325  1.00  0.00    -0.323 C  
ENDBRANCH  20  22
ENDBRANCH   9  12
ENDBRANCH   1   9
BRANCH   6  24
HETATM   24  C   UNL     1      -8.920  10.632  65.398  1.00  0.00    -0.208 C  
HETATM   25  C   UNL     1      -8.432  10.986  66.593  1.00  0.00    -0.153 C  
ENDBRANCH   6  24
TORSDOF 4
ENDMDL
MODEL       40
REMARK 921   NORMALIZED FREE ENERGY PREDICTED BY IDOCK:   -5.70 KCAL/MOL
REMARK 922        TOTAL FREE ENERGY PREDICTED BY IDOCK:   -7.82 KCAL/MOL
REMARK 923 INTER-LIGAND FREE ENERGY PREDICTED BY IDOCK:   -7.29 KCAL/MOL
REMARK 924 INTRA-LIGAND FREE ENERGY PREDICTED BY IDOCK:   -0.53 KCAL/MOL
REMARK 927      BINDING AFFINITY PREDICTED BY RF-SCORE:    0.00 PKD
ROOT
HETATM    1  C   UNL     1     -10.371  16.600  68.129  1.00  0.00    -0.303 C  
HETATM    2  N   UNL     1     -10.643  17.791  67.255  1.00  0.00    -0.349 NA 
HETATM    3  C   UNL     1      -9.039  16.791  68.897  1.00  0.00    -0.230 C  
HETATM    4  C   UNL     1     -10.601  19.059  68.011  1.00  0.00    -0.305 C  
HETATM    5  C   UNL     1      -8.329  18.066  68.407  1.00  0.00    -0.305 C  
HETATM    6  C   UNL     1      -8.163  18.044  66.866  1.00  0.00    -0.259 C  
HETATM    7  C   UNL     1      -9.270  19.235  68.757  1.00  0.00    -0.421 C  
HETATM    8  C   UNL     1      -9.565  17.849  66.228  1.00  0.00    -0.241 C  
ENDROOT
BRANCH   1   9
HETATM    9  C   UNL     1     -11.580  16.155  69.034  1.00  0.00    -0.298 C  
HETATM   10  O   UNL     1     -11.508  16.614  70.390  1.00  0.00    -0.469 OA 
HETATM   11  H   UNL     1     -12.237  16.346  70.936  1.00  0.00     0.000 HD 
BRANCH   9  12
HETATM   12  C   UNL     1     -11.739  14.636  69.059  1.00  0.00    -0.339 A  
HETATM   13  N   UNL     1     -11.902  11.837  69.233  1.00  0.00    -0.318 NA 
HETATM   14  C   UNL     1     -11.855  13.984  70.297  1.00  0.00    -0.373 A  
HETATM   15  C   UNL     1     -11.822  12.441  68.037  1.00  0.00    -0.316 A  
HETATM   16  C   UNL     1     -11.825  11.629  66.914  1.00  0.00     0.005 A  
HETATM   17  C   UNL     1     -11.927  12.609  70.331  1.00  0.00    -0.248 A  
HETATM   18  C   UNL     1     -11.751  12.151  65.619  1.00  0.00    -0.385 A  
HETATM   19  C   UNL     1     -11.729  13.843  67.876  1.00  0.00    -0.396 A  
HETATM   20  C   UNL     1     -11.657  13.524  65.437  1.00  0.00    -0.316 A  
HETATM   21  C   UNL     1     -11.640  14.356  66.559  1.00  0.00    -0.388 A  
BRANCH  20  22
HETATM   22  O   UNL     1     -11.581  14.173  64.237  1.00  0.00    -0.372 OA 
HETATM   23  C   UNL     1     -11.485  15.593  64.279  1.00  0.00    -0.193 C  
ENDBRANCH  20  22
ENDBRANCH   9  12
ENDBRANCH   1   9
BRANCH   6  24
HETATM   24  C   UNL     1      -7.184  16.993  66.396  1.00  0.00    -0.311 C  
HETATM   25  C   UNL     1      -5.860  17.065  66.574  1.00  0.00    -0.162 C  
ENDBRANCH   6  24
TORSDOF 4
ENDMDL
MODEL       41
REMARK 921   NORMALIZED FREE ENERGY PREDICTED BY IDOCK:   -5.69 KCAL/MOL
REMARK 922        TOTAL FREE ENERGY PREDICTED BY IDOCK:   -7.80 KCAL/MOL
REMARK 923 INTER-LIGAND FREE ENERGY PREDICTED BY IDOCK:   -6.93 KCAL/MOL
REMARK 924 INTRA-LIGAND FREE ENERGY PREDICTED BY IDOCK:   -0.87 KCAL/MOL
REMARK 927      BINDING AFFINITY PREDICTED BY RF-SCORE:    0.00 PKD
ROOT
HETATM    1  C   UNL     1     -10.289  11.887  66.489  1.00  0.00    -0.216 C  
HETATM    2  N   UNL     1     -10.008  11.291  67.837  1.00  0.00    -0.172 NA 
HETATM    3  C   UNL     1     -10.204  10.796  65.391  1.00  0.00    -0.341 C  
HETATM    4  C   UNL     1     -10.872  10.129  68.126  1.00  0.00    -0.262 C  
HETATM    5  C   UNL     1      -9.702   9.475  66.003  1.00  0.00    -0.341 C  
HETATM    6  C   UNL     1      -8.372   9.695  66.768  1.00  0.00    -0.117 C  
HETATM    7  C   UNL     1     -10.768   9.054  67.033  1.00  0.00    -0.185 C  
HETATM    8  C   UNL     1      -8.599  10.806  67.829  1.00  0.00    -0.127 C  
ENDROOT
BRANCH   1   9
HETATM    9  C   UNL     1     -11.588  12.776  66.416  1.00  0.00    -0.378 C  
HETATM   10  O   UNL     1     -12.549  12.345  65.445  1.00  0.00    -0.637 OA 
HETATM   11  H   UNL     1     -13.332  12.880  65.401  1.00  0.00     0.000 HD 
BRANCH   9  12
HETATM   12  C   UNL     1     -11.256  14.240  66.134  1.00  0.00    -0.331 A  
HETATM   13  N   UNL     1     -10.526  16.875  65.489  1.00  0.00    -0.600 NA 
HETATM   14  C   UNL     1     -11.208  14.682  64.802  1.00  0.00    -0.395 A  
HETATM   15  C   UNL     1     -10.594  16.481  66.771  1.00  0.00    -0.224 A  
HETATM   16  C   UNL     1     -10.294  17.424  67.741  1.00  0.00    -0.358 A  
HETATM   17  C   UNL     1     -10.840  15.982  64.536  1.00  0.00    -0.021 A  
HETATM   18  C   UNL     1     -10.337  17.126  69.106  1.00  0.00    -0.297 A  
HETATM   19  C   UNL     1     -10.946  15.170  67.166  1.00  0.00    -0.326 A  
HETATM   20  C   UNL     1     -10.678  15.845  69.518  1.00  0.00    -0.288 A  
HETATM   21  C   UNL     1     -10.971  14.879  68.553  1.00  0.00    -0.260 A  
BRANCH  20  22
HETATM   22  O   UNL     1     -10.764  15.411  70.811  1.00  0.00    -0.306 OA 
HETATM   23  C   UNL     1     -11.779  15.996  71.620  1.00  0.00    -0.506 C  
ENDBRANCH  20  22
ENDBRANCH   9  12
ENDBRANCH   1   9
BRANCH   6  24
HETATM   24  C   UNL     1      -7.217  10.026  65.852  1.00  0.00    -0.115 C  
HETATM   25  C   UNL     1      -6.254  10.908  66.144  1.00  0.00    -0.130 C  
ENDBRANCH   6  24
TORSDOF 4
ENDMDL
MODEL       42
REMARK 921   NORMALIZED FREE ENERGY PREDICTED BY IDOCK:   -5.67 KCAL/MOL
REMARK 922        TOTAL FREE ENERGY PREDICTED BY IDOCK:   -7.79 KCAL/MOL
REMARK 923 INTER-LIGAND FREE ENERGY PREDICTED BY IDOCK:   -7.44 KCAL/MOL
REMARK 924 INTRA-LIGAND FREE ENERGY PREDICTED BY IDOCK:   -0.35 KCAL/MOL
REMARK 927      BINDING AFFINITY PREDICTED BY RF-SCORE:    0.00 PKD
ROOT
HETATM    1  C   UNL     1     -10.959  14.173  66.829  1.00  0.00    -0.300 C  
HETATM    2  N   UNL     1      -9.508  14.547  66.928  1.00  0.00    -0.241 NA 
HETATM    3  C   UNL     1     -11.845  15.309  67.400  1.00  0.00    -0.007 C  
HETATM    4  C   UNL     1      -9.224  15.855  66.305  1.00  0.00    -0.337 C  
HETATM    5  C   UNL     1     -10.960  16.395  68.038  1.00  0.00    -0.327 C  
HETATM    6  C   UNL     1      -9.993  15.775  69.078  1.00  0.00    -0.234 C  
HETATM    7  C   UNL     1     -10.105  16.969  66.891  1.00  0.00    -0.298 C  
HETATM    8  C   UNL     1      -9.171  14.660  68.375  1.00  0.00    -0.197 C  
ENDROOT
BRANCH   1   9
HETATM    9  C   UNL     1     -11.412  13.651  65.414  1.00  0.00    -0.311 C  
HETATM   10  O   UNL     1     -12.825  13.451  65.279  1.00  0.00    -0.648 OA 
HETATM   11  H   UNL     1     -13.098  13.136  64.426  1.00  0.00     0.000 HD 
BRANCH   9  12
HETATM   12  C   UNL     1     -10.713  12.344  65.042  1.00  0.00    -0.329 A  
HETATM   13  N   UNL     1      -9.526   9.940  64.205  1.00  0.00    -0.254 NA 
HETATM   14  C   UNL     1     -10.191  12.197  63.747  1.00  0.00    -0.449 A  
HETATM   15  C   UNL     1      -9.992  10.070  65.457  1.00  0.00    -0.296 A  
HETATM   16  C   UNL     1      -9.858   8.978  66.301  1.00  0.00    -0.361 A  
HETATM   17  C   UNL     1      -9.623  10.997  63.382  1.00  0.00    -0.333 A  
HETATM   18  C   UNL     1     -10.303   9.003  67.626  1.00  0.00    -0.317 A  
HETATM   19  C   UNL     1     -10.607  11.247  65.943  1.00  0.00    -0.309 A  
HETATM   20  C   UNL     1     -10.911  10.147  68.123  1.00  0.00    -0.259 A  
HETATM   21  C   UNL     1     -11.066  11.252  67.283  1.00  0.00    -0.367 A  
BRANCH  20  22
HETATM   22  O   UNL     1     -11.390  10.317  69.391  1.00  0.00    -0.239 OA 
HETATM   23  C   UNL     1     -10.916   9.415  70.386  1.00  0.00    -0.266 C  
ENDBRANCH  20  22
ENDBRANCH   9  12
ENDBRANCH   1   9
BRANCH   6  24
HETATM   24  C   UNL     1     -10.706  15.254  70.304  1.00  0.00    -0.283 C  
HETATM   25  C   UNL     1     -11.570  15.971  71.033  1.00  0.00    -0.472 C  
ENDBRANCH   6  24
TORSDOF 4
ENDMDL
MODEL       43
REMARK 921   NORMALIZED FREE ENERGY PREDICTED BY IDOCK:   -5.60 KCAL/MOL
REMARK 922        TOTAL FREE ENERGY PREDICTED BY IDOCK:   -7.69 KCAL/MOL
REMARK 923 INTER-LIGAND FREE ENERGY PREDICTED BY IDOCK:   -6.87 KCAL/MOL
REMARK 924 INTRA-LIGAND FREE ENERGY PREDICTED BY IDOCK:   -0.82 KCAL/MOL
REMARK 927      BINDING AFFINITY PREDICTED BY RF-SCORE:    0.00 PKD
ROOT
HETATM    1  C   UNL     1     -10.100   8.326  68.953  1.00  0.00    -0.199 C  
HETATM    2  N   UNL     1     -10.305   6.980  68.320  1.00  0.00    -0.185 NA 
HETATM    3  C   UNL     1      -9.436   8.170  70.344  1.00  0.00    -0.163 C  
HETATM    4  C   UNL     1      -9.057   6.193  68.267  1.00  0.00    -0.112 C  
HETATM    5  C   UNL     1      -9.338   6.679  70.714  1.00  0.00    -0.159 C  
HETATM    6  C   UNL     1     -10.724   5.994  70.604  1.00  0.00    -0.341 C  
HETATM    7  C   UNL     1      -8.418   6.041  69.655  1.00  0.00    -0.126 C  
HETATM    8  C   UNL     1     -11.270   6.227  69.169  1.00  0.00    -0.371 C  
ENDROOT
BRANCH   1   9
HETATM    9  C   UNL     1      -9.411   9.396  68.025  1.00  0.00    -0.129 C  
HETATM   10  O   UNL     1      -8.163   9.897  68.521  1.00  0.00    -0.103 OA 
HETATM   11  H   UNL     1      -7.748  10.542  67.962  1.00  0.00     0.000 HD 
BRANCH   9  12
HETATM   12  C   UNL     1     -10.327  10.589  67.758  1.00  0.00    -0.248 A  
HETATM   13  N   UNL     1     -12.133  12.707  67.383  1.00  0.00    -0.435 NA 
HETATM   14  C   UNL     1     -10.924  11.244  68.847  1.00  0.00    -0.274 A  
HETATM   15  C   UNL     1     -11.551  12.113  66.329  1.00  0.00    -0.360 A  
HETATM   16  C   UNL     1     -11.879  12.592  65.070  1.00  0.00    -0.445 A  
HETATM   17  C   UNL     1     -11.807  12.274  68.612  1.00  0.00    -0.305 A  
HETATM   18  C   UNL     1     -11.330  12.052  63.903  1.00  0.00    -0.503 A  
HETATM   19  C   UNL     1     -10.640  11.038  66.444  1.00  0.00    -0.308 A  
HETATM   20  C   UNL     1     -10.435  10.995  63.992  1.00  0.00    -0.366 A  
HETATM   21  C   UNL     1     -10.103  10.492  65.252  1.00  0.00    -0.369 A  
BRANCH  20  22
HETATM   22  O   UNL     1      -9.819  10.372  62.943  1.00  0.00    -0.287 OA 
HETATM   23  C   UNL     1      -8.671  11.013  62.398  1.00  0.00    -0.303 C  
ENDBRANCH  20  22
ENDBRANCH   9  12
ENDBRANCH   1   9
BRANCH   6  24
HETATM   24  C   UNL     1     -11.698   6.470  71.657  1.00  0.00    -0.374 C  
HETATM   25  C   UNL     1     -12.868   7.061  71.387  1.00  0.00    -0.407 C  
ENDBRANCH   6  24
TORSDOF 4
ENDMDL
MODEL       44
REMARK 921   NORMALIZED FREE ENERGY PREDICTED BY IDOCK:   -5.59 KCAL/MOL
REMARK 922        TOTAL FREE ENERGY PREDICTED BY IDOCK:   -7.69 KCAL/MOL
REMARK 923 INTER-LIGAND FREE ENERGY PREDICTED BY IDOCK:   -6.95 KCAL/MOL
REMARK 924 INTRA-LIGAND FREE ENERGY PREDICTED BY IDOCK:   -0.74 KCAL/MOL
REMARK 927      BINDING AFFINITY PREDICTED BY RF-SCORE:    0.00 PKD
ROOT
HETATM    1  C   UNL     1     -10.169  10.337  68.672  1.00  0.00    -0.180 C  
HETATM    2  N   UNL     1      -9.057  10.006  69.624  1.00  0.00    -0.216 NA 
HETATM    3  C   UNL     1     -10.585   9.076  67.873  1.00  0.00    -0.256 C  
HETATM    4  C   UNL     1      -9.393   8.866  70.501  1.00  0.00    -0.202 C  
HETATM    5  C   UNL     1      -9.625   7.914  68.188  1.00  0.00    -0.163 C  
HETATM    6  C   UNL     1      -8.153   8.342  67.957  1.00  0.00    -0.127 C  
HETATM    7  C   UNL     1      -9.794   7.623  69.692  1.00  0.00    -0.181 C  
HETATM    8  C   UNL     1      -7.873   9.608  68.811  1.00  0.00    -0.081 C  
ENDROOT
BRANCH   1   9
HETATM    9  C   UNL     1     -11.374  11.124  69.311  1.00  0.00    -0.281 C  
HETATM   10  O   UNL     1     -12.655  10.510  69.115  1.00  0.00    -0.740 OA 
HETATM   11  H   UNL     1     -13.382  10.985  69.500  1.00  0.00     0.000 HD 
BRANCH   9  12
HETATM   12  C   UNL     1     -11.454  12.558  68.790  1.00  0.00    -0.353 A  
HETATM   13  N   UNL     1     -11.432  15.171  67.759  1.00  0.00    -0.331 NA 
HETATM   14  C   UNL     1     -11.111  12.816  67.453  1.00  0.00    -0.312 A  
HETATM   15  C   UNL     1     -11.792  14.944  69.033  1.00  0.00    -0.301 A  
HETATM   16  C   UNL     1     -12.147  16.043  69.798  1.00  0.00    -0.123 A  
HETATM   17  C   UNL     1     -11.111  14.115  66.996  1.00  0.00    -0.307 A  
HETATM   18  C   UNL     1     -12.542  15.923  71.134  1.00  0.00    -0.387 A  
HETATM   19  C   UNL     1     -11.817  13.657  69.619  1.00  0.00    -0.396 A  
HETATM   20  C   UNL     1     -12.573  14.671  71.730  1.00  0.00    -0.340 A  
HETATM   21  C   UNL     1     -12.205  13.553  70.977  1.00  0.00    -0.348 A  
BRANCH  20  22
HETATM   22  O   UNL     1     -12.939  14.401  73.019  1.00  0.00    -0.500 OA 
HETATM   23  C   UNL     1     -12.579  15.363  74.005  1.00  0.00    -0.598 C  
ENDBRANCH  20  22
ENDBRANCH   9  12
ENDBRANCH   1   9
BRANCH   6  24
HETATM   24  C   UNL     1      -7.831   8.570  66.498  1.00  0.00    -0.096 C  
HETATM   25  C   UNL     1      -8.159   7.724  65.514  1.00  0.00    -0.128 C  
ENDBRANCH   6  24
TORSDOF 4
ENDMDL
MODEL       45
REMARK 921   NORMALIZED FREE ENERGY PREDICTED BY IDOCK:   -5.59 KCAL/MOL
REMARK 922        TOTAL FREE ENERGY PREDICTED BY IDOCK:   -7.68 KCAL/MOL
REMARK 923 INTER-LIGAND FREE ENERGY PREDICTED BY IDOCK:   -7.02 KCAL/MOL
REMARK 924 INTRA-LIGAND FREE ENERGY PREDICTED BY IDOCK:   -0.66 KCAL/MOL
REMARK 927      BINDING AFFINITY PREDICTED BY RF-SCORE:    0.00 PKD
ROOT
HETATM    1  C   UNL     1     -10.080   9.492  68.448  1.00  0.00    -0.175 C  
HETATM    2  N   UNL     1     -10.468   9.148  67.039  1.00  0.00    -0.258 NA 
HETATM    3  C   UNL     1      -8.593   9.133  68.697  1.00  0.00    -0.128 C  
HETATM    4  C   UNL     1      -9.564   9.759  66.045  1.00  0.00    -0.235 C  
HETATM    5  C   UNL     1      -8.021   8.389  67.476  1.00  0.00    -0.106 C  
HETATM    6  C   UNL     1      -8.905   7.169  67.114  1.00  0.00    -0.121 C  
HETATM    7  C   UNL     1      -8.096   9.384  66.302  1.00  0.00    -0.111 C  
HETATM    8  C   UNL     1     -10.358   7.669  66.892  1.00  0.00    -0.318 C  
ENDROOT
BRANCH   1   9
HETATM    9  C   UNL     1     -10.479  10.945  68.908  1.00  0.00    -0.203 C  
HETATM   10  O   UNL     1      -9.369  11.791  69.232  1.00  0.00    -0.333 OA 
HETATM   11  H   UNL     1      -9.609  12.667  69.510  1.00  0.00     0.000 HD 
BRANCH   9  12
HETATM   12  C   UNL     1     -11.420  10.918  70.111  1.00  0.00    -0.405 A  
HETATM   13  N   UNL     1     -13.231  10.724  72.249  1.00  0.00    -0.280 NA 
HETATM   14  C   UNL     1     -11.652   9.699  70.766  1.00  0.00    -0.395 A  
HETATM   15  C   UNL     1     -13.001  11.907  71.657  1.00  0.00    -0.342 A  
HETATM   16  C   UNL     1     -13.689  13.006  72.146  1.00  0.00    -0.547 A  
HETATM   17  C   UNL     1     -12.553   9.653  71.806  1.00  0.00    -0.409 A  
HETATM   18  C   UNL     1     -13.524  14.286  71.608  1.00  0.00    -0.456 A  
HETATM   19  C   UNL     1     -12.110  12.075  70.572  1.00  0.00    -0.402 A  
HETATM   20  C   UNL     1     -12.656  14.475  70.542  1.00  0.00    -0.351 A  
HETATM   21  C   UNL     1     -11.964  13.375  70.028  1.00  0.00    -0.407 A  
BRANCH  20  22
HETATM   22  O   UNL     1     -12.392  15.662  69.919  1.00  0.00    -0.354 OA 
HETATM   23  C   UNL     1     -11.562  15.613  68.763  1.00  0.00    -0.384 C  
ENDBRANCH  20  22
ENDBRANCH   9  12
ENDBRANCH   1   9
BRANCH   6  24
HETATM   24  C   UNL     1      -8.844   6.072  68.152  1.00  0.00    -0.111 C  
HETATM   25  C   UNL     1      -9.906   5.616  68.828  1.00  0.00    -0.193 C  
ENDBRANCH   6  24
TORSDOF 4
ENDMDL
MODEL       46
REMARK 921   NORMALIZED FREE ENERGY PREDICTED BY IDOCK:   -5.58 KCAL/MOL
REMARK 922        TOTAL FREE ENERGY PREDICTED BY IDOCK:   -7.68 KCAL/MOL
REMARK 923 INTER-LIGAND FREE ENERGY PREDICTED BY IDOCK:   -7.81 KCAL/MOL
REMARK 924 INTRA-LIGAND FREE ENERGY PREDICTED BY IDOCK:    0.14 KCAL/MOL
REMARK 927      BINDING AFFINITY PREDICTED BY RF-SCORE:    0.00 PKD
ROOT
HETATM    1  C   UNL     1     -11.365  15.286  67.034  1.00  0.00    -0.230 C  
HETATM    2  N   UNL     1     -10.488  15.435  68.244  1.00  0.00    -0.237 NA 
HETATM    3  C   UNL     1     -10.577  15.657  65.752  1.00  0.00    -0.374 C  
HETATM    4  C   UNL     1      -9.226  14.680  68.116  1.00  0.00    -0.192 C  
HETATM    5  C   UNL     1      -9.193  16.216  66.130  1.00  0.00    -0.382 C  
HETATM    6  C   UNL     1      -9.330  17.385  67.138  1.00  0.00    -0.246 C  
HETATM    7  C   UNL     1      -8.455  15.068  66.845  1.00  0.00    -0.269 C  
HETATM    8  C   UNL     1     -10.133  16.877  68.367  1.00  0.00    -0.304 C  
ENDROOT
BRANCH   1   9
HETATM    9  C   UNL     1     -12.138  13.917  66.943  1.00  0.00    -0.430 C  
HETATM   10  O   UNL     1     -11.995  13.075  68.094  1.00  0.00    -0.343 OA 
HETATM   11  H   UNL     1     -12.461  12.250  68.040  1.00  0.00     0.000 HD 
BRANCH   9  12
HETATM   12  C   UNL     1     -11.720  13.111  65.714  1.00  0.00    -0.415 A  
HETATM   13  N   UNL     1     -11.129  11.617  63.410  1.00  0.00    -0.383 NA 
HETATM   14  C   UNL     1     -12.269  13.443  64.465  1.00  0.00    -0.450 A  
HETATM   15  C   UNL     1     -10.570  11.302  64.589  1.00  0.00    -0.327 A  
HETATM   16  C   UNL     1      -9.701  10.222  64.610  1.00  0.00    -0.398 A  
HETATM   17  C   UNL     1     -11.953  12.677  63.366  1.00  0.00    -0.528 A  
HETATM   18  C   UNL     1      -9.058   9.808  65.781  1.00  0.00    -0.221 A  
HETATM   19  C   UNL     1     -10.829  12.004  65.789  1.00  0.00    -0.329 A  
HETATM   20  C   UNL     1      -9.299  10.481  66.970  1.00  0.00    -0.155 A  
HETATM   21  C   UNL     1     -10.182  11.563  66.970  1.00  0.00    -0.244 A  
BRANCH  20  22
HETATM   22  O   UNL     1      -8.744  10.192  68.185  1.00  0.00    -0.120 OA 
HETATM   23  C   UNL     1      -9.582  10.336  69.327  1.00  0.00    -0.224 C  
ENDBRANCH  20  22
ENDBRANCH   9  12
ENDBRANCH   1   9
BRANCH   6  24
HETATM   24  C   UNL     1      -9.961  18.615  66.528  1.00  0.00    -0.408 C  
HETATM   25  C   UNL     1     -10.696  19.501  67.210  1.00  0.00    -0.604 C  
ENDBRANCH   6  24
TORSDOF 4
ENDMDL
MODEL       47
REMARK 921   NORMALIZED FREE ENERGY PREDICTED BY IDOCK:   -5.58 KCAL/MOL
REMARK 922        TOTAL FREE ENERGY PREDICTED BY IDOCK:   -7.67 KCAL/MOL
REMARK 923 INTER-LIGAND FREE ENERGY PREDICTED BY IDOCK:   -6.93 KCAL/MOL
REMARK 924 INTRA-LIGAND FREE ENERGY PREDICTED BY IDOCK:   -0.74 KCAL/MOL
REMARK 927      BINDING AFFINITY PREDICTED BY RF-SCORE:    0.00 PKD
ROOT
HETATM    1  C   UNL     1     -10.103  13.792  67.588  1.00  0.00    -0.242 C  
HETATM    2  N   UNL     1     -11.582  13.793  67.845  1.00  0.00    -0.320 NA 
HETATM    3  C   UNL     1      -9.714  12.591  66.689  1.00  0.00    -0.244 C  
HETATM    4  C   UNL     1     -12.366  13.744  66.594  1.00  0.00    -0.357 C  
HETATM    5  C   UNL     1     -10.937  11.683  66.470  1.00  0.00    -0.349 C  
HETATM    6  C   UNL     1     -11.564  11.270  67.826  1.00  0.00    -0.307 C  
HETATM    7  C   UNL     1     -11.974  12.543  65.721  1.00  0.00    -0.482 C  
HETATM    8  C   UNL     1     -11.903  12.561  68.619  1.00  0.00    -0.297 C  
ENDROOT
BRANCH   1   9
HETATM    9  C   UNL     1      -9.514  15.173  67.111  1.00  0.00    -0.216 C  
HETATM   10  O   UNL     1      -9.058  15.187  65.752  1.00  0.00    -0.455 OA 
HETATM   11  H   UNL     1      -8.703  16.020  65.465  1.00  0.00     0.000 HD 
BRANCH   9  12
HETATM   12  C   UNL     1      -8.361  15.634  68.001  1.00  0.00    -0.146 A  
HETATM   13  N   UNL     1      -6.306  16.372  69.768  1.00  0.00    -0.211 NA 
HETATM   14  C   UNL     1      -7.612  14.672  68.696  1.00  0.00    -0.129 A  
HETATM   15  C   UNL     1      -6.990  17.308  69.090  1.00  0.00    -0.215 A  
HETATM   16  C   UNL     1      -6.637  18.631  69.302  1.00  0.00    -0.278 A  
HETATM   17  C   UNL     1      -6.618  15.084  69.555  1.00  0.00    -0.155 A  
HETATM   18  C   UNL     1      -7.278  19.686  68.646  1.00  0.00    -0.371 A  
HETATM   19  C   UNL     1      -8.041  17.008  68.192  1.00  0.00    -0.212 A  
HETATM   20  C   UNL     1      -8.313  19.416  67.762  1.00  0.00    -0.305 A  
HETATM   21  C   UNL     1      -8.691  18.089  67.547  1.00  0.00    -0.248 A  
BRANCH  20  22
HETATM   22  O   UNL     1      -9.026  20.340  67.051  1.00  0.00    -0.341 OA 
HETATM   23  C   UNL     1     -10.146  19.861  66.315  1.00  0.00    -0.502 C  
ENDBRANCH  20  22
ENDBRANCH   9  12
ENDBRANCH   1   9
BRANCH   6  24
HETATM   24  C   UNL     1     -10.677  10.341  68.623  1.00  0.00    -0.255 C  
HETATM   25  C   UNL     1     -10.539  10.390  69.953  1.00  0.00    -0.299 C  
ENDBRANCH   6  24
TORSDOF 4
ENDMDL
MODEL       48
REMARK 921   NORMALIZED FREE ENERGY PREDICTED BY IDOCK:   -5.58 KCAL/MOL
REMARK 922        TOTAL FREE ENERGY PREDICTED BY IDOCK:   -7.67 KCAL/MOL
REMARK 923 INTER-LIGAND FREE ENERGY PREDICTED BY IDOCK:   -7.22 KCAL/MOL
REMARK 924 INTRA-LIGAND FREE ENERGY PREDICTED BY IDOCK:   -0.45 KCAL/MOL
REMARK 927      BINDING AFFINITY PREDICTED BY RF-SCORE:    0.00 PKD
ROOT
HETATM    1  C   UNL     1     -11.062  13.119  67.172  1.00  0.00    -0.279 C  
HETATM    2  N   UNL     1     -12.046  14.197  66.820  1.00  0.00    -0.446 NA 
HETATM    3  C   UNL     1      -9.894  13.106  66.152  1.00  0.00    -0.284 C  
HETATM    4  C   UNL     1     -11.402  15.518  66.679  1.00  0.00    -0.034 C  
HETATM    5  C   UNL     1     -10.186  14.093  65.007  1.00  0.00    -0.399 C  
HETATM    6  C   UNL     1     -11.571  13.804  64.374  1.00  0.00    -0.418 C  
HETATM    7  C   UNL     1     -10.254  15.488  65.659  1.00  0.00    -0.403 C  
HETATM    8  C   UNL     1     -12.641  13.849  65.498  1.00  0.00    -0.526 C  
ENDROOT
BRANCH   1   9
HETATM    9  C   UNL     1     -10.604  13.108  68.678  1.00  0.00    -0.239 C  
HETATM   10  O   UNL     1      -9.184  13.069  68.867  1.00  0.00    -0.386 OA 
HETATM   11  H   UNL     1      -8.907  13.062  69.776  1.00  0.00     0.000 HD 
BRANCH   9  12
HETATM   12  C   UNL     1     -11.214  11.937  69.447  1.00  0.00    -0.278 A  
HETATM   13  N   UNL     1     -12.326   9.886  71.012  1.00  0.00    -0.336 NA 
HETATM   14  C   UNL     1     -12.272  12.185  70.336  1.00  0.00    -0.378 A  
HETATM   15  C   UNL     1     -11.335   9.621  70.145  1.00  0.00    -0.227 A  
HETATM   16  C   UNL     1     -10.897   8.309  70.063  1.00  0.00    -0.232 A  
HETATM   17  C   UNL     1     -12.780  11.147  71.085  1.00  0.00    -0.408 A  
HETATM   18  C   UNL     1      -9.875   7.919  69.193  1.00  0.00    -0.174 A  
HETATM   19  C   UNL     1     -10.724  10.605  69.334  1.00  0.00    -0.281 A  
HETATM   20  C   UNL     1      -9.260   8.867  68.388  1.00  0.00    -0.140 A  
HETATM   21  C   UNL     1      -9.680  10.198  68.467  1.00  0.00    -0.161 A  
BRANCH  20  22
HETATM   22  O   UNL     1      -8.255   8.634  67.492  1.00  0.00    -0.109 OA 
HETATM   23  C   UNL     1      -6.929   8.924  67.921  1.00  0.00    -0.078 C  
ENDBRANCH  20  22
ENDBRANCH   9  12
ENDBRANCH   1   9
BRANCH   6  24
HETATM   24  C   UNL     1     -11.609  12.495  63.619  1.00  0.00    -0.580 C  
HETATM   25  C   UNL     1     -12.701  11.734  63.487  1.00  0.00    -0.428 C  
ENDBRANCH   6  24
TORSDOF 4
ENDMDL
MODEL       49
REMARK 921   NORMALIZED FREE ENERGY PREDICTED BY IDOCK:   -5.58 KCAL/MOL
REMARK 922        TOTAL FREE ENERGY PREDICTED BY IDOCK:   -7.67 KCAL/MOL
REMARK 923 INTER-LIGAND FREE ENERGY PREDICTED BY IDOCK:   -7.48 KCAL/MOL
REMARK 924 INTRA-LIGAND FREE ENERGY PREDICTED BY IDOCK:   -0.19 KCAL/MOL
REMARK 927      BINDING AFFINITY PREDICTED BY RF-SCORE:    0.00 PKD
ROOT
HETATM    1  C   UNL     1     -10.418  12.717  68.216  1.00  0.00    -0.241 C  
HETATM    2  N   UNL     1      -9.523  13.572  67.366  1.00  0.00    -0.218 NA 
HETATM    3  C   UNL     1     -11.873  13.251  68.168  1.00  0.00    -0.388 C  
HETATM    4  C   UNL     1     -10.030  13.712  65.986  1.00  0.00    -0.302 C  
HETATM    5  C   UNL     1     -11.918  14.581  67.394  1.00  0.00    -0.367 C  
HETATM    6  C   UNL     1     -10.902  15.593  67.982  1.00  0.00    -0.308 C  
HETATM    7  C   UNL     1     -11.468  14.251  65.958  1.00  0.00    -0.347 C  
HETATM    8  C   UNL     1      -9.496  14.934  67.970  1.00  0.00    -0.198 C  
ENDROOT
BRANCH   1   9
HETATM    9  C   UNL     1     -10.290  11.168  67.962  1.00  0.00    -0.185 C  
HETATM   10  O   UNL     1     -11.537  10.498  67.736  1.00  0.00    -0.639 OA 
HETATM   11  H   UNL     1     -11.460   9.564  67.583  1.00  0.00     0.000 HD 
BRANCH   9  12
HETATM   12  C   UNL     1      -9.577  10.463  69.114  1.00  0.00    -0.226 A  
HETATM   13  N   UNL     1      -8.166   9.076  71.108  1.00  0.00    -0.247 NA 
HETATM   14  C   UNL     1      -8.176  10.380  69.097  1.00  0.00    -0.157 A  
HETATM   15  C   UNL     1      -9.505   9.168  71.159  1.00  0.00    -0.261 A  
HETATM   16  C   UNL     1     -10.142   8.557  72.227  1.00  0.00    -0.386 A  
HETATM   17  C   UNL     1      -7.530   9.684  70.094  1.00  0.00    -0.153 A  
HETATM   18  C   UNL     1     -11.531   8.594  72.384  1.00  0.00    -0.369 A  
HETATM   19  C   UNL     1     -10.278   9.843  70.187  1.00  0.00    -0.326 A  
HETATM   20  C   UNL     1     -12.311   9.249  71.441  1.00  0.00    -0.343 A  
HETATM   21  C   UNL     1     -11.685   9.859  70.351  1.00  0.00    -0.333 A  
BRANCH  20  22
HETATM   22  O   UNL     1     -13.671   9.369  71.464  1.00  0.00    -0.367 OA 
HETATM   23  C   UNL     1     -14.408   8.251  71.949  1.00  0.00    -0.476 C  
ENDBRANCH  20  22
ENDBRANCH   9  12
ENDBRANCH   1   9
BRANCH   6  24
HETATM   24  C   UNL     1     -11.283  16.071  69.364  1.00  0.00    -0.349 C  
HETATM   25  C   UNL     1     -10.664  15.690  70.489  1.00  0.00    -0.295 C  
ENDBRANCH   6  24
TORSDOF 4
ENDMDL
MODEL       50
REMARK 921   NORMALIZED FREE ENERGY PREDICTED BY IDOCK:   -5.51 KCAL/MOL
REMARK 922        TOTAL FREE ENERGY PREDICTED BY IDOCK:   -7.59 KCAL/MOL
REMARK 923 INTER-LIGAND FREE ENERGY PREDICTED BY IDOCK:   -6.78 KCAL/MOL
REMARK 924 INTRA-LIGAND FREE ENERGY PREDICTED BY IDOCK:   -0.81 KCAL/MOL
REMARK 927      BINDING AFFINITY PREDICTED BY RF-SCORE:    0.00 PKD
ROOT
HETATM    1  C   UNL     1     -10.244  12.076  67.541  1.00  0.00    -0.198 C  
HETATM    2  N   UNL     1      -9.272  12.272  66.414  1.00  0.00    -0.224 NA 
HETATM    3  C   UNL     1     -11.387  11.124  67.104  1.00  0.00    -0.257 C  
HETATM    4  C   UNL     1      -8.768  10.990  65.881  1.00  0.00    -0.178 C  
HETATM    5  C   UNL     1     -11.257  10.803  65.603  1.00  0.00     0.297 C  
HETATM    6  C   UNL     1     -11.177  12.106  64.768  1.00  0.00    -0.373 C  
HETATM    7  C   UNL     1      -9.914  10.064  65.445  1.00  0.00    -0.364 C  
HETATM    8  C   UNL     1      -9.997  12.960  65.308  1.00  0.00    -0.176 C  
ENDROOT
BRANCH   1   9
HETATM    9  C   UNL     1      -9.589  11.705  68.924  1.00  0.00     0.009 C  
HETATM   10  O   UNL     1      -8.156  11.700  68.919  1.00  0.00    -0.299 OA 
HETATM   11  H   UNL     1      -7.760  11.476  69.753  1.00  0.00     0.000 HD 
BRANCH   9  12
HETATM   12  C   UNL     1     -10.065  10.345  69.429  1.00  0.00    -0.251 A  
HETATM   13  N   UNL     1     -10.934   7.783  70.185  1.00  0.00    -0.256 NA 
HETATM   14  C   UNL     1      -9.396   9.188  69.000  1.00  0.00    -0.151 A  
HETATM   15  C   UNL     1     -11.570   8.877  70.632  1.00  0.00    -0.215 A  
HETATM   16  C   UNL     1     -12.656   8.682  71.470  1.00  0.00    -0.360 A  
HETATM   17  C   UNL     1      -9.863   7.954  69.393  1.00  0.00    -0.180 A  
HETATM   18  C   UNL     1     -13.389   9.749  71.998  1.00  0.00    -0.547 A  
HETATM   19  C   UNL     1     -11.193  10.195  70.285  1.00  0.00    -0.387 A  
HETATM   20  C   UNL     1     -13.039  11.051  71.670  1.00  0.00    -0.438 A  
HETATM   21  C   UNL     1     -11.954  11.266  70.815  1.00  0.00    -0.383 A  
BRANCH  20  22
HETATM   22  O   UNL     1     -13.658  12.187  72.110  1.00  0.00    -0.431 OA 
HETATM   23  C   UNL     1     -13.138  13.427  71.641  1.00  0.00    -0.375 C  
ENDBRANCH  20  22
ENDBRANCH   9  12
ENDBRANCH   1   9
BRANCH   6  24
HETATM   24  C   UNL     1     -12.473  12.882  64.767  1.00  0.00    -0.517 C  
HETATM   25  C   UNL     1     -12.638  14.072  65.356  1.00  0.00    -0.529 C  
ENDBRANCH   6  24
TORSDOF 4
ENDMDL
MODEL       51
REMARK 921   NORMALIZED FREE ENERGY PREDICTED BY IDOCK:   -5.50 KCAL/MOL
REMARK 922        TOTAL FREE ENERGY PREDICTED BY IDOCK:   -7.58 KCAL/MOL
REMARK 923 INTER-LIGAND FREE ENERGY PREDICTED BY IDOCK:   -7.15 KCAL/MOL
REMARK 924 INTRA-LIGAND FREE ENERGY PREDICTED BY IDOCK:   -0.43 KCAL/MOL
REMARK 927      BINDING AFFINITY PREDICTED BY RF-SCORE:    0.00 PKD
ROOT
HETATM    1  C   UNL     1      -9.915  10.306  68.258  1.00  0.00    -0.147 C  
HETATM    2  N   UNL     1      -9.001  11.480  68.057  1.00  0.00    -0.163 NA 
HETATM    3  C   UNL     1     -10.426   9.783  66.892  1.00  0.00    -0.281 C  
HETATM    4  C   UNL     1      -7.901  11.177  67.119  1.00  0.00    -0.139 C  
HETATM    5  C   UNL     1      -9.966  10.726  65.765  1.00  0.00    -0.306 C  
HETATM    6  C   UNL     1     -10.382  12.188  66.069  1.00  0.00    -0.268 C  
HETATM    7  C   UNL     1      -8.427  10.670  65.768  1.00  0.00    -0.179 C  
HETATM    8  C   UNL     1      -9.808  12.580  67.457  1.00  0.00    -0.198 C  
ENDROOT
BRANCH   1   9
HETATM    9  C   UNL     1      -9.351   9.184  69.209  1.00  0.00    -0.157 C  
HETATM   10  O   UNL     1      -8.560   8.188  68.548  1.00  0.00    -0.129 OA 
HETATM   11  H   UNL     1      -8.220   7.511  69.121  1.00  0.00     0.000 HD 
BRANCH   9  12
HETATM   12  C   UNL     1     -10.469   8.472  69.969  1.00  0.00    -0.226 A  
HETATM   13  N   UNL     1     -12.549   7.056  71.219  1.00  0.00    -0.384 NA 
HETATM   14  C   UNL     1     -10.501   7.068  69.972  1.00  0.00    -0.233 A  
HETATM   15  C   UNL     1     -12.520   8.399  71.253  1.00  0.00    -0.244 A  
HETATM   16  C   UNL     1     -13.550   9.038  71.926  1.00  0.00    -0.486 A  
HETATM   17  C   UNL     1     -11.545   6.420  70.594  1.00  0.00    -0.347 A  
HETATM   18  C   UNL     1     -13.619  10.430  72.029  1.00  0.00    -0.257 A  
HETATM   19  C   UNL     1     -11.510   9.174  70.639  1.00  0.00    -0.310 A  
HETATM   20  C   UNL     1     -12.639  11.212  71.432  1.00  0.00    -0.374 A  
HETATM   21  C   UNL     1     -11.601  10.584  70.739  1.00  0.00    -0.432 A  
BRANCH  20  22
HETATM   22  O   UNL     1     -12.575  12.576  71.453  1.00  0.00    -0.308 OA 
HETATM   23  C   UNL     1     -13.498  13.252  72.300  1.00  0.00    -0.582 C  
ENDBRANCH  20  22
ENDBRANCH   9  12
ENDBRANCH   1   9
BRANCH   6  24
HETATM   24  C   UNL     1     -11.877  12.398  66.004  1.00  0.00    -0.459 C  
HETATM   25  C   UNL     1     -12.463  13.485  65.489  1.00  0.00    -0.538 C  
ENDBRANCH   6  24
TORSDOF 4
ENDMDL
MODEL       52
REMARK 921   NORMALIZED FREE ENERGY PREDICTED BY IDOCK:   -5.48 KCAL/MOL
REMARK 922        TOTAL FREE ENERGY PREDICTED BY IDOCK:   -7.55 KCAL/MOL
REMARK 923 INTER-LIGAND FREE ENERGY PREDICTED BY IDOCK:   -7.04 KCAL/MOL
REMARK 924 INTRA-LIGAND FREE ENERGY PREDICTED BY IDOCK:   -0.51 KCAL/MOL
REMARK 927      BINDING AFFINITY PREDICTED BY RF-SCORE:    0.00 PKD
ROOT
HETATM    1  C   UNL     1      -9.770  17.788  68.196  1.00  0.00    -0.313 C  
HETATM    2  N   UNL     1      -9.455  17.789  66.728  1.00  0.00    -0.276 NA 
HETATM    3  C   UNL     1      -9.975  19.239  68.701  1.00  0.00    -0.506 C  
HETATM    4  C   UNL     1     -10.463  18.526  65.940  1.00  0.00    -0.347 C  
HETATM    5  C   UNL     1      -9.635  20.238  67.580  1.00  0.00    -0.562 C  
HETATM    6  C   UNL     1      -8.217  19.969  67.016  1.00  0.00    -0.364 C  
HETATM    7  C   UNL     1     -10.646  19.964  66.449  1.00  0.00    -0.532 C  
HETATM    8  C   UNL     1      -8.151  18.489  66.549  1.00  0.00    -0.280 C  
ENDROOT
BRANCH   1   9
HETATM    9  C   UNL     1     -10.907  16.787  68.627  1.00  0.00    -0.336 C  
HETATM   10  O   UNL     1     -11.080  16.660  70.044  1.00  0.00    -0.435 OA 
HETATM   11  H   UNL     1     -11.765  16.056  70.305  1.00  0.00     0.000 HD 
BRANCH   9  12
HETATM   12  C   UNL     1     -10.680  15.391  68.052  1.00  0.00    -0.279 A  
HETATM   13  N   UNL     1     -10.430  12.777  67.052  1.00  0.00    -0.236 NA 
HETATM   14  C   UNL     1     -11.686  14.807  67.265  1.00  0.00    -0.366 A  
HETATM   15  C   UNL     1      -9.442  13.327  67.777  1.00  0.00    -0.208 A  
HETATM   16  C   UNL     1      -8.314  12.554  68.001  1.00  0.00    -0.171 A  
HETATM   17  C   UNL     1     -11.519  13.521  66.803  1.00  0.00    -0.346 A  
HETATM   18  C   UNL     1      -7.223  13.027  68.738  1.00  0.00    -0.082 A  
HETATM   19  C   UNL     1      -9.505  14.632  68.317  1.00  0.00    -0.211 A  
HETATM   20  C   UNL     1      -7.263  14.304  69.279  1.00  0.00    -0.083 A  
HETATM   21  C   UNL     1      -8.398  15.092  69.074  1.00  0.00    -0.194 A  
BRANCH  20  22
HETATM   22  O   UNL     1      -6.276  14.897  70.015  1.00  0.00    -0.136 OA 
HETATM   23  C   UNL     1      -5.825  14.199  71.170  1.00  0.00    -0.214 C  
ENDBRANCH  20  22
ENDBRANCH   9  12
ENDBRANCH   1   9
BRANCH   6  24
HETATM   24  C   UNL     1      -7.122  20.291  68.006  1.00  0.00    -0.316 C  
HETATM   25  C   UNL     1      -6.088  19.483  68.274  1.00  0.00    -0.250 C  
ENDBRANCH   6  24
TORSDOF 4
ENDMDL
MODEL       53
REMARK 921   NORMALIZED FREE ENERGY PREDICTED BY IDOCK:   -5.44 KCAL/MOL
REMARK 922        TOTAL FREE ENERGY PREDICTED BY IDOCK:   -7.50 KCAL/MOL
REMARK 923 INTER-LIGAND FREE ENERGY PREDICTED BY IDOCK:   -6.98 KCAL/MOL
REMARK 924 INTRA-LIGAND FREE ENERGY PREDICTED BY IDOCK:   -0.53 KCAL/MOL
REMARK 927      BINDING AFFINITY PREDICTED BY RF-SCORE:    0.00 PKD
ROOT
HETATM    1  C   UNL     1      -9.731  11.442  68.241  1.00  0.00    -0.202 C  
HETATM    2  N   UNL     1      -8.859  10.346  68.782  1.00  0.00    -0.148 NA 
HETATM    3  C   UNL     1      -9.200  11.921  66.866  1.00  0.00    -0.193 C  
HETATM    4  C   UNL     1      -8.694   9.238  67.821  1.00  0.00    -0.120 C  
HETATM    5  C   UNL     1      -7.855  11.238  66.557  1.00  0.00    -0.133 C  
HETATM    6  C   UNL     1      -6.853  11.447  67.720  1.00  0.00    -0.075 C  
HETATM    7  C   UNL     1      -8.158   9.730  66.468  1.00  0.00    -0.116 C  
HETATM    8  C   UNL     1      -7.509  10.927  69.028  1.00  0.00    -0.124 C  
ENDROOT
BRANCH   1   9
HETATM    9  C   UNL     1     -11.275  11.130  68.264  1.00  0.00    -0.279 C  
HETATM   10  O   UNL     1     -12.026  11.773  67.226  1.00  0.00    -0.618 OA 
HETATM   11  H   UNL     1     -12.957  11.585  67.239  1.00  0.00     0.000 HD 
BRANCH   9  12
HETATM   12  C   UNL     1     -11.908  11.502  69.604  1.00  0.00    -0.421 A  
HETATM   13  N   UNL     1     -13.204  12.065  72.031  1.00  0.00    -0.465 NA 
HETATM   14  C   UNL     1     -12.330  10.476  70.464  1.00  0.00    -0.432 A  
HETATM   15  C   UNL     1     -12.781  13.062  71.237  1.00  0.00    -0.293 A  
HETATM   16  C   UNL     1     -13.011  14.359  71.669  1.00  0.00    -0.412 A  
HETATM   17  C   UNL     1     -12.966  10.803  71.641  1.00  0.00    -0.476 A  
HETATM   18  C   UNL     1     -12.610  15.472  70.926  1.00  0.00    -0.512 A  
HETATM   19  C   UNL     1     -12.130  12.851  70.000  1.00  0.00    -0.357 A  
HETATM   20  C   UNL     1     -11.971  15.290  69.708  1.00  0.00    -0.347 A  
HETATM   21  C   UNL     1     -11.742  13.990  69.251  1.00  0.00    -0.372 A  
BRANCH  20  22
HETATM   22  O   UNL     1     -11.521  16.278  68.878  1.00  0.00    -0.340 OA 
HETATM   23  C   UNL     1     -10.835  15.868  67.700  1.00  0.00    -0.312 C  
ENDBRANCH  20  22
ENDBRANCH   9  12
ENDBRANCH   1   9
BRANCH   6  24
HETATM   24  C   UNL     1      -6.402  12.883  67.855  1.00  0.00    -0.125 C  
HETATM   25  C   UNL     1      -6.610  13.639  68.940  1.00  0.00    -0.105 C  
ENDBRANCH   6  24
TORSDOF 4
ENDMDL
MODEL       54
REMARK 921   NORMALIZED FREE ENERGY PREDICTED BY IDOCK:   -5.44 KCAL/MOL
REMARK 922        TOTAL FREE ENERGY PREDICTED BY IDOCK:   -7.50 KCAL/MOL
REMARK 923 INTER-LIGAND FREE ENERGY PREDICTED BY IDOCK:   -7.01 KCAL/MOL
REMARK 924 INTRA-LIGAND FREE ENERGY PREDICTED BY IDOCK:   -0.49 KCAL/MOL
REMARK 927      BINDING AFFINITY PREDICTED BY RF-SCORE:    0.00 PKD
ROOT
HETATM    1  C   UNL     1     -10.468  11.118  68.347  1.00  0.00    -0.188 C  
HETATM    2  N   UNL     1     -10.740   9.705  67.917  1.00  0.00    -0.258 NA 
HETATM    3  C   UNL     1      -8.941  11.381  68.389  1.00  0.00    -0.172 C  
HETATM    4  C   UNL     1     -10.072   9.371  66.643  1.00  0.00    -0.262 C  
HETATM    5  C   UNL     1      -8.175  10.071  68.132  1.00  0.00    -0.109 C  
HETATM    6  C   UNL     1      -8.643   8.961  69.108  1.00  0.00    -0.134 C  
HETATM    7  C   UNL     1      -8.559   9.630  66.706  1.00  0.00    -0.140 C  
HETATM    8  C   UNL     1     -10.181   8.802  68.963  1.00  0.00    -0.207 C  
ENDROOT
BRANCH   1   9
HETATM    9  C   UNL     1     -11.292  12.215  67.574  1.00  0.00    -0.326 C  
HETATM   10  O   UNL     1     -10.632  12.749  66.420  1.00  0.00    -0.252 OA 
HETATM   11  H   UNL     1     -11.129  13.411  65.953  1.00  0.00     0.000 HD 
BRANCH   9  12
HETATM   12  C   UNL     1     -11.672  13.382  68.483  1.00  0.00    -0.392 A  
HETATM   13  N   UNL     1     -12.207  15.601  70.121  1.00  0.00    -0.383 NA 
HETATM   14  C   UNL     1     -11.440  14.694  68.040  1.00  0.00    -0.346 A  
HETATM   15  C   UNL     1     -12.465  14.356  70.554  1.00  0.00    -0.350 A  
HETATM   16  C   UNL     1     -12.999  14.225  71.826  1.00  0.00    -0.430 A  
HETATM   17  C   UNL     1     -11.713  15.748  68.881  1.00  0.00    -0.394 A  
HETATM   18  C   UNL     1     -13.311  12.978  72.377  1.00  0.00    -0.563 A  
HETATM   19  C   UNL     1     -12.212  13.195  69.787  1.00  0.00    -0.266 A  
HETATM   20  C   UNL     1     -13.070  11.825  71.643  1.00  0.00    -0.338 A  
HETATM   21  C   UNL     1     -12.520  11.938  70.364  1.00  0.00    -0.252 A  
BRANCH  20  22
HETATM   22  O   UNL     1     -13.325  10.545  72.048  1.00  0.00    -0.434 OA 
HETATM   23  C   UNL     1     -12.348   9.561  71.727  1.00  0.00    -0.394 C  
ENDBRANCH  20  22
ENDBRANCH   9  12
ENDBRANCH   1   9
BRANCH   6  24
HETATM   24  C   UNL     1      -8.243   9.232  70.539  1.00  0.00    -0.219 C  
HETATM   25  C   UNL     1      -8.429   8.372  71.548  1.00  0.00    -0.202 C  
ENDBRANCH   6  24
TORSDOF 4
ENDMDL
MODEL       55
REMARK 921   NORMALIZED FREE ENERGY PREDICTED BY IDOCK:   -5.43 KCAL/MOL
REMARK 922        TOTAL FREE ENERGY PREDICTED BY IDOCK:   -7.49 KCAL/MOL
REMARK 923 INTER-LIGAND FREE ENERGY PREDICTED BY IDOCK:   -6.54 KCAL/MOL
REMARK 924 INTRA-LIGAND FREE ENERGY PREDICTED BY IDOCK:   -0.95 KCAL/MOL
REMARK 927      BINDING AFFINITY PREDICTED BY RF-SCORE:    0.00 PKD
ROOT
HETATM    1  C   UNL     1     -10.849   7.495  70.026  1.00  0.00    -0.249 C  
HETATM    2  N   UNL     1     -10.315   8.751  70.650  1.00  0.00    -0.199 NA 
HETATM    3  C   UNL     1     -12.045   6.953  70.849  1.00  0.00    -0.424 C  
HETATM    4  C   UNL     1     -11.368   9.765  70.854  1.00  0.00    -0.365 C  
HETATM    5  C   UNL     1     -12.212   7.779  72.138  1.00  0.00    -0.325 C  
HETATM    6  C   UNL     1     -10.882   7.833  72.931  1.00  0.00    -0.453 C  
HETATM    7  C   UNL     1     -12.540   9.213  71.680  1.00  0.00    -0.433 C  
HETATM    8  C   UNL     1      -9.777   8.392  71.993  1.00  0.00    -0.283 C  
ENDROOT
BRANCH   1   9
HETATM    9  C   UNL     1     -11.121   7.590  68.477  1.00  0.00     0.239 C  
HETATM   10  O   UNL     1     -11.503   6.353  67.864  1.00  0.00    -0.622 OA 
HETATM   11  H   UNL     1     -11.668   6.410  66.931  1.00  0.00     0.000 HD 
BRANCH   9  12
HETATM   12  C   UNL     1      -9.911   8.138  67.723  1.00  0.00    -0.230 A  
HETATM   13  N   UNL     1      -7.583   9.096  66.478  1.00  0.00    -0.092 NA 
HETATM   14  C   UNL     1      -8.743   7.361  67.656  1.00  0.00    -0.125 A  
HETATM   15  C   UNL     1      -8.698   9.843  66.504  1.00  0.00    -0.128 A  
HETATM   16  C   UNL     1      -8.643  11.087  65.896  1.00  0.00    -0.165 A  
HETATM   17  C   UNL     1      -7.626   7.877  67.039  1.00  0.00    -0.100 A  
HETATM   18  C   UNL     1      -9.746  11.946  65.859  1.00  0.00    -0.258 A  
HETATM   19  C   UNL     1      -9.901   9.427  67.120  1.00  0.00    -0.242 A  
HETATM   20  C   UNL     1     -10.937  11.560  66.458  1.00  0.00    -0.293 A  
HETATM   21  C   UNL     1     -11.006  10.314  67.087  1.00  0.00    -0.233 A  
BRANCH  20  22
HETATM   22  O   UNL     1     -12.091  12.289  66.499  1.00  0.00    -0.616 OA 
HETATM   23  C   UNL     1     -12.361  13.131  65.383  1.00  0.00    -0.481 C  
ENDBRANCH  20  22
ENDBRANCH   9  12
ENDBRANCH   1   9
BRANCH   6  24
HETATM   24  C   UNL     1     -10.493   6.496  73.517  1.00  0.00    -0.317 C  
HETATM   25  C   UNL     1      -9.442   5.773  73.110  1.00  0.00    -0.147 C  
ENDBRANCH   6  24
TORSDOF 4
ENDMDL
MODEL       56
REMARK 921   NORMALIZED FREE ENERGY PREDICTED BY IDOCK:   -5.40 KCAL/MOL
REMARK 922        TOTAL FREE ENERGY PREDICTED BY IDOCK:   -7.44 KCAL/MOL
REMARK 923 INTER-LIGAND FREE ENERGY PREDICTED BY IDOCK:   -7.62 KCAL/MOL
REMARK 924 INTRA-LIGAND FREE ENERGY PREDICTED BY IDOCK:    0.18 KCAL/MOL
REMARK 927      BINDING AFFINITY PREDICTED BY RF-SCORE:    0.00 PKD
ROOT
HETATM    1  C   UNL     1     -10.835  15.054  65.772  1.00  0.00    -0.350 C  
HETATM    2  N   UNL     1     -11.812  14.425  66.721  1.00  0.00    -0.410 NA 
HETATM    3  C   UNL     1     -10.469  14.060  64.640  1.00  0.00    -0.398 C  
HETATM    4  C   UNL     1     -13.002  13.894  66.028  1.00  0.00    -0.090 C  
HETATM    5  C   UNL     1     -11.097  12.684  64.929  1.00  0.00    -0.331 C  
HETATM    6  C   UNL     1     -10.706  12.189  66.345  1.00  0.00    -0.292 C  
HETATM    7  C   UNL     1     -12.622  12.904  64.917  1.00  0.00    -0.525 C  
HETATM    8  C   UNL     1     -11.126  13.273  67.373  1.00  0.00    -0.278 C  
ENDROOT
BRANCH   1   9
HETATM    9  C   UNL     1     -11.236  16.490  65.264  1.00  0.00     0.049 C  
HETATM   10  O   UNL     1     -11.223  16.642  63.839  1.00  0.00    -1.440 OA 
HETATM   11  H   UNL     1     -11.465  17.508  63.533  1.00  0.00     0.000 HD 
BRANCH   9  12
HETATM   12  C   UNL     1     -10.341  17.573  65.863  1.00  0.00    -0.265 A  
HETATM   13  N   UNL     1      -8.719  19.662  66.811  1.00  0.00    -0.317 NA 
HETATM   14  C   UNL     1     -10.767  18.910  65.819  1.00  0.00    -0.310 A  
HETATM   15  C   UNL     1      -8.304  18.387  66.890  1.00  0.00    -0.253 A  
HETATM   16  C   UNL     1      -7.059  18.160  67.454  1.00  0.00    -0.208 A  
HETATM   17  C   UNL     1      -9.935  19.899  66.291  1.00  0.00    -0.486 A  
HETATM   18  C   UNL     1      -6.529  16.873  67.591  1.00  0.00    -0.165 A  
HETATM   19  C   UNL     1      -9.064  17.289  66.425  1.00  0.00    -0.281 A  
HETATM   20  C   UNL     1      -7.256  15.780  67.141  1.00  0.00    -0.206 A  
HETATM   21  C   UNL     1      -8.507  15.993  66.558  1.00  0.00    -0.348 A  
BRANCH  20  22
HETATM   22  O   UNL     1      -6.869  14.472  67.211  1.00  0.00    -0.252 OA 
HETATM   23  C   UNL     1      -5.913  14.136  68.211  1.00  0.00    -0.119 C  
ENDBRANCH  20  22
ENDBRANCH   9  12
ENDBRANCH   1   9
BRANCH   6  24
HETATM   24  C   UNL     1      -9.238  11.847  66.462  1.00  0.00    -0.216 C  
HETATM   25  C   UNL     1      -8.730  11.019  67.383  1.00  0.00    -0.132 C  
ENDBRANCH   6  24
TORSDOF 4
ENDMDL
MODEL       57
REMARK 921   NORMALIZED FREE ENERGY PREDICTED BY IDOCK:   -5.39 KCAL/MOL
REMARK 922        TOTAL FREE ENERGY PREDICTED BY IDOCK:   -7.44 KCAL/MOL
REMARK 923 INTER-LIGAND FREE ENERGY PREDICTED BY IDOCK:   -7.33 KCAL/MOL
REMARK 924 INTRA-LIGAND FREE ENERGY PREDICTED BY IDOCK:   -0.10 KCAL/MOL
REMARK 927      BINDING AFFINITY PREDICTED BY RF-SCORE:    0.00 PKD
ROOT
HETATM    1  C   UNL     1     -10.690  15.427  68.796  1.00  0.00    -0.241 C  
HETATM    2  N   UNL     1     -10.822  16.227  67.533  1.00  0.00    -0.303 NA 
HETATM    3  C   UNL     1      -9.396  15.826  69.551  1.00  0.00    -0.238 C  
HETATM    4  C   UNL     1     -10.735  17.680  67.780  1.00  0.00    -0.332 C  
HETATM    5  C   UNL     1      -8.568  16.801  68.694  1.00  0.00    -0.263 C  
HETATM    6  C   UNL     1      -8.311  16.210  67.285  1.00  0.00    -0.204 C  
HETATM    7  C   UNL     1      -9.443  18.058  68.520  1.00  0.00    -0.326 C  
HETATM    8  C   UNL     1      -9.682  15.858  66.646  1.00  0.00    -0.253 C  
ENDROOT
BRANCH   1   9
HETATM    9  C   UNL     1     -11.981  15.398  69.698  1.00  0.00    -0.343 C  
HETATM   10  O   UNL     1     -11.953  16.308  70.805  1.00  0.00    -0.511 OA 
HETATM   11  H   UNL     1     -12.732  16.290  71.349  1.00  0.00     0.000 HD 
BRANCH   9  12
HETATM   12  C   UNL     1     -12.258  13.998  70.244  1.00  0.00    -0.430 A  
HETATM   13  N   UNL     1     -12.696  11.480  71.409  1.00  0.00    -0.393 NA 
HETATM   14  C   UNL     1     -12.881  13.867  71.495  1.00  0.00    -0.441 A  
HETATM   15  C   UNL     1     -12.125  11.581  70.198  1.00  0.00    -0.351 A  
HETATM   16  C   UNL     1     -11.770  10.400  69.563  1.00  0.00    -0.259 A  
HETATM   17  C   UNL     1     -13.069  12.611  72.027  1.00  0.00    -0.366 A  
HETATM   18  C   UNL     1     -11.174  10.387  68.298  1.00  0.00    -0.330 A  
HETATM   19  C   UNL     1     -11.867  12.814  69.557  1.00  0.00    -0.379 A  
HETATM   20  C   UNL     1     -10.910  11.585  67.651  1.00  0.00    -0.227 A  
HETATM   21  C   UNL     1     -11.249  12.785  68.282  1.00  0.00    -0.308 A  
BRANCH  20  22
HETATM   22  O   UNL     1     -10.338  11.726  66.419  1.00  0.00    -0.212 OA 
HETATM   23  C   UNL     1     -10.773  12.827  65.628  1.00  0.00    -0.273 C  
ENDBRANCH  20  22
ENDBRANCH   9  12
ENDBRANCH   1   9
BRANCH   6  24
HETATM   24  C   UNL     1      -7.383  15.017  67.310  1.00  0.00    -0.195 C  
HETATM   25  C   UNL     1      -6.106  15.066  67.706  1.00  0.00    -0.154 C  
ENDBRANCH   6  24
TORSDOF 4
ENDMDL
MODEL       58
REMARK 921   NORMALIZED FREE ENERGY PREDICTED BY IDOCK:   -5.38 KCAL/MOL
REMARK 922        TOTAL FREE ENERGY PREDICTED BY IDOCK:   -7.42 KCAL/MOL
REMARK 923 INTER-LIGAND FREE ENERGY PREDICTED BY IDOCK:   -7.00 KCAL/MOL
REMARK 924 INTRA-LIGAND FREE ENERGY PREDICTED BY IDOCK:   -0.43 KCAL/MOL
REMARK 927      BINDING AFFINITY PREDICTED BY RF-SCORE:    0.00 PKD
ROOT
HETATM    1  C   UNL     1      -7.431  17.920  67.424  1.00  0.00    -0.201 C  
HETATM    2  N   UNL     1      -7.782  18.550  68.741  1.00  0.00    -0.302 NA 
HETATM    3  C   UNL     1      -7.171  19.014  66.358  1.00  0.00    -0.254 C  
HETATM    4  C   UNL     1      -6.772  19.535  69.176  1.00  0.00    -0.338 C  
HETATM    5  C   UNL     1      -7.509  20.401  66.937  1.00  0.00    -0.345 C  
HETATM    6  C   UNL     1      -8.947  20.420  67.512  1.00  0.00    -0.419 C  
HETATM    7  C   UNL     1      -6.534  20.617  68.111  1.00  0.00    -0.341 C  
HETATM    8  C   UNL     1      -9.068  19.281  68.561  1.00  0.00    -0.377 C  
ENDROOT
BRANCH   1   9
HETATM    9  C   UNL     1      -6.314  16.812  67.498  1.00  0.00    -0.161 C  
HETATM   10  O   UNL     1      -5.488  16.722  66.330  1.00  0.00    -0.348 OA 
HETATM   11  H   UNL     1      -4.815  16.054  66.374  1.00  0.00     0.000 HD 
BRANCH   9  12
HETATM   12  C   UNL     1      -6.906  15.429  67.765  1.00  0.00    -0.188 A  
HETATM   13  N   UNL     1      -7.825  12.816  68.233  1.00  0.00    -0.136 NA 
HETATM   14  C   UNL     1      -6.251  14.571  68.664  1.00  0.00    -0.083 A  
HETATM   15  C   UNL     1      -8.484  13.630  67.393  1.00  0.00    -0.201 A  
HETATM   16  C   UNL     1      -9.620  13.125  66.781  1.00  0.00    -0.249 A  
HETATM   17  C   UNL     1      -6.737  13.298  68.856  1.00  0.00    -0.110 A  
HETATM   18  C   UNL     1     -10.386  13.886  65.891  1.00  0.00    -0.318 A  
HETATM   19  C   UNL     1      -8.073  14.952  67.105  1.00  0.00    -0.239 A  
HETATM   20  C   UNL     1     -10.001  15.185  65.592  1.00  0.00    -0.354 A  
HETATM   21  C   UNL     1      -8.850  15.705  66.190  1.00  0.00    -0.311 A  
BRANCH  20  22
HETATM   22  O   UNL     1     -10.649  16.042  64.749  1.00  0.00    -0.600 OA 
HETATM   23  C   UNL     1     -11.964  15.677  64.344  1.00  0.00    -0.136 C  
ENDBRANCH  20  22
ENDBRANCH   9  12
ENDBRANCH   1   9
BRANCH   6  24
HETATM   24  C   UNL     1     -10.008  20.308  66.442  1.00  0.00    -0.507 C  
HETATM   25  C   UNL     1     -10.771  19.225  66.248  1.00  0.00    -0.477 C  
ENDBRANCH   6  24
TORSDOF 4
ENDMDL
MODEL       59
REMARK 921   NORMALIZED FREE ENERGY PREDICTED BY IDOCK:   -5.36 KCAL/MOL
REMARK 922        TOTAL FREE ENERGY PREDICTED BY IDOCK:   -7.40 KCAL/MOL
REMARK 923 INTER-LIGAND FREE ENERGY PREDICTED BY IDOCK:   -6.95 KCAL/MOL
REMARK 924 INTRA-LIGAND FREE ENERGY PREDICTED BY IDOCK:   -0.45 KCAL/MOL
REMARK 927      BINDING AFFINITY PREDICTED BY RF-SCORE:    0.00 PKD
ROOT
HETATM    1  C   UNL     1     -10.340  11.512  67.675  1.00  0.00    -0.186 C  
HETATM    2  N   UNL     1      -9.012  11.841  67.056  1.00  0.00    -0.180 NA 
HETATM    3  C   UNL     1     -11.491  11.903  66.713  1.00  0.00    -0.384 C  
HETATM    4  C   UNL     1      -8.857  11.243  65.715  1.00  0.00    -0.148 C  
HETATM    5  C   UNL     1     -10.924  12.652  65.493  1.00  0.00    -0.313 C  
HETATM    6  C   UNL     1     -10.052  13.852  65.942  1.00  0.00    -0.331 C  
HETATM    7  C   UNL     1     -10.002  11.649  64.774  1.00  0.00    -0.292 C  
HETATM    8  C   UNL     1      -8.946  13.321  66.894  1.00  0.00    -0.207 C  
ENDROOT
BRANCH   1   9
HETATM    9  C   UNL     1     -10.454  10.055  68.260  1.00  0.00    -0.213 C  
HETATM   10  O   UNL     1     -11.071   9.107  67.379  1.00  0.00    -0.412 OA 
HETATM   11  H   UNL     1     -11.141   8.228  67.732  1.00  0.00     0.000 HD 
BRANCH   9  12
HETATM   12  C   UNL     1     -11.216  10.035  69.584  1.00  0.00    -0.285 A  
HETATM   13  N   UNL     1     -12.559  10.169  72.048  1.00  0.00    -0.334 NA 
HETATM   14  C   UNL     1     -12.035  11.127  69.914  1.00  0.00    -0.439 A  
HETATM   15  C   UNL     1     -11.806   9.101  71.740  1.00  0.00    -0.383 A  
HETATM   16  C   UNL     1     -11.727   8.087  72.681  1.00  0.00    -0.418 A  
HETATM   17  C   UNL     1     -12.668  11.149  71.136  1.00  0.00    -0.408 A  
HETATM   18  C   UNL     1     -10.976   6.928  72.465  1.00  0.00    -0.294 A  
HETATM   19  C   UNL     1     -11.096   8.972  70.523  1.00  0.00    -0.297 A  
HETATM   20  C   UNL     1     -10.270   6.780  71.279  1.00  0.00    -0.202 A  
HETATM   21  C   UNL     1     -10.328   7.798  70.324  1.00  0.00    -0.215 A  
BRANCH  20  22
HETATM   22  O   UNL     1      -9.500   5.707  70.929  1.00  0.00    -0.160 OA 
HETATM   23  C   UNL     1     -10.106   4.724  70.096  1.00  0.00    -0.240 C  
ENDBRANCH  20  22
ENDBRANCH   9  12
ENDBRANCH   1   9
BRANCH   6  24
HETATM   24  C   UNL     1     -10.860  14.955  66.586  1.00  0.00    -0.319 C  
HETATM   25  C   UNL     1     -10.451  16.226  66.688  1.00  0.00    -0.290 C  
ENDBRANCH   6  24
TORSDOF 4
ENDMDL
MODEL       60
REMARK 921   NORMALIZED FREE ENERGY PREDICTED BY IDOCK:   -5.35 KCAL/MOL
REMARK 922        TOTAL FREE ENERGY PREDICTED BY IDOCK:   -7.39 KCAL/MOL
REMARK 923 INTER-LIGAND FREE ENERGY PREDICTED BY IDOCK:   -6.54 KCAL/MOL
REMARK 924 INTRA-LIGAND FREE ENERGY PREDICTED BY IDOCK:   -0.85 KCAL/MOL
REMARK 927      BINDING AFFINITY PREDICTED BY RF-SCORE:    0.00 PKD
ROOT
HETATM    1  C   UNL     1     -10.797  12.439  68.791  1.00  0.00    -0.226 C  
HETATM    2  N   UNL     1      -9.553  13.163  68.365  1.00  0.00    -0.215 NA 
HETATM    3  C   UNL     1     -12.048  13.109  68.167  1.00  0.00    -0.224 C  
HETATM    4  C   UNL     1      -9.456  13.288  66.897  1.00  0.00    -0.249 C  
HETATM    5  C   UNL     1     -11.641  14.400  67.435  1.00  0.00    -0.398 C  
HETATM    6  C   UNL     1     -10.838  15.334  68.375  1.00  0.00    -0.257 C  
HETATM    7  C   UNL     1     -10.699  13.962  66.297  1.00  0.00    -0.285 C  
HETATM    8  C   UNL     1      -9.621  14.542  68.926  1.00  0.00    -0.158 C  
ENDROOT
BRANCH   1   9
HETATM    9  C   UNL     1     -10.746  10.875  68.615  1.00  0.00    -0.203 C  
HETATM   10  O   UNL     1     -11.621  10.363  67.601  1.00  0.00    -0.615 OA 
HETATM   11  H   UNL     1     -11.590   9.419  67.495  1.00  0.00     0.000 HD 
BRANCH   9  12
HETATM   12  C   UNL     1     -11.060  10.147  69.921  1.00  0.00    -0.346 A  
HETATM   13  N   UNL     1     -11.721   8.961  72.380  1.00  0.00    -0.281 NA 
HETATM   14  C   UNL     1     -12.367  10.197  70.430  1.00  0.00    -0.268 A  
HETATM   15  C   UNL     1     -10.471   8.876  71.896  1.00  0.00    -0.345 A  
HETATM   16  C   UNL     1      -9.542   8.184  72.658  1.00  0.00    -0.352 A  
HETATM   17  C   UNL     1     -12.641   9.605  71.643  1.00  0.00    -0.402 A  
HETATM   18  C   UNL     1      -8.214   8.029  72.249  1.00  0.00    -0.186 A  
HETATM   19  C   UNL     1     -10.067   9.456  70.672  1.00  0.00    -0.356 A  
HETATM   20  C   UNL     1      -7.795   8.591  71.052  1.00  0.00    -0.110 A  
HETATM   21  C   UNL     1      -8.715   9.302  70.278  1.00  0.00    -0.246 A  
BRANCH  20  22
HETATM   22  O   UNL     1      -6.536   8.519  70.526  1.00  0.00    -0.035 OA 
HETATM   23  C   UNL     1      -5.925   7.233  70.492  1.00  0.00    -0.027 C  
ENDBRANCH  20  22
ENDBRANCH   9  12
ENDBRANCH   1   9
BRANCH   6  24
HETATM   24  C   UNL     1     -11.680  15.909  69.490  1.00  0.00    -0.331 C  
HETATM   25  C   UNL     1     -11.422  15.740  70.793  1.00  0.00    -0.423 C  
ENDBRANCH   6  24
TORSDOF 4
ENDMDL
MODEL       61
REMARK 921   NORMALIZED FREE ENERGY PREDICTED BY IDOCK:   -5.34 KCAL/MOL
REMARK 922        TOTAL FREE ENERGY PREDICTED BY IDOCK:   -7.37 KCAL/MOL
REMARK 923 INTER-LIGAND FREE ENERGY PREDICTED BY IDOCK:   -6.63 KCAL/MOL
REMARK 924 INTRA-LIGAND FREE ENERGY PREDICTED BY IDOCK:   -0.74 KCAL/MOL
REMARK 927      BINDING AFFINITY PREDICTED BY RF-SCORE:    0.00 PKD
ROOT
HETATM    1  C   UNL     1      -9.010   7.888  67.143  1.00  0.00    -0.129 C  
HETATM    2  N   UNL     1      -8.534   6.879  68.148  1.00  0.00    -0.124 NA 
HETATM    3  C   UNL     1     -10.533   7.731  66.905  1.00  0.00    -0.388 C  
HETATM    4  C   UNL     1      -9.312   6.931  69.402  1.00  0.00    -0.146 C  
HETATM    5  C   UNL     1     -11.055   6.489  67.650  1.00  0.00    -0.380 C  
HETATM    6  C   UNL     1     -10.231   5.233  67.267  1.00  0.00    -0.252 C  
HETATM    7  C   UNL     1     -10.818   6.764  69.147  1.00  0.00    -0.298 C  
HETATM    8  C   UNL     1      -8.734   5.526  67.555  1.00  0.00    -0.107 C  
ENDROOT
BRANCH   1   9
HETATM    9  C   UNL     1      -8.550   9.368  67.422  1.00  0.00    -0.125 C  
HETATM   10  O   UNL     1      -7.732   9.526  68.589  1.00  0.00    -0.079 OA 
HETATM   11  H   UNL     1      -7.455  10.418  68.757  1.00  0.00     0.000 HD 
BRANCH   9  12
HETATM   12  C   UNL     1      -9.740  10.317  67.548  1.00  0.00    -0.196 A  
HETATM   13  N   UNL     1     -12.016  11.931  67.874  1.00  0.00    -0.577 NA 
HETATM   14  C   UNL     1     -10.340  10.492  68.805  1.00  0.00    -0.208 A  
HETATM   15  C   UNL     1     -11.440  11.801  66.668  1.00  0.00    -0.267 A  
HETATM   16  C   UNL     1     -12.014  12.492  65.612  1.00  0.00    -0.492 A  
HETATM   17  C   UNL     1     -11.458  11.290  68.913  1.00  0.00    -0.297 A  
HETATM   18  C   UNL     1     -11.496  12.433  64.315  1.00  0.00    -0.427 A  
HETATM   19  C   UNL     1     -10.300  10.999  66.430  1.00  0.00    -0.302 A  
HETATM   20  C   UNL     1     -10.378  11.652  64.058  1.00  0.00    -0.357 A  
HETATM   21  C   UNL     1      -9.794  10.938  65.108  1.00  0.00    -0.329 A  
BRANCH  20  22
HETATM   22  O   UNL     1      -9.762  11.501  62.848  1.00  0.00    -0.372 OA 
HETATM   23  C   UNL     1      -9.135  10.248  62.596  1.00  0.00    -0.286 C  
ENDBRANCH  20  22
ENDBRANCH   9  12
ENDBRANCH   1   9
BRANCH   6  24
HETATM   24  C   UNL     1     -10.451   4.801  65.836  1.00  0.00    -0.313 C  
HETATM   25  C   UNL     1      -9.537   4.164  65.094  1.00  0.00    -0.185 C  
ENDBRANCH   6  24
TORSDOF 4
ENDMDL
MODEL       62
REMARK 921   NORMALIZED FREE ENERGY PREDICTED BY IDOCK:   -5.33 KCAL/MOL
REMARK 922        TOTAL FREE ENERGY PREDICTED BY IDOCK:   -7.36 KCAL/MOL
REMARK 923 INTER-LIGAND FREE ENERGY PREDICTED BY IDOCK:   -6.57 KCAL/MOL
REMARK 924 INTRA-LIGAND FREE ENERGY PREDICTED BY IDOCK:   -0.80 KCAL/MOL
REMARK 927      BINDING AFFINITY PREDICTED BY RF-SCORE:    0.00 PKD
ROOT
HETATM    1  C   UNL     1      -9.351  14.716  68.273  1.00  0.00    -0.199 C  
HETATM    2  N   UNL     1      -9.286  15.495  66.991  1.00  0.00    -0.215 NA 
HETATM    3  C   UNL     1      -9.197  15.668  69.487  1.00  0.00    -0.259 C  
HETATM    4  C   UNL     1     -10.255  16.609  66.964  1.00  0.00    -0.290 C  
HETATM    5  C   UNL     1      -8.866  17.090  69.000  1.00  0.00    -0.130 C  
HETATM    6  C   UNL     1      -7.634  17.075  68.059  1.00  0.00    -0.183 C  
HETATM    7  C   UNL     1     -10.081  17.546  68.169  1.00  0.00    -0.341 C  
HETATM    8  C   UNL     1      -7.922  16.089  66.895  1.00  0.00    -0.248 C  
ENDROOT
BRANCH   1   9
HETATM    9  C   UNL     1     -10.567  13.722  68.382  1.00  0.00    -0.253 C  
HETATM   10  O   UNL     1     -10.887  13.319  69.720  1.00  0.00    -0.430 OA 
HETATM   11  H   UNL     1     -11.621  12.720  69.786  1.00  0.00     0.000 HD 
BRANCH   9  12
HETATM   12  C   UNL     1     -10.343  12.460  67.550  1.00  0.00    -0.223 A  
HETATM   13  N   UNL     1      -9.757  10.142  66.077  1.00  0.00    -0.211 NA 
HETATM   14  C   UNL     1      -9.676  11.371  68.133  1.00  0.00    -0.194 A  
HETATM   15  C   UNL     1     -10.423  11.160  65.509  1.00  0.00    -0.256 A  
HETATM   16  C   UNL     1     -10.801  11.010  64.184  1.00  0.00    -0.250 A  
HETATM   17  C   UNL     1      -9.407  10.258  67.368  1.00  0.00    -0.145 A  
HETATM   18  C   UNL     1     -11.502  12.004  63.494  1.00  0.00    -0.536 A  
HETATM   19  C   UNL     1     -10.744  12.358  66.188  1.00  0.00    -0.292 A  
HETATM   20  C   UNL     1     -11.826  13.189  64.139  1.00  0.00    -0.429 A  
HETATM   21  C   UNL     1     -11.441  13.361  65.471  1.00  0.00    -0.324 A  
BRANCH  20  22
HETATM   22  O   UNL     1     -12.507  14.241  63.596  1.00  0.00    -0.816 OA 
HETATM   23  C   UNL     1     -12.483  15.467  64.320  1.00  0.00     0.066 C  
ENDBRANCH  20  22
ENDBRANCH   9  12
ENDBRANCH   1   9
BRANCH   6  24
HETATM   24  C   UNL     1      -6.351  16.731  68.778  1.00  0.00    -0.158 C  
HETATM   25  C   UNL     1      -5.873  17.407  69.830  1.00  0.00    -0.249 C  
ENDBRANCH   6  24
TORSDOF 4
ENDMDL
MODEL       63
REMARK 921   NORMALIZED FREE ENERGY PREDICTED BY IDOCK:   -5.32 KCAL/MOL
REMARK 922        TOTAL FREE ENERGY PREDICTED BY IDOCK:   -7.35 KCAL/MOL
REMARK 923 INTER-LIGAND FREE ENERGY PREDICTED BY IDOCK:   -7.31 KCAL/MOL
REMARK 924 INTRA-LIGAND FREE ENERGY PREDICTED BY IDOCK:   -0.04 KCAL/MOL
REMARK 927      BINDING AFFINITY PREDICTED BY RF-SCORE:    0.00 PKD
ROOT
HETATM    1  C   UNL     1     -10.740  15.417  66.140  1.00  0.00    -0.314 C  
HETATM    2  N   UNL     1     -11.069  16.158  67.404  1.00  0.00    -0.204 NA 
HETATM    3  C   UNL     1      -9.277  14.908  66.181  1.00  0.00    -0.268 C  
HETATM    4  C   UNL     1     -10.780  15.358  68.611  1.00  0.00    -0.246 C  
HETATM    5  C   UNL     1      -8.566  15.457  67.432  1.00  0.00    -0.197 C  
HETATM    6  C   UNL     1      -8.692  17.000  67.503  1.00  0.00    -0.215 C  
HETATM    7  C   UNL     1      -9.324  14.871  68.639  1.00  0.00    -0.194 C  
HETATM    8  C   UNL     1     -10.200  17.368  67.453  1.00  0.00    -0.326 C  
ENDROOT
BRANCH   1   9
HETATM    9  C   UNL     1     -11.793  14.322  65.723  1.00  0.00    -0.374 C  
HETATM   10  O   UNL     1     -12.753  14.003  66.738  1.00  0.00    -0.483 OA 
HETATM   11  H   UNL     1     -13.387  13.343  66.487  1.00  0.00     0.000 HD 
BRANCH   9  12
HETATM   12  C   UNL     1     -11.116  13.023  65.289  1.00  0.00    -0.311 A  
HETATM   13  N   UNL     1      -9.978  10.636  64.341  1.00  0.00    -0.330 NA 
HETATM   14  C   UNL     1     -10.664  12.901  63.965  1.00  0.00    -0.429 A  
HETATM   15  C   UNL     1     -10.376  10.741  65.619  1.00  0.00    -0.230 A  
HETATM   16  C   UNL     1     -10.199   9.632  66.432  1.00  0.00    -0.288 A  
HETATM   17  C   UNL     1     -10.117  11.709  63.546  1.00  0.00    -0.425 A  
HETATM   18  C   UNL     1     -10.573   9.631  67.779  1.00  0.00    -0.320 A  
HETATM   19  C   UNL     1     -10.964  11.907  66.160  1.00  0.00    -0.352 A  
HETATM   20  C   UNL     1     -11.153  10.764  68.331  1.00  0.00    -0.266 A  
HETATM   21  C   UNL     1     -11.351  11.886  67.523  1.00  0.00    -0.381 A  
BRANCH  20  22
HETATM   22  O   UNL     1     -11.563  10.908  69.626  1.00  0.00    -0.264 OA 
HETATM   23  C   UNL     1     -12.127  12.165  69.987  1.00  0.00    -0.277 C  
ENDBRANCH  20  22
ENDBRANCH   9  12
ENDBRANCH   1   9
BRANCH   6  24
HETATM   24  C   UNL     1      -7.910  17.703  66.417  1.00  0.00    -0.318 C  
HETATM   25  C   UNL     1      -6.586  17.598  66.257  1.00  0.00    -0.301 C  
ENDBRANCH   6  24
TORSDOF 4
ENDMDL
MODEL       64
REMARK 921   NORMALIZED FREE ENERGY PREDICTED BY IDOCK:   -5.31 KCAL/MOL
REMARK 922        TOTAL FREE ENERGY PREDICTED BY IDOCK:   -7.34 KCAL/MOL
REMARK 923 INTER-LIGAND FREE ENERGY PREDICTED BY IDOCK:   -6.59 KCAL/MOL
REMARK 924 INTRA-LIGAND FREE ENERGY PREDICTED BY IDOCK:   -0.75 KCAL/MOL
REMARK 927      BINDING AFFINITY PREDICTED BY RF-SCORE:    0.00 PKD
ROOT
HETATM    1  C   UNL     1      -9.211  10.325  68.271  1.00  0.00    -0.139 C  
HETATM    2  N   UNL     1      -8.118   9.317  68.057  1.00  0.00    -0.103 NA 
HETATM    3  C   UNL     1      -9.807  10.176  69.693  1.00  0.00    -0.254 C  
HETATM    4  C   UNL     1      -7.088   9.378  69.112  1.00  0.00    -0.062 C  
HETATM    5  C   UNL     1      -9.206   8.940  70.387  1.00  0.00    -0.222 C  
HETATM    6  C   UNL     1      -9.376   7.677  69.504  1.00  0.00    -0.153 C  
HETATM    7  C   UNL     1      -7.696   9.219  70.514  1.00  0.00    -0.160 C  
HETATM    8  C   UNL     1      -8.738   7.963  68.118  1.00  0.00    -0.126 C  
ENDROOT
BRANCH   1   9
HETATM    9  C   UNL     1      -8.833  11.803  67.881  1.00  0.00    -0.165 C  
HETATM   10  O   UNL     1      -8.157  12.535  68.911  1.00  0.00    -0.333 OA 
HETATM   11  H   UNL     1      -7.929  13.427  68.676  1.00  0.00     0.000 HD 
BRANCH   9  12
HETATM   12  C   UNL     1     -10.060  12.608  67.456  1.00  0.00    -0.212 A  
HETATM   13  N   UNL     1     -12.404  14.019  66.822  1.00  0.00    -0.405 NA 
HETATM   14  C   UNL     1     -10.741  13.368  68.421  1.00  0.00    -0.271 A  
HETATM   15  C   UNL     1     -11.751  13.323  65.878  1.00  0.00    -0.365 A  
HETATM   16  C   UNL     1     -12.283  13.337  64.598  1.00  0.00    -0.460 A  
HETATM   17  C   UNL     1     -11.889  14.038  68.062  1.00  0.00    -0.368 A  
HETATM   18  C   UNL     1     -11.684  12.652  63.537  1.00  0.00    -0.604 A  
HETATM   19  C   UNL     1     -10.572  12.584  66.129  1.00  0.00    -0.279 A  
HETATM   20  C   UNL     1     -10.527  11.919  63.759  1.00  0.00    -0.423 A  
HETATM   21  C   UNL     1      -9.985  11.883  65.046  1.00  0.00    -0.276 A  
BRANCH  20  22
HETATM   22  O   UNL     1      -9.834  11.205  62.823  1.00  0.00    -0.290 OA 
HETATM   23  C   UNL     1      -9.070  10.098  63.292  1.00  0.00    -0.271 C  
ENDBRANCH  20  22
ENDBRANCH   9  12
ENDBRANCH   1   9
BRANCH   6  24
HETATM   24  C   UNL     1     -10.817   7.241  69.377  1.00  0.00    -0.206 C  
HETATM   25  C   UNL     1     -11.268   6.027  69.712  1.00  0.00    -0.440 C  
ENDBRANCH   6  24
TORSDOF 4
ENDMDL
MODEL       65
REMARK 921   NORMALIZED FREE ENERGY PREDICTED BY IDOCK:   -5.29 KCAL/MOL
REMARK 922        TOTAL FREE ENERGY PREDICTED BY IDOCK:   -7.31 KCAL/MOL
REMARK 923 INTER-LIGAND FREE ENERGY PREDICTED BY IDOCK:   -6.71 KCAL/MOL
REMARK 924 INTRA-LIGAND FREE ENERGY PREDICTED BY IDOCK:   -0.60 KCAL/MOL
REMARK 927      BINDING AFFINITY PREDICTED BY RF-SCORE:    0.00 PKD
ROOT
HETATM    1  C   UNL     1      -9.987  10.023  68.359  1.00  0.00    -0.160 C  
HETATM    2  N   UNL     1      -9.412  10.024  69.745  1.00  0.00    -0.223 NA 
HETATM    3  C   UNL     1     -10.520   8.613  68.000  1.00  0.00    -0.254 C  
HETATM    4  C   UNL     1     -10.366   9.507  70.746  1.00  0.00    -0.306 C  
HETATM    5  C   UNL     1     -10.151   7.614  69.112  1.00  0.00    -0.194 C  
HETATM    6  C   UNL     1      -8.629   7.651  69.399  1.00  0.00    -0.136 C  
HETATM    7  C   UNL     1     -10.876   8.106  70.379  1.00  0.00    -0.237 C  
HETATM    8  C   UNL     1      -8.232   9.112  69.743  1.00  0.00    -0.128 C  
ENDROOT
BRANCH   1   9
HETATM    9  C   UNL     1     -11.001  11.191  68.063  1.00  0.00    -0.252 C  
HETATM   10  O   UNL     1     -12.380  10.838  68.231  1.00  0.00    -0.717 OA 
HETATM   11  H   UNL     1     -12.992  11.542  68.052  1.00  0.00     0.000 HD 
BRANCH   9  12
HETATM   12  C   UNL     1     -10.826  11.749  66.651  1.00  0.00    -0.318 A  
HETATM   13  N   UNL     1     -10.364  12.656  64.033  1.00  0.00    -0.410 NA 
HETATM   14  C   UNL     1     -10.700  10.854  65.577  1.00  0.00    -0.182 A  
HETATM   15  C   UNL     1     -10.511  13.531  65.041  1.00  0.00    -0.376 A  
HETATM   16  C   UNL     1     -10.427  14.879  64.730  1.00  0.00    -0.296 A  
HETATM   17  C   UNL     1     -10.470  11.347  64.312  1.00  0.00    -0.342 A  
HETATM   18  C   UNL     1     -10.569  15.876  65.699  1.00  0.00    -0.393 A  
HETATM   19  C   UNL     1     -10.737  13.144  66.383  1.00  0.00    -0.293 A  
HETATM   20  C   UNL     1     -10.789  15.521  67.022  1.00  0.00    -0.314 A  
HETATM   21  C   UNL     1     -10.864  14.166  67.356  1.00  0.00    -0.291 A  
BRANCH  20  22
HETATM   22  O   UNL     1     -10.950  16.381  68.071  1.00  0.00    -0.345 OA 
HETATM   23  C   UNL     1     -11.765  15.936  69.150  1.00  0.00    -0.363 C  
ENDBRANCH  20  22
ENDBRANCH   9  12
ENDBRANCH   1   9
BRANCH   6  24
HETATM   24  C   UNL     1      -7.803   7.102  68.258  1.00  0.00    -0.122 C  
HETATM   25  C   UNL     1      -6.591   7.558  67.919  1.00  0.00    -0.058 C  
ENDBRANCH   6  24
TORSDOF 4
ENDMDL
MODEL       66
REMARK 921   NORMALIZED FREE ENERGY PREDICTED BY IDOCK:   -5.28 KCAL/MOL
REMARK 922        TOTAL FREE ENERGY PREDICTED BY IDOCK:   -7.30 KCAL/MOL
REMARK 923 INTER-LIGAND FREE ENERGY PREDICTED BY IDOCK:   -6.64 KCAL/MOL
REMARK 924 INTRA-LIGAND FREE ENERGY PREDICTED BY IDOCK:   -0.66 KCAL/MOL
REMARK 927      BINDING AFFINITY PREDICTED BY RF-SCORE:    0.00 PKD
ROOT
HETATM    1  C   UNL     1     -10.838   8.746  68.750  1.00  0.00     0.013 C  
HETATM    2  N   UNL     1     -10.436   7.567  69.587  1.00  0.00    -0.229 NA 
HETATM    3  C   UNL     1     -11.042   9.995  69.644  1.00  0.00    -0.300 C  
HETATM    4  C   UNL     1      -9.260   7.856  70.432  1.00  0.00    -0.158 C  
HETATM    5  C   UNL     1     -10.925   9.602  71.128  1.00  0.00    -0.430 C  
HETATM    6  C   UNL     1     -11.884   8.432  71.463  1.00  0.00    -0.345 C  
HETATM    7  C   UNL     1      -9.483   9.091  71.318  1.00  0.00    -0.339 C  
HETATM    8  C   UNL     1     -11.573   7.255  70.500  1.00  0.00    -0.258 C  
ENDROOT
BRANCH   1   9
HETATM    9  C   UNL     1      -9.934   8.998  67.485  1.00  0.00    -0.207 C  
HETATM   10  O   UNL     1      -8.893   8.031  67.296  1.00  0.00    -0.128 OA 
HETATM   11  H   UNL     1      -8.348   8.183  66.534  1.00  0.00     0.000 HD 
BRANCH   9  12
HETATM   12  C   UNL     1      -9.292  10.384  67.515  1.00  0.00    -0.163 A  
HETATM   13  N   UNL     1      -8.087  12.910  67.752  1.00  0.00    -0.152 NA 
HETATM   14  C   UNL     1      -8.075  10.554  68.194  1.00  0.00    -0.113 A  
HETATM   15  C   UNL     1      -9.236  12.764  67.072  1.00  0.00    -0.221 A  
HETATM   16  C   UNL     1      -9.785  13.902  66.503  1.00  0.00    -0.303 A  
HETATM   17  C   UNL     1      -7.526  11.813  68.287  1.00  0.00    -0.103 A  
HETATM   18  C   UNL     1     -10.976  13.866  65.771  1.00  0.00    -0.285 A  
HETATM   19  C   UNL     1      -9.901  11.525  66.921  1.00  0.00    -0.220 A  
HETATM   20  C   UNL     1     -11.647  12.662  65.610  1.00  0.00    -0.377 A  
HETATM   21  C   UNL     1     -11.113  11.507  66.188  1.00  0.00    -0.302 A  
BRANCH  20  22
HETATM   22  O   UNL     1     -12.812  12.475  64.922  1.00  0.00    -0.758 OA 
HETATM   23  C   UNL     1     -12.702  12.248  63.521  1.00  0.00    -0.393 C  
ENDBRANCH  20  22
ENDBRANCH   9  12
ENDBRANCH   1   9
BRANCH   6  24
HETATM   24  C   UNL     1     -13.340   8.832  71.404  1.00  0.00    -0.289 C  
HETATM   25  C   UNL     1     -14.355   8.034  71.757  1.00  0.00    -0.583 C  
ENDBRANCH   6  24
TORSDOF 4
ENDMDL
MODEL       67
REMARK 921   NORMALIZED FREE ENERGY PREDICTED BY IDOCK:   -5.26 KCAL/MOL
REMARK 922        TOTAL FREE ENERGY PREDICTED BY IDOCK:   -7.28 KCAL/MOL
REMARK 923 INTER-LIGAND FREE ENERGY PREDICTED BY IDOCK:   -6.69 KCAL/MOL
REMARK 924 INTRA-LIGAND FREE ENERGY PREDICTED BY IDOCK:   -0.60 KCAL/MOL
REMARK 927      BINDING AFFINITY PREDICTED BY RF-SCORE:    0.00 PKD
ROOT
HETATM    1  C   UNL     1     -10.668  10.710  68.792  1.00  0.00    -0.215 C  
HETATM    2  N   UNL     1      -9.474  10.238  68.015  1.00  0.00    -0.145 NA 
HETATM    3  C   UNL     1     -10.700  10.038  70.188  1.00  0.00    -0.361 C  
HETATM    4  C   UNL     1      -8.213  10.422  68.761  1.00  0.00    -0.128 C  
HETATM    5  C   UNL     1      -9.589   8.976  70.284  1.00  0.00    -0.230 C  
HETATM    6  C   UNL     1      -9.685   7.973  69.106  1.00  0.00    -0.163 C  
HETATM    7  C   UNL     1      -8.260   9.741  70.137  1.00  0.00    -0.202 C  
HETATM    8  C   UNL     1      -9.641   8.776  67.778  1.00  0.00    -0.148 C  
ENDROOT
BRANCH   1   9
HETATM    9  C   UNL     1     -10.861  12.273  68.824  1.00  0.00    -0.229 C  
HETATM   10  O   UNL     1     -11.869  12.729  69.735  1.00  0.00    -0.315 OA 
HETATM   11  H   UNL     1     -11.986  13.671  69.754  1.00  0.00     0.000 HD 
BRANCH   9  12
HETATM   12  C   UNL     1     -11.187  12.832  67.440  1.00  0.00    -0.337 A  
HETATM   13  N   UNL     1     -11.719  13.704  64.824  1.00  0.00    -0.360 NA 
HETATM   14  C   UNL     1     -11.850  12.011  66.515  1.00  0.00    -0.237 A  
HETATM   15  C   UNL     1     -11.110  14.517  65.702  1.00  0.00    -0.327 A  
HETATM   16  C   UNL     1     -10.766  15.784  65.261  1.00  0.00    -0.446 A  
HETATM   17  C   UNL     1     -12.083  12.481  65.242  1.00  0.00    -0.444 A  
HETATM   18  C   UNL     1     -10.133  16.714  66.091  1.00  0.00    -0.361 A  
HETATM   19  C   UNL     1     -10.804  14.140  67.031  1.00  0.00    -0.295 A  
HETATM   20  C   UNL     1      -9.822  16.367  67.398  1.00  0.00    -0.244 A  
HETATM   21  C   UNL     1     -10.150  15.088  67.856  1.00  0.00    -0.226 A  
BRANCH  20  22
HETATM   22  O   UNL     1      -9.210  17.168  68.320  1.00  0.00    -0.246 OA 
HETATM   23  C   UNL     1      -9.440  18.569  68.210  1.00  0.00    -0.335 C  
ENDBRANCH  20  22
ENDBRANCH   9  12
ENDBRANCH   1   9
BRANCH   6  24
HETATM   24  C   UNL     1     -10.910   7.091  69.185  1.00  0.00    -0.223 C  
HETATM   25  C   UNL     1     -11.312   6.461  70.295  1.00  0.00    -0.468 C  
ENDBRANCH   6  24
TORSDOF 4
ENDMDL
MODEL       68
REMARK 921   NORMALIZED FREE ENERGY PREDICTED BY IDOCK:   -5.26 KCAL/MOL
REMARK 922        TOTAL FREE ENERGY PREDICTED BY IDOCK:   -7.28 KCAL/MOL
REMARK 923 INTER-LIGAND FREE ENERGY PREDICTED BY IDOCK:   -7.83 KCAL/MOL
REMARK 924 INTRA-LIGAND FREE ENERGY PREDICTED BY IDOCK:    0.55 KCAL/MOL
REMARK 927      BINDING AFFINITY PREDICTED BY RF-SCORE:    0.00 PKD
ROOT
HETATM    1  C   UNL     1     -10.043  16.747  67.325  1.00  0.00    -0.281 C  
HETATM    2  N   UNL     1      -9.878  17.779  66.247  1.00  0.00    -0.422 NA 
HETATM    3  C   UNL     1      -9.718  17.362  68.710  1.00  0.00    -0.282 C  
HETATM    4  C   UNL     1     -10.657  19.003  66.521  1.00  0.00    -0.410 C  
HETATM    5  C   UNL     1      -9.173  18.792  68.535  1.00  0.00    -0.386 C  
HETATM    6  C   UNL     1      -7.977  18.806  67.550  1.00  0.00    -0.260 C  
HETATM    7  C   UNL     1     -10.315  19.603  67.893  1.00  0.00    -0.583 C  
HETATM    8  C   UNL     1      -8.439  18.166  66.212  1.00  0.00    -0.185 C  
ENDROOT
BRANCH   1   9
HETATM    9  C   UNL     1     -11.401  15.950  67.276  1.00  0.00    -0.003 C  
HETATM   10  O   UNL     1     -12.042  15.789  68.547  1.00  0.00    -0.512 OA 
HETATM   11  H   UNL     1     -12.860  15.308  68.518  1.00  0.00     0.000 HD 
BRANCH   9  12
HETATM   12  C   UNL     1     -11.221  14.565  66.658  1.00  0.00    -0.346 A  
HETATM   13  N   UNL     1     -10.996  12.071  65.384  1.00  0.00    -0.292 NA 
HETATM   14  C   UNL     1     -10.894  14.464  65.296  1.00  0.00    -0.370 A  
HETATM   15  C   UNL     1     -11.280  12.144  66.694  1.00  0.00    -0.324 A  
HETATM   16  C   UNL     1     -11.452  10.948  67.373  1.00  0.00    -0.175 A  
HETATM   17  C   UNL     1     -10.800  13.219  64.716  1.00  0.00    -0.360 A  
HETATM   18  C   UNL     1     -11.745  10.904  68.740  1.00  0.00    -0.355 A  
HETATM   19  C   UNL     1     -11.416  13.363  67.397  1.00  0.00    -0.368 A  
HETATM   20  C   UNL     1     -11.885  12.088  69.449  1.00  0.00    -0.324 A  
HETATM   21  C   UNL     1     -11.728  13.303  68.778  1.00  0.00    -0.366 A  
BRANCH  20  22
HETATM   22  O   UNL     1     -12.166  12.200  70.782  1.00  0.00    -0.377 OA 
HETATM   23  C   UNL     1     -12.910  11.141  71.374  1.00  0.00    -0.439 C  
ENDBRANCH  20  22
ENDBRANCH   9  12
ENDBRANCH   1   9
BRANCH   6  24
HETATM   24  C   UNL     1      -6.752  18.116  68.105  1.00  0.00    -0.206 C  
HETATM   25  C   UNL     1      -6.649  17.659  69.358  1.00  0.00    -0.206 C  
ENDBRANCH   6  24
TORSDOF 4
ENDMDL
MODEL       69
REMARK 921   NORMALIZED FREE ENERGY PREDICTED BY IDOCK:   -5.26 KCAL/MOL
REMARK 922        TOTAL FREE ENERGY PREDICTED BY IDOCK:   -7.28 KCAL/MOL
REMARK 923 INTER-LIGAND FREE ENERGY PREDICTED BY IDOCK:   -6.72 KCAL/MOL
REMARK 924 INTRA-LIGAND FREE ENERGY PREDICTED BY IDOCK:   -0.55 KCAL/MOL
REMARK 927      BINDING AFFINITY PREDICTED BY RF-SCORE:    0.00 PKD
ROOT
HETATM    1  C   UNL     1      -9.062  10.394  67.872  1.00  0.00    -0.132 C  
HETATM    2  N   UNL     1      -9.515   8.980  67.651  1.00  0.00    -0.139 NA 
HETATM    3  C   UNL     1      -8.269  10.502  69.200  1.00  0.00    -0.152 C  
HETATM    4  C   UNL     1      -8.398   8.017  67.724  1.00  0.00    -0.129 C  
HETATM    5  C   UNL     1      -8.330   9.163  69.957  1.00  0.00    -0.156 C  
HETATM    6  C   UNL     1      -9.799   8.703  70.143  1.00  0.00    -0.191 C  
HETATM    7  C   UNL     1      -7.631   8.132  69.050  1.00  0.00    -0.097 C  
HETATM    8  C   UNL     1     -10.469   8.638  68.744  1.00  0.00    -0.185 C  
ENDROOT
BRANCH   1   9
HETATM    9  C   UNL     1      -8.346  11.059  66.637  1.00  0.00    -0.155 C  
HETATM   10  O   UNL     1      -7.708  12.310  66.924  1.00  0.00    -0.318 OA 
HETATM   11  H   UNL     1      -7.276  12.712  66.179  1.00  0.00     0.000 HD 
BRANCH   9  12
HETATM   12  C   UNL     1      -9.311  11.277  65.474  1.00  0.00    -0.243 A  
HETATM   13  N   UNL     1     -10.941  11.702  63.225  1.00  0.00    -0.335 NA 
HETATM   14  C   UNL     1      -9.082  10.603  64.264  1.00  0.00    -0.244 A  
HETATM   15  C   UNL     1     -11.196  12.335  64.381  1.00  0.00    -0.334 A  
HETATM   16  C   UNL     1     -12.285  13.192  64.409  1.00  0.00    -0.462 A  
HETATM   17  C   UNL     1      -9.905  10.848  63.188  1.00  0.00    -0.351 A  
HETATM   18  C   UNL     1     -12.647  13.899  65.559  1.00  0.00    -0.560 A  
HETATM   19  C   UNL     1     -10.413  12.175  65.548  1.00  0.00    -0.300 A  
HETATM   20  C   UNL     1     -11.892  13.759  66.716  1.00  0.00    -0.420 A  
HETATM   21  C   UNL     1     -10.783  12.909  66.702  1.00  0.00    -0.280 A  
BRANCH  20  22
HETATM   22  O   UNL     1     -12.126  14.380  67.909  1.00  0.00    -0.334 OA 
HETATM   23  C   UNL     1     -11.861  13.629  69.089  1.00  0.00    -0.348 C  
ENDBRANCH  20  22
ENDBRANCH   9  12
ENDBRANCH   1   9
BRANCH   6  24
HETATM   24  C   UNL     1     -10.574   9.587  71.093  1.00  0.00    -0.388 C  
HETATM   25  C   UNL     1     -11.784  10.094  70.831  1.00  0.00    -0.468 C  
ENDBRANCH   6  24
TORSDOF 4
ENDMDL
MODEL       70
REMARK 921   NORMALIZED FREE ENERGY PREDICTED BY IDOCK:   -5.26 KCAL/MOL
REMARK 922        TOTAL FREE ENERGY PREDICTED BY IDOCK:   -7.27 KCAL/MOL
REMARK 923 INTER-LIGAND FREE ENERGY PREDICTED BY IDOCK:   -6.67 KCAL/MOL
REMARK 924 INTRA-LIGAND FREE ENERGY PREDICTED BY IDOCK:   -0.60 KCAL/MOL
REMARK 927      BINDING AFFINITY PREDICTED BY RF-SCORE:    0.00 PKD
ROOT
HETATM    1  C   UNL     1      -9.236  16.336  67.580  1.00  0.00    -0.206 C  
HETATM    2  N   UNL     1      -8.925  17.099  68.835  1.00  0.00    -0.234 NA 
HETATM    3  C   UNL     1      -8.777  17.139  66.337  1.00  0.00    -0.291 C  
HETATM    4  C   UNL     1      -7.506  17.498  68.910  1.00  0.00    -0.234 C  
HETATM    5  C   UNL     1      -8.293  18.537  66.764  1.00  0.00    -0.279 C  
HETATM    6  C   UNL     1      -9.374  19.258  67.608  1.00  0.00    -0.371 C  
HETATM    7  C   UNL     1      -7.072  18.301  67.674  1.00  0.00    -0.202 C  
HETATM    8  C   UNL     1      -9.738  18.349  68.814  1.00  0.00    -0.343 C  
ENDROOT
BRANCH   1   9
HETATM    9  C   UNL     1      -8.766  14.833  67.587  1.00  0.00    -0.178 C  
HETATM   10  O   UNL     1      -7.666  14.550  66.713  1.00  0.00    -0.280 OA 
HETATM   11  H   UNL     1      -7.383  13.643  66.716  1.00  0.00     0.000 HD 
BRANCH   9  12
HETATM   12  C   UNL     1      -9.907  13.881  67.234  1.00  0.00    -0.244 A  
HETATM   13  N   UNL     1     -12.124  12.258  66.649  1.00  0.00    -0.589 NA 
HETATM   14  C   UNL     1     -11.023  14.384  66.545  1.00  0.00    -0.316 A  
HETATM   15  C   UNL     1     -11.055  11.749  67.283  1.00  0.00    -0.287 A  
HETATM   16  C   UNL     1     -11.099  10.407  67.625  1.00  0.00    -0.361 A  
HETATM   17  C   UNL     1     -12.087  13.550  66.286  1.00  0.00    -0.428 A  
HETATM   18  C   UNL     1     -10.041   9.772  68.282  1.00  0.00    -0.189 A  
HETATM   19  C   UNL     1      -9.910  12.510  67.616  1.00  0.00    -0.202 A  
HETATM   20  C   UNL     1      -8.908  10.499  68.621  1.00  0.00    -0.147 A  
HETATM   21  C   UNL     1      -8.852  11.856  68.294  1.00  0.00    -0.174 A  
BRANCH  20  22
HETATM   22  O   UNL     1      -7.801  10.014  69.258  1.00  0.00    -0.101 OA 
HETATM   23  C   UNL     1      -6.739  10.933  69.492  1.00  0.00    -0.117 C  
ENDBRANCH  20  22
ENDBRANCH   9  12
ENDBRANCH   1   9
BRANCH   6  24
HETATM   24  C   UNL     1     -10.596  19.630  66.801  1.00  0.00    -0.602 C  
HETATM   25  C   UNL     1     -10.563  20.012  65.519  1.00  0.00    -0.300 C  
ENDBRANCH   6  24
TORSDOF 4
ENDMDL
MODEL       71
REMARK 921   NORMALIZED FREE ENERGY PREDICTED BY IDOCK:   -5.26 KCAL/MOL
REMARK 922        TOTAL FREE ENERGY PREDICTED BY IDOCK:   -7.27 KCAL/MOL
REMARK 923 INTER-LIGAND FREE ENERGY PREDICTED BY IDOCK:   -7.02 KCAL/MOL
REMARK 924 INTRA-LIGAND FREE ENERGY PREDICTED BY IDOCK:   -0.25 KCAL/MOL
REMARK 927      BINDING AFFINITY PREDICTED BY RF-SCORE:    0.00 PKD
ROOT
HETATM    1  C   UNL     1     -10.066  14.163  67.779  1.00  0.00    -0.239 C  
HETATM    2  N   UNL     1      -9.570  12.747  67.724  1.00  0.00    -0.198 NA 
HETATM    3  C   UNL     1     -11.527  14.240  67.266  1.00  0.00    -0.371 C  
HETATM    4  C   UNL     1     -10.468  11.813  68.430  1.00  0.00    -0.215 C  
HETATM    5  C   UNL     1     -11.960  12.872  66.711  1.00  0.00    -0.418 C  
HETATM    6  C   UNL     1     -10.952  12.366  65.648  1.00  0.00    -0.321 C  
HETATM    7  C   UNL     1     -11.909  11.897  67.903  1.00  0.00    -0.308 C  
HETATM    8  C   UNL     1      -9.539  12.338  66.291  1.00  0.00    -0.242 C  
ENDROOT
BRANCH   1   9
HETATM    9  C   UNL     1      -9.824  14.896  69.152  1.00  0.00    -0.199 C  
HETATM   10  O   UNL     1     -10.880  15.780  69.548  1.00  0.00    -0.240 OA 
HETATM   11  H   UNL     1     -10.735  16.222  70.376  1.00  0.00     0.000 HD 
BRANCH   9  12
HETATM   12  C   UNL     1      -8.520  15.691  69.147  1.00  0.00    -0.253 A  
HETATM   13  N   UNL     1      -6.095  17.100  69.311  1.00  0.00    -0.203 NA 
HETATM   14  C   UNL     1      -7.353  15.088  69.643  1.00  0.00    -0.181 A  
HETATM   15  C   UNL     1      -7.192  17.688  68.805  1.00  0.00    -0.268 A  
HETATM   16  C   UNL     1      -7.068  18.999  68.375  1.00  0.00    -0.304 A  
HETATM   17  C   UNL     1      -6.190  15.821  69.708  1.00  0.00    -0.172 A  
HETATM   18  C   UNL     1      -8.143  19.707  67.828  1.00  0.00    -0.336 A  
HETATM   19  C   UNL     1      -8.445  17.041  68.701  1.00  0.00    -0.262 A  
HETATM   20  C   UNL     1      -9.383  19.093  67.717  1.00  0.00    -0.305 A  
HETATM   21  C   UNL     1      -9.528  17.776  68.158  1.00  0.00    -0.282 A  
BRANCH  20  22
HETATM   22  O   UNL     1     -10.516  19.656  67.203  1.00  0.00    -0.419 OA 
HETATM   23  C   UNL     1     -10.664  19.629  65.787  1.00  0.00    -0.392 C  
ENDBRANCH  20  22
ENDBRANCH   9  12
ENDBRANCH   1   9
BRANCH   6  24
HETATM   24  C   UNL     1     -10.973  13.191  64.381  1.00  0.00    -0.412 C  
HETATM   25  C   UNL     1     -12.090  13.592  63.763  1.00  0.00    -0.482 C  
ENDBRANCH   6  24
TORSDOF 4
ENDMDL
MODEL       72
REMARK 921   NORMALIZED FREE ENERGY PREDICTED BY IDOCK:   -5.24 KCAL/MOL
REMARK 922        TOTAL FREE ENERGY PREDICTED BY IDOCK:   -7.25 KCAL/MOL
REMARK 923 INTER-LIGAND FREE ENERGY PREDICTED BY IDOCK:   -6.52 KCAL/MOL
REMARK 924 INTRA-LIGAND FREE ENERGY PREDICTED BY IDOCK:   -0.73 KCAL/MOL
REMARK 927      BINDING AFFINITY PREDICTED BY RF-SCORE:    0.00 PKD
ROOT
HETATM    1  C   UNL     1      -9.743  12.175  65.893  1.00  0.00    -0.239 C  
HETATM    2  N   UNL     1      -8.782  11.524  66.845  1.00  0.00    -0.174 NA 
HETATM    3  C   UNL     1     -10.300  11.128  64.895  1.00  0.00    -0.375 C  
HETATM    4  C   UNL     1      -9.373  10.353  67.523  1.00  0.00    -0.149 C  
HETATM    5  C   UNL     1      -9.576   9.783  65.086  1.00  0.00    -0.356 C  
HETATM    6  C   UNL     1      -8.040   9.969  65.002  1.00  0.00    -0.145 C  
HETATM    7  C   UNL     1      -9.912   9.323  66.518  1.00  0.00    -0.344 C  
HETATM    8  C   UNL     1      -7.620  11.037  66.048  1.00  0.00    -0.042 C  
ENDROOT
BRANCH   1   9
HETATM    9  C   UNL     1     -10.846  13.068  66.574  1.00  0.00    -0.279 C  
HETATM   10  O   UNL     1     -12.105  12.412  66.770  1.00  0.00    -0.578 OA 
HETATM   11  H   UNL     1     -12.771  12.951  67.181  1.00  0.00     0.000 HD 
BRANCH   9  12
HETATM   12  C   UNL     1     -11.100  14.352  65.787  1.00  0.00    -0.316 A  
HETATM   13  N   UNL     1     -11.513  16.624  64.187  1.00  0.00    -1.112 NA 
HETATM   14  C   UNL     1     -11.818  14.280  64.582  1.00  0.00    -0.459 A  
HETATM   15  C   UNL     1     -10.850  16.721  65.351  1.00  0.00    -0.141 A  
HETATM   16  C   UNL     1     -10.389  17.977  65.716  1.00  0.00    -0.178 A  
HETATM   17  C   UNL     1     -11.989  15.421  63.830  1.00  0.00     0.202 A  
HETATM   18  C   UNL     1      -9.691  18.195  66.908  1.00  0.00    -0.318 A  
HETATM   19  C   UNL     1     -10.599  15.619  66.200  1.00  0.00    -0.325 A  
HETATM   20  C   UNL     1      -9.432  17.127  67.756  1.00  0.00    -0.253 A  
HETATM   21  C   UNL     1      -9.878  15.853  67.397  1.00  0.00    -0.234 A  
BRANCH  20  22
HETATM   22  O   UNL     1      -8.768  17.190  68.948  1.00  0.00    -0.259 OA 
HETATM   23  C   UNL     1      -7.360  16.983  68.912  1.00  0.00    -0.245 C  
ENDBRANCH  20  22
ENDBRANCH   9  12
ENDBRANCH   1   9
BRANCH   6  24
HETATM   24  C   UNL     1      -7.569  10.334  63.613  1.00  0.00    -0.101 C  
HETATM   25  C   UNL     1      -7.340   9.445  62.638  1.00  0.00    -0.099 C  
ENDBRANCH   6  24
TORSDOF 4
ENDMDL
MODEL       73
REMARK 921   NORMALIZED FREE ENERGY PREDICTED BY IDOCK:   -5.19 KCAL/MOL
REMARK 922        TOTAL FREE ENERGY PREDICTED BY IDOCK:   -7.19 KCAL/MOL
REMARK 923 INTER-LIGAND FREE ENERGY PREDICTED BY IDOCK:   -6.99 KCAL/MOL
REMARK 924 INTRA-LIGAND FREE ENERGY PREDICTED BY IDOCK:   -0.20 KCAL/MOL
REMARK 927      BINDING AFFINITY PREDICTED BY RF-SCORE:    0.00 PKD
ROOT
HETATM    1  C   UNL     1     -10.157  10.656  67.098  1.00  0.00    -0.207 C  
HETATM    2  N   UNL     1     -10.060   9.189  67.402  1.00  0.00    -0.212 NA 
HETATM    3  C   UNL     1      -9.516  11.484  68.240  1.00  0.00    -0.189 C  
HETATM    4  C   UNL     1      -8.675   8.770  67.698  1.00  0.00    -0.135 C  
HETATM    5  C   UNL     1      -9.123  10.557  69.405  1.00  0.00    -0.123 C  
HETATM    6  C   UNL     1     -10.334   9.702  69.858  1.00  0.00    -0.282 C  
HETATM    7  C   UNL     1      -8.060   9.596  68.838  1.00  0.00    -0.098 C  
HETATM    8  C   UNL     1     -10.874   8.929  68.624  1.00  0.00     0.009 C  
ENDROOT
BRANCH   1   9
HETATM    9  C   UNL     1      -9.676  11.065  65.655  1.00  0.00    -0.232 C  
HETATM   10  O   UNL     1      -8.375  11.665  65.610  1.00  0.00    -0.370 OA 
HETATM   11  H   UNL     1      -8.085  11.912  64.741  1.00  0.00     0.000 HD 
BRANCH   9  12
HETATM   12  C   UNL     1     -10.660  12.020  64.981  1.00  0.00    -0.332 A  
HETATM   13  N   UNL     1     -12.438  13.685  63.583  1.00  0.00    -0.744 NA 
HETATM   14  C   UNL     1     -11.658  11.491  64.147  1.00  0.00    -0.251 A  
HETATM   15  C   UNL     1     -11.511  14.211  64.399  1.00  0.00    -0.332 A  
HETATM   16  C   UNL     1     -11.477  15.592  64.515  1.00  0.00    -0.304 A  
HETATM   17  C   UNL     1     -12.502  12.348  63.479  1.00  0.00    -0.500 A  
HETATM   18  C   UNL     1     -10.557  16.247  65.339  1.00  0.00    -0.371 A  
HETATM   19  C   UNL     1     -10.579  13.434  65.125  1.00  0.00    -0.353 A  
HETATM   20  C   UNL     1      -9.632  15.505  66.060  1.00  0.00    -0.345 A  
HETATM   21  C   UNL     1      -9.643  14.112  65.945  1.00  0.00    -0.208 A  
BRANCH  20  22
HETATM   22  O   UNL     1      -8.680  16.004  66.903  1.00  0.00    -0.192 OA 
HETATM   23  C   UNL     1      -7.673  16.826  66.323  1.00  0.00    -0.275 C  
ENDBRANCH  20  22
ENDBRANCH   9  12
ENDBRANCH   1   9
BRANCH   6  24
HETATM   24  C   UNL     1     -11.416  10.523  70.520  1.00  0.00    -0.433 C  
HETATM   25  C   UNL     1     -12.309  10.031  71.388  1.00  0.00    -0.512 C  
ENDBRANCH   6  24
TORSDOF 4
ENDMDL
MODEL       74
REMARK 921   NORMALIZED FREE ENERGY PREDICTED BY IDOCK:   -5.17 KCAL/MOL
REMARK 922        TOTAL FREE ENERGY PREDICTED BY IDOCK:   -7.17 KCAL/MOL
REMARK 923 INTER-LIGAND FREE ENERGY PREDICTED BY IDOCK:   -7.18 KCAL/MOL
REMARK 924 INTRA-LIGAND FREE ENERGY PREDICTED BY IDOCK:    0.01 KCAL/MOL
REMARK 927      BINDING AFFINITY PREDICTED BY RF-SCORE:    0.00 PKD
ROOT
HETATM    1  C   UNL     1     -10.536  12.439  66.880  1.00  0.00    -0.224 C  
HETATM    2  N   UNL     1      -9.382  12.436  65.919  1.00  0.00    -0.129 NA 
HETATM    3  C   UNL     1     -11.477  11.242  66.592  1.00  0.00    -0.029 C  
HETATM    4  C   UNL     1      -8.669  11.143  65.907  1.00  0.00    -0.164 C  
HETATM    5  C   UNL     1     -11.026  10.515  65.312  1.00  0.00     0.304 C  
HETATM    6  C   UNL     1     -10.903  11.511  64.130  1.00  0.00    -0.435 C  
HETATM    7  C   UNL     1      -9.616   9.971  65.611  1.00  0.00    -0.313 C  
HETATM    8  C   UNL     1      -9.936  12.651  64.552  1.00  0.00    -0.160 C  
ENDROOT
BRANCH   1   9
HETATM    9  C   UNL     1     -10.134  12.594  68.395  1.00  0.00    -0.222 C  
HETATM   10  O   UNL     1     -10.159  11.373  69.144  1.00  0.00    -0.383 OA 
HETATM   11  H   UNL     1      -9.917  11.466  70.058  1.00  0.00     0.000 HD 
BRANCH   9  12
HETATM   12  C   UNL     1     -11.022  13.608  69.114  1.00  0.00    -0.235 A  
HETATM   13  N   UNL     1     -12.506  15.578  70.458  1.00  0.00    -0.423 NA 
HETATM   14  C   UNL     1     -10.940  14.962  68.752  1.00  0.00    -0.259 A  
HETATM   15  C   UNL     1     -12.622  14.285  70.801  1.00  0.00    -0.356 A  
HETATM   16  C   UNL     1     -13.497  13.978  71.832  1.00  0.00    -0.506 A  
HETATM   17  C   UNL     1     -11.684  15.891  69.444  1.00  0.00    -0.343 A  
HETATM   18  C   UNL     1     -13.700  12.666  72.268  1.00  0.00    -0.429 A  
HETATM   19  C   UNL     1     -11.900  13.244  70.174  1.00  0.00    -0.333 A  
HETATM   20  C   UNL     1     -13.001  11.628  71.669  1.00  0.00    -0.378 A  
HETATM   21  C   UNL     1     -12.105  11.921  70.637  1.00  0.00    -0.389 A  
BRANCH  20  22
HETATM   22  O   UNL     1     -13.098  10.302  71.987  1.00  0.00    -0.447 OA 
HETATM   23  C   UNL     1     -11.983   9.478  71.661  1.00  0.00    -0.401 C  
ENDBRANCH  20  22
ENDBRANCH   9  12
ENDBRANCH   1   9
BRANCH   6  24
HETATM   24  C   UNL     1     -12.239  12.050  63.677  1.00  0.00    -0.642 C  
HETATM   25  C   UNL     1     -12.461  13.328  63.343  1.00  0.00    -0.281 C  
ENDBRANCH   6  24
TORSDOF 4
ENDMDL
MODEL       75
REMARK 921   NORMALIZED FREE ENERGY PREDICTED BY IDOCK:   -5.16 KCAL/MOL
REMARK 922        TOTAL FREE ENERGY PREDICTED BY IDOCK:   -7.15 KCAL/MOL
REMARK 923 INTER-LIGAND FREE ENERGY PREDICTED BY IDOCK:   -6.39 KCAL/MOL
REMARK 924 INTRA-LIGAND FREE ENERGY PREDICTED BY IDOCK:   -0.77 KCAL/MOL
REMARK 927      BINDING AFFINITY PREDICTED BY RF-SCORE:    0.00 PKD
ROOT
HETATM    1  C   UNL     1     -10.836  13.587  68.534  1.00  0.00    -0.264 C  
HETATM    2  N   UNL     1      -9.673  14.533  68.457  1.00  0.00    -0.220 NA 
HETATM    3  C   UNL     1     -12.133  14.358  68.890  1.00  0.00    -0.288 C  
HETATM    4  C   UNL     1      -9.931  15.662  67.542  1.00  0.00    -0.231 C  
HETATM    5  C   UNL     1     -11.799  15.826  69.212  1.00  0.00    -0.358 C  
HETATM    6  C   UNL     1     -10.702  15.912  70.303  1.00  0.00    -0.313 C  
HETATM    7  C   UNL     1     -11.214  16.420  67.916  1.00  0.00    -0.184 C  
HETATM    8  C   UNL     1      -9.468  15.103  69.819  1.00  0.00    -0.032 C  
ENDROOT
BRANCH   1   9
HETATM    9  C   UNL     1     -10.980  12.615  67.302  1.00  0.00    -0.256 C  
HETATM   10  O   UNL     1     -12.238  12.703  66.621  1.00  0.00    -0.517 OA 
HETATM   11  H   UNL     1     -12.325  12.117  65.878  1.00  0.00     0.000 HD 
BRANCH   9  12
HETATM   12  C   UNL     1     -10.760  11.158  67.703  1.00  0.00    -0.273 A  
HETATM   13  N   UNL     1     -10.302   8.537  68.604  1.00  0.00    -0.205 NA 
HETATM   14  C   UNL     1     -11.267  10.706  68.932  1.00  0.00    -0.333 A  
HETATM   15  C   UNL     1      -9.835   8.939  67.411  1.00  0.00    -0.193 A  
HETATM   16  C   UNL     1      -9.129   8.012  66.661  1.00  0.00    -0.199 A  
HETATM   17  C   UNL     1     -11.011   9.414  69.332  1.00  0.00    -0.145 A  
HETATM   18  C   UNL     1      -8.601   8.320  65.403  1.00  0.00    -0.176 A  
HETATM   19  C   UNL     1     -10.021  10.244  66.900  1.00  0.00    -0.259 A  
HETATM   20  C   UNL     1      -8.769   9.595  64.882  1.00  0.00    -0.181 A  
HETATM   21  C   UNL     1      -9.467  10.546  65.631  1.00  0.00    -0.259 A  
BRANCH  20  22
HETATM   22  O   UNL     1      -8.314  10.036  63.672  1.00  0.00    -0.145 OA 
HETATM   23  C   UNL     1      -9.275  10.613  62.794  1.00  0.00    -0.311 C  
ENDBRANCH  20  22
ENDBRANCH   9  12
ENDBRANCH   1   9
BRANCH   6  24
HETATM   24  C   UNL     1     -11.182  15.441  71.656  1.00  0.00    -0.386 C  
HETATM   25  C   UNL     1     -11.933  16.176  72.486  1.00  0.00    -0.660 C  
ENDBRANCH   6  24
TORSDOF 4
ENDMDL
MODEL       76
REMARK 921   NORMALIZED FREE ENERGY PREDICTED BY IDOCK:   -5.14 KCAL/MOL
REMARK 922        TOTAL FREE ENERGY PREDICTED BY IDOCK:   -7.13 KCAL/MOL
REMARK 923 INTER-LIGAND FREE ENERGY PREDICTED BY IDOCK:   -6.37 KCAL/MOL
REMARK 924 INTRA-LIGAND FREE ENERGY PREDICTED BY IDOCK:   -0.76 KCAL/MOL
REMARK 927      BINDING AFFINITY PREDICTED BY RF-SCORE:    0.00 PKD
ROOT
HETATM    1  C   UNL     1     -10.458   7.468  69.898  1.00  0.00    -0.229 C  
HETATM    2  N   UNL     1     -11.507   8.175  70.707  1.00  0.00    -0.277 NA 
HETATM    3  C   UNL     1      -9.726   6.417  70.771  1.00  0.00    -0.197 C  
HETATM    4  C   UNL     1     -12.438   7.233  71.359  1.00  0.00    -0.383 C  
HETATM    5  C   UNL     1     -10.190   6.535  72.234  1.00  0.00    -0.203 C  
HETATM    6  C   UNL     1     -10.031   7.990  72.745  1.00  0.00    -0.364 C  
HETATM    7  C   UNL     1     -11.695   6.205  72.227  1.00  0.00    -0.352 C  
HETATM    8  C   UNL     1     -10.810   8.931  71.785  1.00  0.00    -0.365 C  
ENDROOT
BRANCH   1   9
HETATM    9  C   UNL     1     -10.953   6.920  68.507  1.00  0.00    -0.136 C  
HETATM   10  O   UNL     1     -10.903   5.494  68.378  1.00  0.00    -0.155 OA 
HETATM   11  H   UNL     1     -11.201   5.163  67.539  1.00  0.00     0.000 HD 
BRANCH   9  12
HETATM   12  C   UNL     1     -10.165   7.527  67.347  1.00  0.00    -0.318 A  
HETATM   13  N   UNL     1      -8.565   8.561  65.283  1.00  0.00    -0.176 NA 
HETATM   14  C   UNL     1      -9.286   6.708  66.620  1.00  0.00    -0.179 A  
HETATM   15  C   UNL     1      -9.421   9.356  65.945  1.00  0.00    -0.251 A  
HETATM   16  C   UNL     1      -9.475  10.688  65.564  1.00  0.00    -0.261 A  
HETATM   17  C   UNL     1      -8.519   7.263  65.621  1.00  0.00    -0.131 A  
HETATM   18  C   UNL     1     -10.332  11.603  66.181  1.00  0.00    -0.280 A  
HETATM   19  C   UNL     1     -10.248   8.905  66.999  1.00  0.00    -0.345 A  
HETATM   20  C   UNL     1     -11.152  11.183  67.218  1.00  0.00    -0.302 A  
HETATM   21  C   UNL     1     -11.101   9.847  67.624  1.00  0.00    -0.170 A  
BRANCH  20  22
HETATM   22  O   UNL     1     -12.038  11.961  67.909  1.00  0.00    -0.558 OA 
HETATM   23  C   UNL     1     -11.849  12.058  69.317  1.00  0.00    -0.318 C  
ENDBRANCH  20  22
ENDBRANCH   9  12
ENDBRANCH   1   9
BRANCH   6  24
HETATM   24  C   UNL     1      -8.586   8.407  72.885  1.00  0.00    -0.232 C  
HETATM   25  C   UNL     1      -7.707   7.812  73.700  1.00  0.00    -0.184 C  
ENDBRANCH   6  24
TORSDOF 4
ENDMDL
MODEL       77
REMARK 921   NORMALIZED FREE ENERGY PREDICTED BY IDOCK:   -5.13 KCAL/MOL
REMARK 922        TOTAL FREE ENERGY PREDICTED BY IDOCK:   -7.12 KCAL/MOL
REMARK 923 INTER-LIGAND FREE ENERGY PREDICTED BY IDOCK:   -6.51 KCAL/MOL
REMARK 924 INTRA-LIGAND FREE ENERGY PREDICTED BY IDOCK:   -0.61 KCAL/MOL
REMARK 927      BINDING AFFINITY PREDICTED BY RF-SCORE:    0.00 PKD
ROOT
HETATM    1  C   UNL     1     -10.434  15.438  67.181  1.00  0.00    -0.290 C  
HETATM    2  N   UNL     1      -9.303  15.160  68.128  1.00  0.00    -0.190 NA 
HETATM    3  C   UNL     1     -11.159  16.749  67.582  1.00  0.00    -0.089 C  
HETATM    4  C   UNL     1      -8.378  16.305  68.246  1.00  0.00    -0.185 C  
HETATM    5  C   UNL     1     -10.596  17.272  68.917  1.00  0.00    -0.276 C  
HETATM    6  C   UNL     1     -10.652  16.170  70.005  1.00  0.00    -0.269 C  
HETATM    7  C   UNL     1      -9.112  17.592  68.653  1.00  0.00    -0.263 C  
HETATM    8  C   UNL     1      -9.893  14.923  69.476  1.00  0.00    -0.059 C  
ENDROOT
BRANCH   1   9
HETATM    9  C   UNL     1     -10.057  15.351  65.655  1.00  0.00    -0.376 C  
HETATM   10  O   UNL     1     -10.444  16.493  64.880  1.00  0.00    -0.653 OA 
HETATM   11  H   UNL     1     -10.216  16.440  63.960  1.00  0.00     0.000 HD 
BRANCH   9  12
HETATM   12  C   UNL     1     -10.653  14.109  64.995  1.00  0.00    -0.436 A  
HETATM   13  N   UNL     1     -11.915  11.893  63.817  1.00  0.00    -0.450 NA 
HETATM   14  C   UNL     1     -11.682  14.267  64.053  1.00  0.00    -0.190 A  
HETATM   15  C   UNL     1     -10.912  11.720  64.693  1.00  0.00    -0.310 A  
HETATM   16  C   UNL     1     -10.539  10.417  64.979  1.00  0.00    -0.006 A  
HETATM   17  C   UNL     1     -12.273  13.150  63.507  1.00  0.00    -0.476 A  
HETATM   18  C   UNL     1      -9.505  10.119  65.872  1.00  0.00    -0.249 A  
HETATM   19  C   UNL     1     -10.239  12.788  65.329  1.00  0.00    -0.296 A  
HETATM   20  C   UNL     1      -8.831  11.151  66.510  1.00  0.00    -0.171 A  
HETATM   21  C   UNL     1      -9.204  12.471  66.243  1.00  0.00    -0.133 A  
BRANCH  20  22
HETATM   22  O   UNL     1      -7.804  11.013  67.400  1.00  0.00    -0.112 OA 
HETATM   23  C   UNL     1      -7.765  11.932  68.487  1.00  0.00    -0.135 C  
ENDBRANCH  20  22
ENDBRANCH   9  12
ENDBRANCH   1   9
BRANCH   6  24
HETATM   24  C   UNL     1     -12.064  15.828  70.422  1.00  0.00    -0.399 C  
HETATM   25  C   UNL     1     -12.528  15.945  71.672  1.00  0.00    -0.502 C  
ENDBRANCH   6  24
TORSDOF 4
ENDMDL
MODEL       78
REMARK 921   NORMALIZED FREE ENERGY PREDICTED BY IDOCK:   -5.13 KCAL/MOL
REMARK 922        TOTAL FREE ENERGY PREDICTED BY IDOCK:   -7.12 KCAL/MOL
REMARK 923 INTER-LIGAND FREE ENERGY PREDICTED BY IDOCK:   -6.28 KCAL/MOL
REMARK 924 INTRA-LIGAND FREE ENERGY PREDICTED BY IDOCK:   -0.83 KCAL/MOL
REMARK 927      BINDING AFFINITY PREDICTED BY RF-SCORE:    0.00 PKD
ROOT
HETATM    1  C   UNL     1      -9.342  10.974  67.646  1.00  0.00    -0.157 C  
HETATM    2  N   UNL     1     -10.624  10.316  67.225  1.00  0.00    -0.257 NA 
HETATM    3  C   UNL     1      -8.474   9.985  68.465  1.00  0.00    -0.115 C  
HETATM    4  C   UNL     1     -10.391   9.043  66.514  1.00  0.00    -0.193 C  
HETATM    5  C   UNL     1      -9.263   8.690  68.730  1.00  0.00    -0.142 C  
HETATM    6  C   UNL     1     -10.633   9.005  69.382  1.00  0.00    -0.231 C  
HETATM    7  C   UNL     1      -9.538   8.072  67.345  1.00  0.00    -0.196 C  
HETATM    8  C   UNL     1     -11.393  10.000  68.462  1.00  0.00    -0.052 C  
ENDROOT
BRANCH   1   9
HETATM    9  C   UNL     1      -8.565  11.709  66.489  1.00  0.00    -0.164 C  
HETATM   10  O   UNL     1      -7.176  11.369  66.397  1.00  0.00    -0.296 OA 
HETATM   11  H   UNL     1      -6.708  11.812  65.700  1.00  0.00     0.000 HD 
BRANCH   9  12
HETATM   12  C   UNL     1      -8.673  13.228  66.612  1.00  0.00    -0.015 A  
HETATM   13  N   UNL     1      -8.856  16.001  67.019  1.00  0.00    -0.198 NA 
HETATM   14  C   UNL     1      -7.759  13.911  67.430  1.00  0.00    -0.165 A  
HETATM   15  C   UNL     1      -9.722  15.373  66.208  1.00  0.00    -0.299 A  
HETATM   16  C   UNL     1     -10.692  16.148  65.593  1.00  0.00    -0.321 A  
HETATM   17  C   UNL     1      -7.893  15.270  67.603  1.00  0.00    -0.159 A  
HETATM   18  C   UNL     1     -11.642  15.601  64.726  1.00  0.00    -0.218 A  
HETATM   19  C   UNL     1      -9.694  13.980  65.965  1.00  0.00    -0.280 A  
HETATM   20  C   UNL     1     -11.635  14.236  64.474  1.00  0.00    -0.387 A  
HETATM   21  C   UNL     1     -10.672  13.438  65.096  1.00  0.00    -0.339 A  
BRANCH  20  22
HETATM   22  O   UNL     1     -12.495  13.565  63.651  1.00  0.00    -0.718 OA 
HETATM   23  C   UNL     1     -12.325  12.154  63.555  1.00  0.00    -0.574 C  
ENDBRANCH  20  22
ENDBRANCH   9  12
ENDBRANCH   1   9
BRANCH   6  24
HETATM   24  C   UNL     1     -10.504   9.535  70.791  1.00  0.00    -0.384 C  
HETATM   25  C   UNL     1     -10.506   8.767  71.887  1.00  0.00    -0.423 C  
ENDBRANCH   6  24
TORSDOF 4
ENDMDL
MODEL       79
REMARK 921   NORMALIZED FREE ENERGY PREDICTED BY IDOCK:   -5.12 KCAL/MOL
REMARK 922        TOTAL FREE ENERGY PREDICTED BY IDOCK:   -7.10 KCAL/MOL
REMARK 923 INTER-LIGAND FREE ENERGY PREDICTED BY IDOCK:   -6.66 KCAL/MOL
REMARK 924 INTRA-LIGAND FREE ENERGY PREDICTED BY IDOCK:   -0.44 KCAL/MOL
REMARK 927      BINDING AFFINITY PREDICTED BY RF-SCORE:    0.00 PKD
ROOT
HETATM    1  C   UNL     1     -10.119  10.530  68.660  1.00  0.00    -0.180 C  
HETATM    2  N   UNL     1      -9.017  10.340  69.661  1.00  0.00    -0.164 NA 
HETATM    3  C   UNL     1     -10.405   9.200  67.918  1.00  0.00    -0.285 C  
HETATM    4  C   UNL     1      -9.290   9.223  70.587  1.00  0.00    -0.270 C  
HETATM    5  C   UNL     1      -9.365   8.139  68.323  1.00  0.00    -0.137 C  
HETATM    6  C   UNL     1      -7.925   8.674  68.113  1.00  0.00    -0.107 C  
HETATM    7  C   UNL     1      -9.561   7.911  69.834  1.00  0.00    -0.168 C  
HETATM    8  C   UNL     1      -7.777  10.000  68.906  1.00  0.00    -0.089 C  
ENDROOT
BRANCH   1   9
HETATM    9  C   UNL     1     -11.405  11.246  69.219  1.00  0.00    -0.287 C  
HETATM   10  O   UNL     1     -12.643  10.649  68.812  1.00  0.00    -0.733 OA 
HETATM   11  H   UNL     1     -13.418  11.081  69.149  1.00  0.00     0.000 HD 
BRANCH   9  12
HETATM   12  C   UNL     1     -11.444  12.724  68.832  1.00  0.00    -0.352 A  
HETATM   13  N   UNL     1     -11.669  15.456  68.219  1.00  0.00    -0.347 NA 
HETATM   14  C   UNL     1     -11.675  13.683  69.831  1.00  0.00    -0.346 A  
HETATM   15  C   UNL     1     -11.417  14.558  67.252  1.00  0.00    -0.365 A  
HETATM   16  C   UNL     1     -11.275  15.041  65.960  1.00  0.00    -0.310 A  
HETATM   17  C   UNL     1     -11.783  15.009  69.480  1.00  0.00    -0.322 A  
HETATM   18  C   UNL     1     -11.007  14.198  64.877  1.00  0.00    -0.405 A  
HETATM   19  C   UNL     1     -11.300  13.169  67.488  1.00  0.00    -0.336 A  
HETATM   20  C   UNL     1     -10.889  12.831  65.085  1.00  0.00    -0.291 A  
HETATM   21  C   UNL     1     -11.042  12.326  66.378  1.00  0.00    -0.345 A  
BRANCH  20  22
HETATM   22  O   UNL     1     -10.627  11.891  64.128  1.00  0.00    -0.292 OA 
HETATM   23  C   UNL     1     -10.109  10.643  64.576  1.00  0.00    -0.353 C  
ENDBRANCH  20  22
ENDBRANCH   9  12
ENDBRANCH   1   9
BRANCH   6  24
HETATM   24  C   UNL     1      -7.574   8.853  66.654  1.00  0.00    -0.089 C  
HETATM   25  C   UNL     1      -7.696   7.895  65.727  1.00  0.00    -0.090 C  
ENDBRANCH   6  24
TORSDOF 4
ENDMDL
MODEL       80
REMARK 921   NORMALIZED FREE ENERGY PREDICTED BY IDOCK:   -5.11 KCAL/MOL
REMARK 922        TOTAL FREE ENERGY PREDICTED BY IDOCK:   -7.09 KCAL/MOL
REMARK 923 INTER-LIGAND FREE ENERGY PREDICTED BY IDOCK:   -6.34 KCAL/MOL
REMARK 924 INTRA-LIGAND FREE ENERGY PREDICTED BY IDOCK:   -0.76 KCAL/MOL
REMARK 927      BINDING AFFINITY PREDICTED BY RF-SCORE:    0.00 PKD
ROOT
HETATM    1  C   UNL     1     -10.941  12.193  67.585  1.00  0.00    -0.243 C  
HETATM    2  N   UNL     1     -10.520  12.393  66.158  1.00  0.00    -0.243 NA 
HETATM    3  C   UNL     1     -11.949  13.292  68.006  1.00  0.00    -0.351 C  
HETATM    4  C   UNL     1     -11.674  12.484  65.243  1.00  0.00    -0.386 C  
HETATM    5  C   UNL     1     -12.082  14.339  66.885  1.00  0.00    -0.440 C  
HETATM    6  C   UNL     1     -10.691  14.889  66.480  1.00  0.00    -0.309 C  
HETATM    7  C   UNL     1     -12.657  13.585  65.670  1.00  0.00    -0.512 C  
HETATM    8  C   UNL     1      -9.789  13.689  66.083  1.00  0.00    -0.293 C  
ENDROOT
BRANCH   1   9
HETATM    9  C   UNL     1     -11.398  10.728  67.941  1.00  0.00    -0.299 C  
HETATM   10  O   UNL     1     -12.546  10.655  68.795  1.00  0.00    -0.733 OA 
HETATM   11  H   UNL     1     -12.822   9.772  69.010  1.00  0.00     0.000 HD 
BRANCH   9  12
HETATM   12  C   UNL     1     -10.272   9.927  68.594  1.00  0.00    -0.197 A  
HETATM   13  N   UNL     1      -8.172   8.599  69.904  1.00  0.00    -0.117 NA 
HETATM   14  C   UNL     1     -10.194   9.882  69.995  1.00  0.00    -0.319 A  
HETATM   15  C   UNL     1      -8.244   8.604  68.563  1.00  0.00    -0.122 A  
HETATM   16  C   UNL     1      -7.248   7.933  67.871  1.00  0.00    -0.091 A  
HETATM   17  C   UNL     1      -9.143   9.222  70.591  1.00  0.00    -0.253 A  
HETATM   18  C   UNL     1      -7.226   7.870  66.475  1.00  0.00    -0.083 A  
HETATM   19  C   UNL     1      -9.267   9.259  67.839  1.00  0.00    -0.140 A  
HETATM   20  C   UNL     1      -8.219   8.506  65.743  1.00  0.00    -0.125 A  
HETATM   21  C   UNL     1      -9.223   9.199  66.424  1.00  0.00    -0.233 A  
BRANCH  20  22
HETATM   22  O   UNL     1      -8.328   8.527  64.382  1.00  0.00    -0.161 OA 
HETATM   23  C   UNL     1      -7.175   8.147  63.638  1.00  0.00    -0.089 C  
ENDBRANCH  20  22
ENDBRANCH   9  12
ENDBRANCH   1   9
BRANCH   6  24
HETATM   24  C   UNL     1     -10.056  15.732  67.561  1.00  0.00    -0.245 C  
HETATM   25  C   UNL     1     -10.439  16.978  67.866  1.00  0.00    -0.354 C  
ENDBRANCH   6  24
TORSDOF 4
ENDMDL
MODEL       81
REMARK 921   NORMALIZED FREE ENERGY PREDICTED BY IDOCK:   -5.10 KCAL/MOL
REMARK 922        TOTAL FREE ENERGY PREDICTED BY IDOCK:   -7.08 KCAL/MOL
REMARK 923 INTER-LIGAND FREE ENERGY PREDICTED BY IDOCK:   -6.11 KCAL/MOL
REMARK 924 INTRA-LIGAND FREE ENERGY PREDICTED BY IDOCK:   -0.97 KCAL/MOL
REMARK 927      BINDING AFFINITY PREDICTED BY RF-SCORE:    0.00 PKD
ROOT
HETATM    1  C   UNL     1      -9.234   7.360  68.701  1.00  0.00    -0.143 C  
HETATM    2  N   UNL     1     -10.466   7.525  67.859  1.00  0.00    -0.210 NA 
HETATM    3  C   UNL     1      -8.001   7.094  67.800  1.00  0.00    -0.114 C  
HETATM    4  C   UNL     1     -10.295   8.554  66.815  1.00  0.00    -0.276 C  
HETATM    5  C   UNL     1      -8.447   6.923  66.337  1.00  0.00    -0.130 C  
HETATM    6  C   UNL     1      -9.549   5.839  66.222  1.00  0.00    -0.159 C  
HETATM    7  C   UNL     1      -9.074   8.270  65.927  1.00  0.00    -0.203 C  
HETATM    8  C   UNL     1     -10.716   6.228  67.169  1.00  0.00    -0.359 C  
ENDROOT
BRANCH   1   9
HETATM    9  C   UNL     1      -9.015   8.485  69.781  1.00  0.00    -0.145 C  
HETATM   10  O   UNL     1      -7.796   8.364  70.526  1.00  0.00    -0.080 OA 
HETATM   11  H   UNL     1      -7.664   9.043  71.177  1.00  0.00     0.000 HD 
BRANCH   9  12
HETATM   12  C   UNL     1     -10.172   8.549  70.775  1.00  0.00    -0.237 A  
HETATM   13  N   UNL     1     -12.342   8.492  72.559  1.00  0.00    -0.365 NA 
HETATM   14  C   UNL     1     -10.348   7.492  71.683  1.00  0.00    -0.217 A  
HETATM   15  C   UNL     1     -12.176   9.528  71.720  1.00  0.00    -0.387 A  
HETATM   16  C   UNL     1     -13.112  10.548  71.779  1.00  0.00    -0.570 A  
HETATM   17  C   UNL     1     -11.430   7.507  72.534  1.00  0.00    -0.327 A  
HETATM   18  C   UNL     1     -13.035  11.675  70.955  1.00  0.00    -0.227 A  
HETATM   19  C   UNL     1     -11.113   9.617  70.791  1.00  0.00    -0.403 A  
HETATM   20  C   UNL     1     -12.002  11.784  70.035  1.00  0.00    -0.344 A  
HETATM   21  C   UNL     1     -11.057  10.758  69.953  1.00  0.00    -0.339 A  
BRANCH  20  22
HETATM   22  O   UNL     1     -11.798  12.823  69.172  1.00  0.00    -0.298 OA 
HETATM   23  C   UNL     1     -11.193  12.513  67.921  1.00  0.00    -0.264 C  
ENDBRANCH  20  22
ENDBRANCH   9  12
ENDBRANCH   1   9
BRANCH   6  24
HETATM   24  C   UNL     1      -9.035   4.448  66.512  1.00  0.00    -0.117 C  
HETATM   25  C   UNL     1      -9.546   3.636  67.445  1.00  0.00    -0.197 C  
ENDBRANCH   6  24
TORSDOF 4
ENDMDL
MODEL       82
REMARK 921   NORMALIZED FREE ENERGY PREDICTED BY IDOCK:   -5.10 KCAL/MOL
REMARK 922        TOTAL FREE ENERGY PREDICTED BY IDOCK:   -7.08 KCAL/MOL
REMARK 923 INTER-LIGAND FREE ENERGY PREDICTED BY IDOCK:   -6.30 KCAL/MOL
REMARK 924 INTRA-LIGAND FREE ENERGY PREDICTED BY IDOCK:   -0.78 KCAL/MOL
REMARK 927      BINDING AFFINITY PREDICTED BY RF-SCORE:    0.00 PKD
ROOT
HETATM    1  C   UNL     1     -10.108  11.674  67.295  1.00  0.00    -0.199 C  
HETATM    2  N   UNL     1     -10.494  10.356  67.902  1.00  0.00    -0.194 NA 
HETATM    3  C   UNL     1      -8.928  11.486  66.309  1.00  0.00    -0.199 C  
HETATM    4  C   UNL     1     -10.769   9.329  66.878  1.00  0.00    -0.094 C  
HETATM    5  C   UNL     1      -8.413  10.037  66.378  1.00  0.00    -0.132 C  
HETATM    6  C   UNL     1      -8.075   9.643  67.838  1.00  0.00    -0.106 C  
HETATM    7  C   UNL     1      -9.585   9.150  65.916  1.00  0.00    -0.343 C  
HETATM    8  C   UNL     1      -9.337   9.879  68.711  1.00  0.00    -0.157 C  
ENDROOT
BRANCH   1   9
HETATM    9  C   UNL     1     -11.309  12.511  66.712  1.00  0.00    -0.334 C  
HETATM   10  O   UNL     1     -11.451  12.434  65.288  1.00  0.00    -0.320 OA 
HETATM   11  H   UNL     1     -12.175  12.938  64.937  1.00  0.00     0.000 HD 
BRANCH   9  12
HETATM   12  C   UNL     1     -11.211  13.985  67.099  1.00  0.00    -0.327 A  
HETATM   13  N   UNL     1     -10.865  16.700  67.731  1.00  0.00    -0.325 NA 
HETATM   14  C   UNL     1     -10.782  14.913  66.136  1.00  0.00    -0.317 A  
HETATM   15  C   UNL     1     -11.305  15.835  68.659  1.00  0.00    -0.369 A  
HETATM   16  C   UNL     1     -11.577  16.341  69.921  1.00  0.00    -0.140 A  
HETATM   17  C   UNL     1     -10.623  16.233  66.496  1.00  0.00    -0.256 A  
HETATM   18  C   UNL     1     -12.044  15.532  70.961  1.00  0.00    -0.438 A  
HETATM   19  C   UNL     1     -11.494  14.456  68.412  1.00  0.00    -0.329 A  
HETATM   20  C   UNL     1     -12.235  14.176  70.743  1.00  0.00    -0.365 A  
HETATM   21  C   UNL     1     -11.954  13.646  69.480  1.00  0.00    -0.397 A  
BRANCH  20  22
HETATM   22  O   UNL     1     -12.686  13.268  71.659  1.00  0.00    -0.306 OA 
HETATM   23  C   UNL     1     -13.969  13.511  72.227  1.00  0.00    -0.539 C  
ENDBRANCH  20  22
ENDBRANCH   9  12
ENDBRANCH   1   9
BRANCH   6  24
HETATM   24  C   UNL     1      -6.874  10.382  68.381  1.00  0.00    -0.064 C  
HETATM   25  C   UNL     1      -6.265  10.083  69.535  1.00  0.00    -0.046 C  
ENDBRANCH   6  24
TORSDOF 4
ENDMDL
MODEL       83
REMARK 921   NORMALIZED FREE ENERGY PREDICTED BY IDOCK:   -5.10 KCAL/MOL
REMARK 922        TOTAL FREE ENERGY PREDICTED BY IDOCK:   -7.07 KCAL/MOL
REMARK 923 INTER-LIGAND FREE ENERGY PREDICTED BY IDOCK:   -6.17 KCAL/MOL
REMARK 924 INTRA-LIGAND FREE ENERGY PREDICTED BY IDOCK:   -0.91 KCAL/MOL
REMARK 927      BINDING AFFINITY PREDICTED BY RF-SCORE:    0.00 PKD
ROOT
HETATM    1  C   UNL     1      -8.318   9.452  66.962  1.00  0.00    -0.127 C  
HETATM    2  N   UNL     1      -9.298   9.488  68.099  1.00  0.00    -0.133 NA 
HETATM    3  C   UNL     1      -8.279   8.036  66.332  1.00  0.00    -0.113 C  
HETATM    4  C   UNL     1     -10.636   9.008  67.700  1.00  0.00    -0.231 C  
HETATM    5  C   UNL     1      -9.135   7.067  67.168  1.00  0.00    -0.137 C  
HETATM    6  C   UNL     1      -8.706   7.100  68.656  1.00  0.00    -0.127 C  
HETATM    7  C   UNL     1     -10.578   7.601  67.087  1.00  0.00    -0.410 C  
HETATM    8  C   UNL     1      -8.792   8.567  69.156  1.00  0.00    -0.142 C  
ENDROOT
BRANCH   1   9
HETATM    9  C   UNL     1      -8.476  10.620  65.916  1.00  0.00    -0.167 C  
HETATM   10  O   UNL     1      -7.343  10.805  65.058  1.00  0.00    -0.352 OA 
HETATM   11  H   UNL     1      -7.438  11.509  64.427  1.00  0.00     0.000 HD 
BRANCH   9  12
HETATM   12  C   UNL     1      -8.775  11.953  66.598  1.00  0.00    -0.185 A  
HETATM   13  N   UNL     1      -9.269  14.331  68.010  1.00  0.00    -0.186 NA 
HETATM   14  C   UNL     1      -7.816  12.506  67.462  1.00  0.00    -0.168 A  
HETATM   15  C   UNL     1     -10.188  13.837  67.165  1.00  0.00    -0.244 A  
HETATM   16  C   UNL     1     -11.370  14.547  67.028  1.00  0.00    -0.359 A  
HETATM   17  C   UNL     1      -8.107  13.670  68.136  1.00  0.00    -0.156 A  
HETATM   18  C   UNL     1     -12.394  14.127  66.173  1.00  0.00    -0.463 A  
HETATM   19  C   UNL     1     -10.009  12.642  66.430  1.00  0.00    -0.262 A  
HETATM   20  C   UNL     1     -12.242  12.957  65.443  1.00  0.00    -0.478 A  
HETATM   21  C   UNL     1     -11.062  12.222  65.580  1.00  0.00    -0.348 A  
BRANCH  20  22
HETATM   22  O   UNL     1     -13.151  12.428  64.571  1.00  0.00    -0.823 OA 
HETATM   23  C   UNL     1     -12.646  11.928  63.338  1.00  0.00    -0.431 C  
ENDBRANCH  20  22
ENDBRANCH   9  12
ENDBRANCH   1   9
BRANCH   6  24
HETATM   24  C   UNL     1      -7.332   6.512  68.884  1.00  0.00    -0.093 C  
HETATM   25  C   UNL     1      -6.313   7.176  69.441  1.00  0.00    -0.035 C  
ENDBRANCH   6  24
TORSDOF 4
ENDMDL
MODEL       84
REMARK 921   NORMALIZED FREE ENERGY PREDICTED BY IDOCK:   -5.10 KCAL/MOL
REMARK 922        TOTAL FREE ENERGY PREDICTED BY IDOCK:   -7.07 KCAL/MOL
REMARK 923 INTER-LIGAND FREE ENERGY PREDICTED BY IDOCK:   -6.60 KCAL/MOL
REMARK 924 INTRA-LIGAND FREE ENERGY PREDICTED BY IDOCK:   -0.48 KCAL/MOL
REMARK 927      BINDING AFFINITY PREDICTED BY RF-SCORE:    0.00 PKD
ROOT
HETATM    1  C   UNL     1     -10.683  13.721  67.541  1.00  0.00    -0.256 C  
HETATM    2  N   UNL     1      -9.282  14.259  67.578  1.00  0.00    -0.191 NA 
HETATM    3  C   UNL     1     -11.703  14.886  67.473  1.00  0.00    -0.328 C  
HETATM    4  C   UNL     1      -9.010  15.186  66.462  1.00  0.00    -0.291 C  
HETATM    5  C   UNL     1     -10.973  16.233  67.627  1.00  0.00    -0.245 C  
HETATM    6  C   UNL     1     -10.101  16.241  68.908  1.00  0.00    -0.251 C  
HETATM    7  C   UNL     1     -10.025  16.339  66.417  1.00  0.00    -0.315 C  
HETATM    8  C   UNL     1      -9.130  15.030  68.845  1.00  0.00    -0.202 C  
ENDROOT
BRANCH   1   9
HETATM    9  C   UNL     1     -10.928  12.586  66.477  1.00  0.00    -0.266 C  
HETATM   10  O   UNL     1     -12.308  12.320  66.199  1.00  0.00    -0.588 OA 
HETATM   11  H   UNL     1     -12.456  11.635  65.558  1.00  0.00     0.000 HD 
BRANCH   9  12
HETATM   12  C   UNL     1     -10.267  11.272  66.889  1.00  0.00    -0.254 A  
HETATM   13  N   UNL     1      -9.081   8.794  67.477  1.00  0.00    -0.133 NA 
HETATM   14  C   UNL     1      -9.291  10.710  66.052  1.00  0.00    -0.219 A  
HETATM   15  C   UNL     1      -9.990   9.329  68.308  1.00  0.00    -0.173 A  
HETATM   16  C   UNL     1     -10.307   8.609  69.449  1.00  0.00    -0.221 A  
HETATM   17  C   UNL     1      -8.742   9.490  66.380  1.00  0.00    -0.135 A  
HETATM   18  C   UNL     1     -11.237   9.072  70.385  1.00  0.00    -0.275 A  
HETATM   19  C   UNL     1     -10.633  10.566  68.070  1.00  0.00    -0.251 A  
HETATM   20  C   UNL     1     -11.881  10.282  70.172  1.00  0.00    -0.263 A  
HETATM   21  C   UNL     1     -11.583  11.014  69.020  1.00  0.00    -0.392 A  
BRANCH  20  22
HETATM   22  O   UNL     1     -12.805  10.859  70.997  1.00  0.00    -0.368 OA 
HETATM   23  C   UNL     1     -13.188  10.119  72.152  1.00  0.00    -0.362 C  
ENDBRANCH  20  22
ENDBRANCH   9  12
ENDBRANCH   1   9
BRANCH   6  24
HETATM   24  C   UNL     1     -10.922  16.233  70.176  1.00  0.00    -0.335 C  
HETATM   25  C   UNL     1     -11.075  15.164  70.967  1.00  0.00    -0.283 C  
ENDBRANCH   6  24
TORSDOF 4
ENDMDL
MODEL       85
REMARK 921   NORMALIZED FREE ENERGY PREDICTED BY IDOCK:   -5.09 KCAL/MOL
REMARK 922        TOTAL FREE ENERGY PREDICTED BY IDOCK:   -7.06 KCAL/MOL
REMARK 923 INTER-LIGAND FREE ENERGY PREDICTED BY IDOCK:   -6.52 KCAL/MOL
REMARK 924 INTRA-LIGAND FREE ENERGY PREDICTED BY IDOCK:   -0.54 KCAL/MOL
REMARK 927      BINDING AFFINITY PREDICTED BY RF-SCORE:    0.00 PKD
ROOT
HETATM    1  C   UNL     1     -10.226  13.704  65.827  1.00  0.00    -0.308 C  
HETATM    2  N   UNL     1     -11.526  13.112  66.291  1.00  0.00    -0.320 NA 
HETATM    3  C   UNL     1      -9.971  13.340  64.342  1.00  0.00    -0.040 C  
HETATM    4  C   UNL     1     -12.654  13.485  65.414  1.00  0.00    -0.483 C  
HETATM    5  C   UNL     1     -11.047  12.354  63.851  1.00  0.00    -0.475 C  
HETATM    6  C   UNL     1     -11.133  11.123  64.789  1.00  0.00    -0.136 C  
HETATM    7  C   UNL     1     -12.387  13.109  63.949  1.00  0.00    -0.439 C  
HETATM    8  C   UNL     1     -11.390  11.629  66.234  1.00  0.00    -0.227 C  
ENDROOT
BRANCH   1   9
HETATM    9  C   UNL     1     -10.039  15.232  66.158  1.00  0.00    -0.296 C  
HETATM   10  O   UNL     1     -10.038  16.093  65.012  1.00  0.00    -0.478 OA 
HETATM   11  H   UNL     1      -9.926  17.015  65.212  1.00  0.00     0.000 HD 
BRANCH   9  12
HETATM   12  C   UNL     1      -8.754  15.488  66.942  1.00  0.00    -0.281 A  
HETATM   13  N   UNL     1      -6.412  15.795  68.464  1.00  0.00    -0.105 NA 
HETATM   14  C   UNL     1      -7.788  14.472  67.014  1.00  0.00    -0.015 A  
HETATM   15  C   UNL     1      -7.309  16.792  68.384  1.00  0.00    -0.198 A  
HETATM   16  C   UNL     1      -7.025  17.958  69.077  1.00  0.00    -0.243 A  
HETATM   17  C   UNL     1      -6.659  14.668  67.778  1.00  0.00    -0.171 A  
HETATM   18  C   UNL     1      -7.885  19.060  69.061  1.00  0.00    -0.268 A  
HETATM   19  C   UNL     1      -8.511  16.702  67.645  1.00  0.00    -0.200 A  
HETATM   20  C   UNL     1      -9.071  18.995  68.343  1.00  0.00    -0.347 A  
HETATM   21  C   UNL     1      -9.379  17.822  67.650  1.00  0.00    -0.250 A  
BRANCH  20  22
HETATM   22  O   UNL     1     -10.001  19.989  68.234  1.00  0.00    -0.397 OA 
HETATM   23  C   UNL     1     -10.936  19.882  67.165  1.00  0.00    -0.125 C  
ENDBRANCH  20  22
ENDBRANCH   9  12
ENDBRANCH   1   9
BRANCH   6  24
HETATM   24  C   UNL     1      -9.906  10.244  64.715  1.00  0.00    -0.403 C  
HETATM   25  C   UNL     1      -9.188  10.045  63.603  1.00  0.00    -0.314 C  
ENDBRANCH   6  24
TORSDOF 4
ENDMDL
MODEL       86
REMARK 921   NORMALIZED FREE ENERGY PREDICTED BY IDOCK:   -5.09 KCAL/MOL
REMARK 922        TOTAL FREE ENERGY PREDICTED BY IDOCK:   -7.06 KCAL/MOL
REMARK 923 INTER-LIGAND FREE ENERGY PREDICTED BY IDOCK:   -6.71 KCAL/MOL
REMARK 924 INTRA-LIGAND FREE ENERGY PREDICTED BY IDOCK:   -0.35 KCAL/MOL
REMARK 927      BINDING AFFINITY PREDICTED BY RF-SCORE:    0.00 PKD
ROOT
HETATM    1  C   UNL     1      -9.984  10.474  69.091  1.00  0.00    -0.220 C  
HETATM    2  N   UNL     1      -9.665   9.273  69.933  1.00  0.00    -0.188 NA 
HETATM    3  C   UNL     1      -9.163  10.441  67.777  1.00  0.00    -0.148 C  
HETATM    4  C   UNL     1      -9.836   8.009  69.190  1.00  0.00    -0.178 C  
HETATM    5  C   UNL     1      -8.160   9.274  67.814  1.00  0.00    -0.104 C  
HETATM    6  C   UNL     1      -7.287   9.341  69.093  1.00  0.00    -0.071 C  
HETATM    7  C   UNL     1      -9.008   7.990  67.896  1.00  0.00    -0.129 C  
HETATM    8  C   UNL     1      -8.231   9.368  70.326  1.00  0.00    -0.175 C  
ENDROOT
BRANCH   1   9
HETATM    9  C   UNL     1     -11.521  10.749  68.885  1.00  0.00    -0.293 C  
HETATM   10  O   UNL     1     -11.846  11.425  67.664  1.00  0.00    -0.609 OA 
HETATM   11  H   UNL     1     -12.773  11.591  67.540  1.00  0.00     0.000 HD 
BRANCH   9  12
HETATM   12  C   UNL     1     -12.112  11.553  70.042  1.00  0.00    -0.408 A  
HETATM   13  N   UNL     1     -13.352  12.934  72.151  1.00  0.00    -0.530 NA 
HETATM   14  C   UNL     1     -12.768  10.871  71.079  1.00  0.00    -0.505 A  
HETATM   15  C   UNL     1     -12.704  13.605  71.184  1.00  0.00    -0.353 A  
HETATM   16  C   UNL     1     -12.678  14.987  71.280  1.00  0.00    -0.419 A  
HETATM   17  C   UNL     1     -13.365  11.593  72.088  1.00  0.00    -0.205 A  
HETATM   18  C   UNL     1     -12.029  15.785  70.333  1.00  0.00    -0.385 A  
HETATM   19  C   UNL     1     -12.066  12.975  70.091  1.00  0.00    -0.377 A  
HETATM   20  C   UNL     1     -11.397  15.190  69.251  1.00  0.00    -0.300 A  
HETATM   21  C   UNL     1     -11.425  13.798  69.132  1.00  0.00    -0.346 A  
BRANCH  20  22
HETATM   22  O   UNL     1     -10.724  15.838  68.255  1.00  0.00    -0.260 OA 
HETATM   23  C   UNL     1     -10.843  15.302  66.941  1.00  0.00    -0.317 C  
ENDBRANCH  20  22
ENDBRANCH   9  12
ENDBRANCH   1   9
BRANCH   6  24
HETATM   24  C   UNL     1      -6.336  10.516  69.093  1.00  0.00    -0.051 C  
HETATM   25  C   UNL     1      -5.971  11.189  70.191  1.00  0.00    -0.136 C  
ENDBRANCH   6  24
TORSDOF 4
ENDMDL
MODEL       87
REMARK 921   NORMALIZED FREE ENERGY PREDICTED BY IDOCK:   -5.08 KCAL/MOL
REMARK 922        TOTAL FREE ENERGY PREDICTED BY IDOCK:   -7.06 KCAL/MOL
REMARK 923 INTER-LIGAND FREE ENERGY PREDICTED BY IDOCK:   -6.28 KCAL/MOL
REMARK 924 INTRA-LIGAND FREE ENERGY PREDICTED BY IDOCK:   -0.78 KCAL/MOL
REMARK 927      BINDING AFFINITY PREDICTED BY RF-SCORE:    0.00 PKD
ROOT
HETATM    1  C   UNL     1      -9.803  11.700  67.588  1.00  0.00    -0.186 C  
HETATM    2  N   UNL     1      -9.813  10.218  67.828  1.00  0.00    -0.166 NA 
HETATM    3  C   UNL     1      -8.989  12.032  66.312  1.00  0.00    -0.129 C  
HETATM    4  C   UNL     1     -10.278   9.464  66.647  1.00  0.00    -0.249 C  
HETATM    5  C   UNL     1      -8.310  10.758  65.777  1.00  0.00    -0.158 C  
HETATM    6  C   UNL     1      -7.476  10.072  66.888  1.00  0.00    -0.095 C  
HETATM    7  C   UNL     1      -9.454   9.799  65.395  1.00  0.00    -0.333 C  
HETATM    8  C   UNL     1      -8.408   9.798  68.099  1.00  0.00    -0.110 C  
ENDROOT
BRANCH   1   9
HETATM    9  C   UNL     1     -11.218  12.389  67.649  1.00  0.00    -0.288 C  
HETATM   10  O   UNL     1     -12.288  11.515  68.031  1.00  0.00    -0.445 OA 
HETATM   11  H   UNL     1     -13.142  11.930  68.067  1.00  0.00     0.000 HD 
BRANCH   9  12
HETATM   12  C   UNL     1     -11.590  13.036  66.316  1.00  0.00    -0.408 A  
HETATM   13  N   UNL     1     -12.197  14.082  63.780  1.00  0.00    -0.651 NA 
HETATM   14  C   UNL     1     -12.209  12.252  65.329  1.00  0.00    -0.313 A  
HETATM   15  C   UNL     1     -11.632  14.857  64.720  1.00  0.00    -0.410 A  
HETATM   16  C   UNL     1     -11.370  16.175  64.382  1.00  0.00    -0.210 A  
HETATM   17  C   UNL     1     -12.482  12.809  64.100  1.00  0.00    -0.369 A  
HETATM   18  C   UNL     1     -10.788  17.072  65.283  1.00  0.00    -0.079 A  
HETATM   19  C   UNL     1     -11.292  14.394  66.012  1.00  0.00    -0.335 A  
HETATM   20  C   UNL     1     -10.445  16.641  66.556  1.00  0.00    -0.262 A  
HETATM   21  C   UNL     1     -10.690  15.311  66.909  1.00  0.00    -0.313 A  
BRANCH  20  22
HETATM   22  O   UNL     1      -9.876  17.401  67.538  1.00  0.00    -0.264 OA 
HETATM   23  C   UNL     1     -10.246  18.775  67.584  1.00  0.00    -0.399 C  
ENDBRANCH  20  22
ENDBRANCH   9  12
ENDBRANCH   1   9
BRANCH   6  24
HETATM   24  C   UNL     1      -6.261  10.877  67.290  1.00  0.00    -0.064 C  
HETATM   25  C   UNL     1      -6.045  11.347  68.525  1.00  0.00    -0.045 C  
ENDBRANCH   6  24
TORSDOF 4
ENDMDL
MODEL       88
REMARK 921   NORMALIZED FREE ENERGY PREDICTED BY IDOCK:   -5.07 KCAL/MOL
REMARK 922        TOTAL FREE ENERGY PREDICTED BY IDOCK:   -7.04 KCAL/MOL
REMARK 923 INTER-LIGAND FREE ENERGY PREDICTED BY IDOCK:   -6.28 KCAL/MOL
REMARK 924 INTRA-LIGAND FREE ENERGY PREDICTED BY IDOCK:   -0.76 KCAL/MOL
REMARK 927      BINDING AFFINITY PREDICTED BY RF-SCORE:    0.00 PKD
ROOT
HETATM    1  C   UNL     1      -9.510  13.312  68.395  1.00  0.00    -0.172 C  
HETATM    2  N   UNL     1      -9.543  14.513  67.495  1.00  0.00    -0.208 NA 
HETATM    3  C   UNL     1     -10.943  12.758  68.603  1.00  0.00    -0.295 C  
HETATM    4  C   UNL     1     -10.235  14.237  66.220  1.00  0.00    -0.301 C  
HETATM    5  C   UNL     1     -11.970  13.703  67.954  1.00  0.00    -0.382 C  
HETATM    6  C   UNL     1     -11.782  15.154  68.467  1.00  0.00    -0.347 C  
HETATM    7  C   UNL     1     -11.655  13.698  66.446  1.00  0.00    -0.375 C  
HETATM    8  C   UNL     1     -10.313  15.579  68.197  1.00  0.00    -0.237 C  
ENDROOT
BRANCH   1   9
HETATM    9  C   UNL     1      -8.446  12.219  68.001  1.00  0.00    -0.171 C  
HETATM   10  O   UNL     1      -7.554  12.611  66.951  1.00  0.00    -0.373 OA 
HETATM   11  H   UNL     1      -6.912  11.952  66.713  1.00  0.00     0.000 HD 
BRANCH   9  12
HETATM   12  C   UNL     1      -9.110  10.905  67.593  1.00  0.00    -0.148 A  
HETATM   13  N   UNL     1     -10.453   8.587  66.748  1.00  0.00    -0.285 NA 
HETATM   14  C   UNL     1      -9.454  10.707  66.246  1.00  0.00    -0.213 A  
HETATM   15  C   UNL     1     -10.106   8.743  68.036  1.00  0.00    -0.196 A  
HETATM   16  C   UNL     1     -10.437   7.720  68.911  1.00  0.00    -0.208 A  
HETATM   17  C   UNL     1     -10.116   9.556  65.882  1.00  0.00    -0.214 A  
HETATM   18  C   UNL     1     -10.121   7.774  70.271  1.00  0.00    -0.195 A  
HETATM   19  C   UNL     1      -9.437   9.886  68.531  1.00  0.00    -0.149 A  
HETATM   20  C   UNL     1      -9.466   8.886  70.780  1.00  0.00    -0.228 A  
HETATM   21  C   UNL     1      -9.136   9.933  69.915  1.00  0.00    -0.241 A  
BRANCH  20  22
HETATM   22  O   UNL     1      -9.092   9.076  72.080  1.00  0.00    -0.372 OA 
HETATM   23  C   UNL     1      -8.304   8.053  72.679  1.00  0.00    -0.166 C  
ENDBRANCH  20  22
ENDBRANCH   9  12
ENDBRANCH   1   9
BRANCH   6  24
HETATM   24  C   UNL     1     -12.150  15.313  69.924  1.00  0.00    -0.375 C  
HETATM   25  C   UNL     1     -11.320  15.784  70.863  1.00  0.00    -0.426 C  
ENDBRANCH   6  24
TORSDOF 4
ENDMDL
MODEL       89
REMARK 921   NORMALIZED FREE ENERGY PREDICTED BY IDOCK:   -5.01 KCAL/MOL
REMARK 922        TOTAL FREE ENERGY PREDICTED BY IDOCK:   -6.96 KCAL/MOL
REMARK 923 INTER-LIGAND FREE ENERGY PREDICTED BY IDOCK:   -6.14 KCAL/MOL
REMARK 924 INTRA-LIGAND FREE ENERGY PREDICTED BY IDOCK:   -0.82 KCAL/MOL
REMARK 927      BINDING AFFINITY PREDICTED BY RF-SCORE:    0.00 PKD
ROOT
HETATM    1  C   UNL     1      -9.881   6.544  71.725  1.00  0.00    -0.165 C  
HETATM    2  N   UNL     1      -8.421   6.198  71.746  1.00  0.00    -0.129 NA 
HETATM    3  C   UNL     1     -10.740   5.259  71.844  1.00  0.00    -0.252 C  
HETATM    4  C   UNL     1      -8.057   5.380  72.921  1.00  0.00    -0.109 C  
HETATM    5  C   UNL     1      -9.833   4.016  71.786  1.00  0.00    -0.249 C  
HETATM    6  C   UNL     1      -8.934   4.051  70.524  1.00  0.00    -0.159 C  
HETATM    7  C   UNL     1      -8.911   4.107  73.017  1.00  0.00    -0.116 C  
HETATM    8  C   UNL     1      -8.135   5.383  70.531  1.00  0.00    -0.106 C  
ENDROOT
BRANCH   1   9
HETATM    9  C   UNL     1     -10.302   7.696  72.714  1.00  0.00    -0.295 C  
HETATM   10  O   UNL     1     -10.848   7.240  73.959  1.00  0.00    -0.556 OA 
HETATM   11  H   UNL     1     -11.102   7.934  74.555  1.00  0.00     0.000 HD 
BRANCH   9  12
HETATM   12  C   UNL     1     -11.311   8.649  72.077  1.00  0.00    -0.432 A  
HETATM   13  N   UNL     1     -13.286  10.261  70.896  1.00  0.00    -0.362 NA 
HETATM   14  C   UNL     1     -12.628   8.669  72.563  1.00  0.00    -0.367 A  
HETATM   15  C   UNL     1     -12.025  10.279  70.434  1.00  0.00    -0.303 A  
HETATM   16  C   UNL     1     -11.752  11.119  69.366  1.00  0.00    -0.402 A  
HETATM   17  C   UNL     1     -13.562   9.473  71.947  1.00  0.00    -0.391 A  
HETATM   18  C   UNL     1     -10.474  11.222  68.808  1.00  0.00    -0.232 A  
HETATM   19  C   UNL     1     -10.985   9.488  70.974  1.00  0.00    -0.424 A  
HETATM   20  C   UNL     1      -9.438  10.454  69.321  1.00  0.00    -0.198 A  
HETATM   21  C   UNL     1      -9.699   9.592  70.389  1.00  0.00    -0.328 A  
BRANCH  20  22
HETATM   22  O   UNL     1      -8.145  10.451  68.881  1.00  0.00    -0.111 OA 
HETATM   23  C   UNL     1      -7.741  11.542  68.060  1.00  0.00    -0.119 C  
ENDBRANCH  20  22
ENDBRANCH   9  12
ENDBRANCH   1   9
BRANCH   6  24
HETATM   24  C   UNL     1      -9.716   3.876  69.242  1.00  0.00    -0.157 C  
HETATM   25  C   UNL     1      -9.794   4.800  68.276  1.00  0.00    -0.181 C  
ENDBRANCH   6  24
TORSDOF 4
ENDMDL
MODEL       90
REMARK 921   NORMALIZED FREE ENERGY PREDICTED BY IDOCK:   -5.00 KCAL/MOL
REMARK 922        TOTAL FREE ENERGY PREDICTED BY IDOCK:   -6.95 KCAL/MOL
REMARK 923 INTER-LIGAND FREE ENERGY PREDICTED BY IDOCK:   -6.40 KCAL/MOL
REMARK 924 INTRA-LIGAND FREE ENERGY PREDICTED BY IDOCK:   -0.55 KCAL/MOL
REMARK 927      BINDING AFFINITY PREDICTED BY RF-SCORE:    0.00 PKD
ROOT
HETATM    1  C   UNL     1     -10.410   8.273  69.540  1.00  0.00    -0.219 C  
HETATM    2  N   UNL     1     -11.156   7.087  70.079  1.00  0.00    -0.275 NA 
HETATM    3  C   UNL     1      -8.882   8.050  69.668  1.00  0.00    -0.141 C  
HETATM    4  C   UNL     1     -10.714   5.821  69.460  1.00  0.00    -0.338 C  
HETATM    5  C   UNL     1      -8.605   6.754  70.453  1.00  0.00    -0.146 C  
HETATM    6  C   UNL     1      -9.350   6.766  71.812  1.00  0.00    -0.147 C  
HETATM    7  C   UNL     1      -9.199   5.613  69.606  1.00  0.00    -0.163 C  
HETATM    8  C   UNL     1     -10.861   6.996  71.537  1.00  0.00    -0.230 C  
ENDROOT
BRANCH   1   9
HETATM    9  C   UNL     1     -10.874   8.754  68.114  1.00  0.00     0.022 C  
HETATM   10  O   UNL     1     -10.146   8.174  67.025  1.00  0.00    -0.223 OA 
HETATM   11  H   UNL     1     -10.425   8.464  66.165  1.00  0.00     0.000 HD 
BRANCH   9  12
HETATM   12  C   UNL     1     -10.798  10.274  67.977  1.00  0.00    -0.325 A  
HETATM   13  N   UNL     1     -10.478  13.050  67.693  1.00  0.00    -0.223 NA 
HETATM   14  C   UNL     1     -10.104  10.824  66.887  1.00  0.00    -0.255 A  
HETATM   15  C   UNL     1     -11.171  12.546  68.727  1.00  0.00    -0.273 A  
HETATM   16  C   UNL     1     -11.711  13.449  69.629  1.00  0.00    -0.375 A  
HETATM   17  C   UNL     1      -9.970  12.192  66.795  1.00  0.00    -0.203 A  
HETATM   18  C   UNL     1     -12.455  13.036  70.739  1.00  0.00    -0.384 A  
HETATM   19  C   UNL     1     -11.364  11.161  68.936  1.00  0.00    -0.344 A  
HETATM   20  C   UNL     1     -12.656  11.682  70.965  1.00  0.00    -0.331 A  
HETATM   21  C   UNL     1     -12.107  10.757  70.072  1.00  0.00    -0.423 A  
BRANCH  20  22
HETATM   22  O   UNL     1     -13.359  11.134  72.000  1.00  0.00    -0.454 OA 
HETATM   23  C   UNL     1     -13.281   9.721  72.156  1.00  0.00    -0.436 C  
ENDBRANCH  20  22
ENDBRANCH   9  12
ENDBRANCH   1   9
BRANCH   6  24
HETATM   24  C   UNL     1      -8.796   7.789  72.776  1.00  0.00    -0.227 C  
HETATM   25  C   UNL     1      -8.680   7.595  74.095  1.00  0.00    -0.290 C  
ENDBRANCH   6  24
TORSDOF 4
ENDMDL
MODEL       91
REMARK 921   NORMALIZED FREE ENERGY PREDICTED BY IDOCK:   -5.00 KCAL/MOL
REMARK 922        TOTAL FREE ENERGY PREDICTED BY IDOCK:   -6.95 KCAL/MOL
REMARK 923 INTER-LIGAND FREE ENERGY PREDICTED BY IDOCK:   -6.26 KCAL/MOL
REMARK 924 INTRA-LIGAND FREE ENERGY PREDICTED BY IDOCK:   -0.70 KCAL/MOL
REMARK 927      BINDING AFFINITY PREDICTED BY RF-SCORE:    0.00 PKD
ROOT
HETATM    1  C   UNL     1     -10.275  11.912  67.556  1.00  0.00    -0.196 C  
HETATM    2  N   UNL     1     -10.759  13.030  68.435  1.00  0.00    -0.249 NA 
HETATM    3  C   UNL     1      -9.845  12.465  66.174  1.00  0.00    -0.263 C  
HETATM    4  C   UNL     1      -9.772  14.122  68.543  1.00  0.00    -0.219 C  
HETATM    5  C   UNL     1     -10.196  13.960  66.074  1.00  0.00    -0.317 C  
HETATM    6  C   UNL     1     -11.693  14.195  66.401  1.00  0.00    -0.404 C  
HETATM    7  C   UNL     1      -9.365  14.663  67.164  1.00  0.00    -0.231 C  
HETATM    8  C   UNL     1     -11.984  13.598  67.804  1.00  0.00    -0.352 C  
ENDROOT
BRANCH   1   9
HETATM    9  C   UNL     1      -9.219  10.954  68.226  1.00  0.00    -0.161 C  
HETATM   10  O   UNL     1      -7.901  11.043  67.672  1.00  0.00    -0.110 OA 
HETATM   11  H   UNL     1      -7.264  10.466  68.075  1.00  0.00     0.000 HD 
BRANCH   9  12
HETATM   12  C   UNL     1      -9.660   9.493  68.163  1.00  0.00    -0.153 A  
HETATM   13  N   UNL     1     -10.617   6.861  67.948  1.00  0.00    -0.214 NA 
HETATM   14  C   UNL     1     -10.053   8.954  66.927  1.00  0.00    -0.343 A  
HETATM   15  C   UNL     1     -10.219   7.347  69.135  1.00  0.00    -0.196 A  
HETATM   16  C   UNL     1     -10.301   6.498  70.228  1.00  0.00    -0.241 A  
HETATM   17  C   UNL     1     -10.520   7.660  66.874  1.00  0.00    -0.318 A  
HETATM   18  C   UNL     1      -9.909   6.897  71.509  1.00  0.00    -0.175 A  
HETATM   19  C   UNL     1      -9.735   8.663  69.317  1.00  0.00    -0.173 A  
HETATM   20  C   UNL     1      -9.433   8.184  71.712  1.00  0.00    -0.188 A  
HETATM   21  C   UNL     1      -9.356   9.057  70.624  1.00  0.00    -0.283 A  
BRANCH  20  22
HETATM   22  O   UNL     1      -9.013   8.710  72.901  1.00  0.00    -0.343 OA 
HETATM   23  C   UNL     1      -9.009   7.836  74.025  1.00  0.00    -0.215 C  
ENDBRANCH  20  22
ENDBRANCH   9  12
ENDBRANCH   1   9
BRANCH   6  24
HETATM   24  C   UNL     1     -12.619  13.629  65.349  1.00  0.00    -0.533 C  
HETATM   25  C   UNL     1     -12.384  13.683  64.033  1.00  0.00    -0.382 C  
ENDBRANCH   6  24
TORSDOF 4
ENDMDL
MODEL       92
REMARK 921   NORMALIZED FREE ENERGY PREDICTED BY IDOCK:   -4.98 KCAL/MOL
REMARK 922        TOTAL FREE ENERGY PREDICTED BY IDOCK:   -6.93 KCAL/MOL
REMARK 923 INTER-LIGAND FREE ENERGY PREDICTED BY IDOCK:   -6.30 KCAL/MOL
REMARK 924 INTRA-LIGAND FREE ENERGY PREDICTED BY IDOCK:   -0.63 KCAL/MOL
REMARK 927      BINDING AFFINITY PREDICTED BY RF-SCORE:    0.00 PKD
ROOT
HETATM    1  C   UNL     1      -9.868  10.618  67.590  1.00  0.00    -0.167 C  
HETATM    2  N   UNL     1      -9.155   9.945  68.726  1.00  0.00    -0.141 NA 
HETATM    3  C   UNL     1     -10.358   9.565  66.565  1.00  0.00    -0.263 C  
HETATM    4  C   UNL     1      -9.973   8.886  69.350  1.00  0.00    -0.192 C  
HETATM    5  C   UNL     1      -9.824   8.172  66.947  1.00  0.00    -0.316 C  
HETATM    6  C   UNL     1      -8.285   8.204  67.121  1.00  0.00    -0.120 C  
HETATM    7  C   UNL     1     -10.442   7.846  68.321  1.00  0.00    -0.212 C  
HETATM    8  C   UNL     1      -7.935   9.295  68.169  1.00  0.00    -0.099 C  
ENDROOT
BRANCH   1   9
HETATM    9  C   UNL     1     -10.968  11.659  68.023  1.00  0.00    -0.224 C  
HETATM   10  O   UNL     1     -12.254  11.086  68.293  1.00  0.00    -0.769 OA 
HETATM   11  H   UNL     1     -12.917  11.713  68.554  1.00  0.00     0.000 HD 
BRANCH   9  12
HETATM   12  C   UNL     1     -11.150  12.758  66.978  1.00  0.00    -0.316 A  
HETATM   13  N   UNL     1     -11.453  14.653  64.926  1.00  0.00    -0.384 NA 
HETATM   14  C   UNL     1     -11.970  12.509  65.865  1.00  0.00    -0.472 A  
HETATM   15  C   UNL     1     -10.687  14.923  65.996  1.00  0.00    -0.323 A  
HETATM   16  C   UNL     1     -10.067  16.162  66.037  1.00  0.00    -0.372 A  
HETATM   17  C   UNL     1     -12.082  13.468  64.883  1.00  0.00    -0.397 A  
HETATM   18  C   UNL     1      -9.252  16.551  67.104  1.00  0.00    -0.226 A  
HETATM   19  C   UNL     1     -10.484  14.014  67.060  1.00  0.00    -0.275 A  
HETATM   20  C   UNL     1      -9.037  15.675  68.158  1.00  0.00    -0.181 A  
HETATM   21  C   UNL     1      -9.644  14.416  68.127  1.00  0.00    -0.218 A  
BRANCH  20  22
HETATM   22  O   UNL     1      -8.272  15.917  69.263  1.00  0.00    -0.226 OA 
HETATM   23  C   UNL     1      -7.342  16.991  69.180  1.00  0.00    -0.186 C  
ENDBRANCH  20  22
ENDBRANCH   9  12
ENDBRANCH   1   9
BRANCH   6  24
HETATM   24  C   UNL     1      -7.552   8.425  65.818  1.00  0.00    -0.085 C  
HETATM   25  C   UNL     1      -7.895   7.857  64.656  1.00  0.00    -0.133 C  
ENDBRANCH   6  24
TORSDOF 4
ENDMDL
MODEL       93
REMARK 921   NORMALIZED FREE ENERGY PREDICTED BY IDOCK:   -4.98 KCAL/MOL
REMARK 922        TOTAL FREE ENERGY PREDICTED BY IDOCK:   -6.93 KCAL/MOL
REMARK 923 INTER-LIGAND FREE ENERGY PREDICTED BY IDOCK:   -6.47 KCAL/MOL
REMARK 924 INTRA-LIGAND FREE ENERGY PREDICTED BY IDOCK:   -0.46 KCAL/MOL
REMARK 927      BINDING AFFINITY PREDICTED BY RF-SCORE:    0.00 PKD
ROOT
HETATM    1  C   UNL     1     -11.186   9.074  70.769  1.00  0.00    -0.275 C  
HETATM    2  N   UNL     1     -11.672   8.960  72.185  1.00  0.00    -0.362 NA 
HETATM    3  C   UNL     1     -11.578   7.809  69.964  1.00  0.00     0.113 C  
HETATM    4  C   UNL     1     -13.117   8.667  72.257  1.00  0.00    -0.372 C  
HETATM    5  C   UNL     1     -12.202   6.761  70.903  1.00  0.00    -0.386 C  
HETATM    6  C   UNL     1     -11.264   6.471  72.102  1.00  0.00    -0.308 C  
HETATM    7  C   UNL     1     -13.485   7.406  71.461  1.00  0.00    -0.445 C  
HETATM    8  C   UNL     1     -10.954   7.815  72.815  1.00  0.00    -0.388 C  
ENDROOT
BRANCH   1   9
HETATM    9  C   UNL     1     -11.543  10.431  70.055  1.00  0.00    -0.301 C  
HETATM   10  O   UNL     1     -12.784  10.416  69.338  1.00  0.00    -0.658 OA 
HETATM   11  H   UNL     1     -13.000  11.234  68.907  1.00  0.00     0.000 HD 
BRANCH   9  12
HETATM   12  C   UNL     1     -10.444  10.868  69.087  1.00  0.00    -0.248 A  
HETATM   13  N   UNL     1      -8.303  11.582  67.415  1.00  0.00    -0.142 NA 
HETATM   14  C   UNL     1      -9.515   9.915  68.639  1.00  0.00    -0.153 A  
HETATM   15  C   UNL     1      -9.197  12.503  67.808  1.00  0.00    -0.198 A  
HETATM   16  C   UNL     1      -9.014  13.800  67.354  1.00  0.00    -0.224 A  
HETATM   17  C   UNL     1      -8.480  10.315  67.824  1.00  0.00    -0.114 A  
HETATM   18  C   UNL     1      -9.886  14.837  67.696  1.00  0.00    -0.218 A  
HETATM   19  C   UNL     1     -10.293  12.215  68.655  1.00  0.00    -0.211 A  
HETATM   20  C   UNL     1     -10.967  14.579  68.527  1.00  0.00    -0.249 A  
HETATM   21  C   UNL     1     -11.159  13.280  69.005  1.00  0.00    -0.291 A  
BRANCH  20  22
HETATM   22  O   UNL     1     -11.899  15.488  68.942  1.00  0.00    -0.361 OA 
HETATM   23  C   UNL     1     -11.849  15.884  70.308  1.00  0.00    -0.327 C  
ENDBRANCH  20  22
ENDBRANCH   9  12
ENDBRANCH   1   9
BRANCH   6  24
HETATM   24  C   UNL     1      -9.999   5.750  71.696  1.00  0.00    -0.218 C  
HETATM   25  C   UNL     1      -8.764   6.213  71.922  1.00  0.00    -0.137 C  
ENDBRANCH   6  24
TORSDOF 4
ENDMDL
MODEL       94
REMARK 921   NORMALIZED FREE ENERGY PREDICTED BY IDOCK:   -4.94 KCAL/MOL
REMARK 922        TOTAL FREE ENERGY PREDICTED BY IDOCK:   -6.88 KCAL/MOL
REMARK 923 INTER-LIGAND FREE ENERGY PREDICTED BY IDOCK:   -6.46 KCAL/MOL
REMARK 924 INTRA-LIGAND FREE ENERGY PREDICTED BY IDOCK:   -0.41 KCAL/MOL
REMARK 927      BINDING AFFINITY PREDICTED BY RF-SCORE:    0.00 PKD
ROOT
HETATM    1  C   UNL     1      -9.352   8.961  68.286  1.00  0.00    -0.143 C  
HETATM    2  N   UNL     1     -10.376   8.922  67.189  1.00  0.00    -0.271 NA 
HETATM    3  C   UNL     1      -8.068   8.212  67.850  1.00  0.00    -0.128 C  
HETATM    4  C   UNL     1      -9.839   9.418  65.906  1.00  0.00    -0.291 C  
HETATM    5  C   UNL     1      -8.299   7.523  66.492  1.00  0.00    -0.126 C  
HETATM    6  C   UNL     1      -9.560   6.624  66.540  1.00  0.00    -0.187 C  
HETATM    7  C   UNL     1      -8.572   8.657  65.485  1.00  0.00    -0.200 C  
HETATM    8  C   UNL     1     -10.764   7.497  66.988  1.00  0.00    -0.297 C  
ENDROOT
BRANCH   1   9
HETATM    9  C   UNL     1      -9.090  10.390  68.895  1.00  0.00    -0.173 C  
HETATM   10  O   UNL     1      -8.131  10.416  69.959  1.00  0.00    -0.351 OA 
HETATM   11  H   UNL     1      -7.972  11.277  70.327  1.00  0.00     0.000 HD 
BRANCH   9  12
HETATM   12  C   UNL     1     -10.378  11.033  69.405  1.00  0.00    -0.134 A  
HETATM   13  N   UNL     1     -12.653  12.370  70.369  1.00  0.00    -0.097 NA 
HETATM   14  C   UNL     1     -10.746  12.298  68.919  1.00  0.00    -0.210 A  
HETATM   15  C   UNL     1     -12.336  11.148  70.826  1.00  0.00    -0.406 A  
HETATM   16  C   UNL     1     -13.174  10.589  71.779  1.00  0.00    -0.522 A  
HETATM   17  C   UNL     1     -11.868  12.915  69.427  1.00  0.00    -0.312 A  
HETATM   18  C   UNL     1     -12.943   9.321  72.320  1.00  0.00    -0.488 A  
HETATM   19  C   UNL     1     -11.203  10.422  70.392  1.00  0.00    -0.399 A  
HETATM   20  C   UNL     1     -11.836   8.592  71.911  1.00  0.00    -0.341 A  
HETATM   21  C   UNL     1     -10.974   9.145  70.961  1.00  0.00    -0.375 A  
BRANCH  20  22
HETATM   22  O   UNL     1     -11.487   7.345  72.348  1.00  0.00    -0.279 OA 
HETATM   23  C   UNL     1     -10.589   7.278  73.450  1.00  0.00    -0.389 C  
ENDBRANCH  20  22
ENDBRANCH   9  12
ENDBRANCH   1   9
BRANCH   6  24
HETATM   24  C   UNL     1      -9.385   5.415  67.429  1.00  0.00    -0.117 C  
HETATM   25  C   UNL     1      -9.631   4.157  67.046  1.00  0.00    -0.228 C  
ENDBRANCH   6  24
TORSDOF 4
ENDMDL
MODEL       95
REMARK 921   NORMALIZED FREE ENERGY PREDICTED BY IDOCK:   -4.93 KCAL/MOL
REMARK 922        TOTAL FREE ENERGY PREDICTED BY IDOCK:   -6.87 KCAL/MOL
REMARK 923 INTER-LIGAND FREE ENERGY PREDICTED BY IDOCK:   -6.30 KCAL/MOL
REMARK 924 INTRA-LIGAND FREE ENERGY PREDICTED BY IDOCK:   -0.58 KCAL/MOL
REMARK 927      BINDING AFFINITY PREDICTED BY RF-SCORE:    0.00 PKD
ROOT
HETATM    1  C   UNL     1     -10.011  14.339  68.367  1.00  0.00    -0.240 C  
HETATM    2  N   UNL     1      -9.453  15.329  69.347  1.00  0.00    -0.242 NA 
HETATM    3  C   UNL     1     -11.390  14.819  67.845  1.00  0.00    -0.331 C  
HETATM    4  C   UNL     1      -9.405  16.697  68.794  1.00  0.00    -0.256 C  
HETATM    5  C   UNL     1     -11.832  16.078  68.612  1.00  0.00    -0.174 C  
HETATM    6  C   UNL     1     -11.795  15.830  70.142  1.00  0.00    -0.369 C  
HETATM    7  C   UNL     1     -10.781  17.159  68.291  1.00  0.00    -0.363 C  
HETATM    8  C   UNL     1     -10.366  15.358  70.525  1.00  0.00    -0.006 C  
ENDROOT
BRANCH   1   9
HETATM    9  C   UNL     1      -9.012  13.895  67.234  1.00  0.00    -0.221 C  
HETATM   10  O   UNL     1      -8.699  14.919  66.281  1.00  0.00    -0.461 OA 
HETATM   11  H   UNL     1      -8.096  14.651  65.598  1.00  0.00     0.000 HD 
BRANCH   9  12
HETATM   12  C   UNL     1      -9.529  12.679  66.467  1.00  0.00    -0.247 A  
HETATM   13  N   UNL     1     -10.623  10.547  65.001  1.00  0.00    -0.155 NA 
HETATM   14  C   UNL     1      -9.939  12.840  65.133  1.00  0.00    -0.185 A  
HETATM   15  C   UNL     1     -10.209  10.363  66.265  1.00  0.00    -0.222 A  
HETATM   16  C   UNL     1     -10.345   9.092  66.799  1.00  0.00    -0.310 A  
HETATM   17  C   UNL     1     -10.474  11.766  64.458  1.00  0.00    -0.304 A  
HETATM   18  C   UNL     1      -9.944   8.786  68.103  1.00  0.00    -0.206 A  
HETATM   19  C   UNL     1      -9.658  11.393  67.063  1.00  0.00    -0.192 A  
HETATM   20  C   UNL     1      -9.402   9.780  68.905  1.00  0.00    -0.158 A  
HETATM   21  C   UNL     1      -9.270  11.071  68.387  1.00  0.00    -0.175 A  
BRANCH  20  22
HETATM   22  O   UNL     1      -8.965   9.629  70.190  1.00  0.00    -0.218 OA 
HETATM   23  C   UNL     1      -9.857   8.999  71.104  1.00  0.00    -0.300 C  
ENDBRANCH  20  22
ENDBRANCH   9  12
ENDBRANCH   1   9
BRANCH   6  24
HETATM   24  C   UNL     1     -12.849  14.850  70.602  1.00  0.00    -0.406 C  
HETATM   25  C   UNL     1     -13.671  15.060  71.637  1.00  0.00    -0.553 C  
ENDBRANCH   6  24
TORSDOF 4
ENDMDL
MODEL       96
REMARK 921   NORMALIZED FREE ENERGY PREDICTED BY IDOCK:   -4.93 KCAL/MOL
REMARK 922        TOTAL FREE ENERGY PREDICTED BY IDOCK:   -6.86 KCAL/MOL
REMARK 923 INTER-LIGAND FREE ENERGY PREDICTED BY IDOCK:   -6.01 KCAL/MOL
REMARK 924 INTRA-LIGAND FREE ENERGY PREDICTED BY IDOCK:   -0.86 KCAL/MOL
REMARK 927      BINDING AFFINITY PREDICTED BY RF-SCORE:    0.00 PKD
ROOT
HETATM    1  C   UNL     1      -8.908   9.873  67.747  1.00  0.00    -0.129 C  
HETATM    2  N   UNL     1      -9.079   9.303  69.126  1.00  0.00    -0.142 NA 
HETATM    3  C   UNL     1      -7.530   9.468  67.166  1.00  0.00    -0.091 C  
HETATM    4  C   UNL     1      -8.858   7.844  69.158  1.00  0.00    -0.142 C  
HETATM    5  C   UNL     1      -6.700   8.743  68.242  1.00  0.00    -0.065 C  
HETATM    6  C   UNL     1      -6.606   9.598  69.531  1.00  0.00    -0.049 C  
HETATM    7  C   UNL     1      -7.484   7.462  68.587  1.00  0.00    -0.102 C  
HETATM    8  C   UNL     1      -8.049   9.930  70.001  1.00  0.00    -0.177 C  
ENDROOT
BRANCH   1   9
HETATM    9  C   UNL     1     -10.119   9.621  66.772  1.00  0.00    -0.236 C  
HETATM   10  O   UNL     1      -9.971   8.476  65.924  1.00  0.00    -0.470 OA 
HETATM   11  H   UNL     1     -10.700   8.323  65.336  1.00  0.00     0.000 HD 
BRANCH   9  12
HETATM   12  C   UNL     1     -10.393  10.834  65.884  1.00  0.00    -0.302 A  
HETATM   13  N   UNL     1     -10.727  13.044  64.184  1.00  0.00    -0.408 NA 
HETATM   14  C   UNL     1     -10.073  10.763  64.519  1.00  0.00    -0.415 A  
HETATM   15  C   UNL     1     -11.068  13.124  65.480  1.00  0.00    -0.278 A  
HETATM   16  C   UNL     1     -11.585  14.330  65.927  1.00  0.00    -0.358 A  
HETATM   17  C   UNL     1     -10.250  11.875  63.727  1.00  0.00    -0.413 A  
HETATM   18  C   UNL     1     -11.977  14.524  67.255  1.00  0.00    -0.375 A  
HETATM   19  C   UNL     1     -10.919  12.055  66.393  1.00  0.00    -0.337 A  
HETATM   20  C   UNL     1     -11.838  13.489  68.170  1.00  0.00    -0.365 A  
HETATM   21  C   UNL     1     -11.307  12.271  67.739  1.00  0.00    -0.362 A  
BRANCH  20  22
HETATM   22  O   UNL     1     -12.180  13.532  69.492  1.00  0.00    -0.304 OA 
HETATM   23  C   UNL     1     -12.060  12.319  70.227  1.00  0.00    -0.295 C  
ENDBRANCH  20  22
ENDBRANCH   9  12
ENDBRANCH   1   9
BRANCH   6  24
HETATM   24  C   UNL     1      -5.777  10.848  69.347  1.00  0.00    -0.043 C  
HETATM   25  C   UNL     1      -6.099  12.045  69.851  1.00  0.00    -0.150 C  
ENDBRANCH   6  24
TORSDOF 4
ENDMDL
MODEL       97
REMARK 921   NORMALIZED FREE ENERGY PREDICTED BY IDOCK:   -4.92 KCAL/MOL
REMARK 922        TOTAL FREE ENERGY PREDICTED BY IDOCK:   -6.85 KCAL/MOL
REMARK 923 INTER-LIGAND FREE ENERGY PREDICTED BY IDOCK:   -6.97 KCAL/MOL
REMARK 924 INTRA-LIGAND FREE ENERGY PREDICTED BY IDOCK:    0.12 KCAL/MOL
REMARK 927      BINDING AFFINITY PREDICTED BY RF-SCORE:    0.00 PKD
ROOT
HETATM    1  C   UNL     1     -10.978  11.581  68.363  1.00  0.00    -0.221 C  
HETATM    2  N   UNL     1     -11.673  11.572  67.033  1.00  0.00    -0.550 NA 
HETATM    3  C   UNL     1      -9.676  12.418  68.283  1.00  0.00    -0.218 C  
HETATM    4  C   UNL     1     -11.907  12.936  66.516  1.00  0.00    -0.407 C  
HETATM    5  C   UNL     1      -9.417  12.847  66.828  1.00  0.00    -0.245 C  
HETATM    6  C   UNL     1      -9.427  11.618  65.883  1.00  0.00    -0.246 C  
HETATM    7  C   UNL     1     -10.605  13.747  66.435  1.00  0.00    -0.284 C  
HETATM    8  C   UNL     1     -10.780  10.876  66.064  1.00  0.00    -0.140 C  
ENDROOT
BRANCH   1   9
HETATM    9  C   UNL     1     -11.901  11.938  69.589  1.00  0.00    -0.337 C  
HETATM   10  O   UNL     1     -11.466  13.071  70.350  1.00  0.00    -0.504 OA 
HETATM   11  H   UNL     1     -12.021  13.287  71.089  1.00  0.00     0.000 HD 
BRANCH   9  12
HETATM   12  C   UNL     1     -12.052  10.756  70.546  1.00  0.00    -0.459 A  
HETATM   13  N   UNL     1     -12.400   8.701  72.429  1.00  0.00    -0.380 NA 
HETATM   14  C   UNL     1     -13.268  10.584  71.226  1.00  0.00    -0.399 A  
HETATM   15  C   UNL     1     -11.239   8.829  71.767  1.00  0.00    -0.340 A  
HETATM   16  C   UNL     1     -10.240   7.912  72.054  1.00  0.00    -0.270 A  
HETATM   17  C   UNL     1     -13.388   9.564  72.144  1.00  0.00    -0.461 A  
HETATM   18  C   UNL     1      -8.993   7.949  71.422  1.00  0.00    -0.161 A  
HETATM   19  C   UNL     1     -10.992   9.844  70.814  1.00  0.00    -0.407 A  
HETATM   20  C   UNL     1      -8.728   8.937  70.485  1.00  0.00    -0.186 A  
HETATM   21  C   UNL     1      -9.719   9.877  70.193  1.00  0.00    -0.255 A  
BRANCH  20  22
HETATM   22  O   UNL     1      -7.563   9.094  69.788  1.00  0.00    -0.068 OA 
HETATM   23  C   UNL     1      -6.868  10.324  69.965  1.00  0.00    -0.146 C  
ENDBRANCH  20  22
ENDBRANCH   9  12
ENDBRANCH   1   9
BRANCH   6  24
HETATM   24  C   UNL     1      -8.251  10.697  66.107  1.00  0.00    -0.156 C  
HETATM   25  C   UNL     1      -7.718   9.914  65.161  1.00  0.00    -0.131 C  
ENDBRANCH   6  24
TORSDOF 4
ENDMDL
MODEL       98
REMARK 921   NORMALIZED FREE ENERGY PREDICTED BY IDOCK:   -4.90 KCAL/MOL
REMARK 922        TOTAL FREE ENERGY PREDICTED BY IDOCK:   -6.83 KCAL/MOL
REMARK 923 INTER-LIGAND FREE ENERGY PREDICTED BY IDOCK:   -6.40 KCAL/MOL
REMARK 924 INTRA-LIGAND FREE ENERGY PREDICTED BY IDOCK:   -0.44 KCAL/MOL
REMARK 927      BINDING AFFINITY PREDICTED BY RF-SCORE:    0.00 PKD
ROOT
HETATM    1  C   UNL     1     -10.656   7.417  72.054  1.00  0.00    -0.208 C  
HETATM    2  N   UNL     1     -10.875   6.716  73.363  1.00  0.00    -0.270 NA 
HETATM    3  C   UNL     1      -9.599   6.661  71.210  1.00  0.00    -0.176 C  
HETATM    4  C   UNL     1     -11.209   5.289  73.183  1.00  0.00    -0.318 C  
HETATM    5  C   UNL     1      -8.986   5.518  72.040  1.00  0.00    -0.140 C  
HETATM    6  C   UNL     1      -8.442   6.050  73.389  1.00  0.00    -0.116 C  
HETATM    7  C   UNL     1     -10.146   4.554  72.353  1.00  0.00    -0.243 C  
HETATM    8  C   UNL     1      -9.597   6.780  74.127  1.00  0.00    -0.267 C  
ENDROOT
BRANCH   1   9
HETATM    9  C   UNL     1     -11.973   7.777  71.268  1.00  0.00    -0.302 C  
HETATM   10  O   UNL     1     -12.078   7.169  69.975  1.00  0.00    -0.571 OA 
HETATM   11  H   UNL     1     -12.871   7.385  69.500  1.00  0.00     0.000 HD 
BRANCH   9  12
HETATM   12  C   UNL     1     -12.133   9.286  71.094  1.00  0.00    -0.389 A  
HETATM   13  N   UNL     1     -12.610  12.038  70.792  1.00  0.00    -0.272 NA 
HETATM   14  C   UNL     1     -12.959   9.989  71.985  1.00  0.00    -0.514 A  
HETATM   15  C   UNL     1     -11.792  11.391  69.946  1.00  0.00    -0.359 A  
HETATM   16  C   UNL     1     -11.206  12.137  68.935  1.00  0.00    -0.320 A  
HETATM   17  C   UNL     1     -13.166  11.337  71.793  1.00  0.00    -0.375 A  
HETATM   18  C   UNL     1     -10.335  11.568  68.001  1.00  0.00    -0.208 A  
HETATM   19  C   UNL     1     -11.515  10.007  70.034  1.00  0.00    -0.310 A  
HETATM   20  C   UNL     1     -10.049  10.212  68.067  1.00  0.00    -0.157 A  
HETATM   21  C   UNL     1     -10.642   9.442  69.071  1.00  0.00    -0.233 A  
BRANCH  20  22
HETATM   22  O   UNL     1      -9.219   9.522  67.229  1.00  0.00    -0.132 OA 
HETATM   23  C   UNL     1      -9.798   8.459  66.480  1.00  0.00    -0.268 C  
ENDBRANCH  20  22
ENDBRANCH   9  12
ENDBRANCH   1   9
BRANCH   6  24
HETATM   24  C   UNL     1      -7.233   6.942  73.224  1.00  0.00    -0.074 C  
HETATM   25  C   UNL     1      -7.130   8.173  73.739  1.00  0.00    -0.172 C  
ENDBRANCH   6  24
TORSDOF 4
ENDMDL
MODEL       99
REMARK 921   NORMALIZED FREE ENERGY PREDICTED BY IDOCK:   -4.90 KCAL/MOL
REMARK 922        TOTAL FREE ENERGY PREDICTED BY IDOCK:   -6.83 KCAL/MOL
REMARK 923 INTER-LIGAND FREE ENERGY PREDICTED BY IDOCK:   -5.95 KCAL/MOL
REMARK 924 INTRA-LIGAND FREE ENERGY PREDICTED BY IDOCK:   -0.87 KCAL/MOL
REMARK 927      BINDING AFFINITY PREDICTED BY RF-SCORE:    0.00 PKD
ROOT
HETATM    1  C   UNL     1     -10.007  12.724  66.958  1.00  0.00    -0.231 C  
HETATM    2  N   UNL     1     -11.423  12.577  67.436  1.00  0.00    -0.319 NA 
HETATM    3  C   UNL     1      -9.769  14.156  66.417  1.00  0.00    -0.313 C  
HETATM    4  C   UNL     1     -11.794  13.621  68.412  1.00  0.00    -0.372 C  
HETATM    5  C   UNL     1     -11.098  14.934  66.388  1.00  0.00    -0.342 C  
HETATM    6  C   UNL     1     -12.179  14.144  65.608  1.00  0.00    -0.449 C  
HETATM    7  C   UNL     1     -11.560  15.033  67.855  1.00  0.00    -0.350 C  
HETATM    8  C   UNL     1     -12.315  12.738  66.252  1.00  0.00    -0.050 C  
ENDROOT
BRANCH   1   9
HETATM    9  C   UNL     1      -8.912  12.228  67.975  1.00  0.00    -0.190 C  
HETATM   10  O   UNL     1      -8.228  13.277  68.671  1.00  0.00    -0.288 OA 
HETATM   11  H   UNL     1      -7.567  12.979  69.284  1.00  0.00     0.000 HD 
BRANCH   9  12
HETATM   12  C   UNL     1      -7.862  11.352  67.293  1.00  0.00    -0.149 A  
HETATM   13  N   UNL     1      -5.897   9.882  65.926  1.00  0.00    -0.065 NA 
HETATM   14  C   UNL     1      -6.589  11.888  67.041  1.00  0.00    -0.128 A  
HETATM   15  C   UNL     1      -7.098   9.339  66.184  1.00  0.00    -0.091 A  
HETATM   16  C   UNL     1      -7.314   8.041  65.750  1.00  0.00    -0.079 A  
HETATM   17  C   UNL     1      -5.661  11.130  66.362  1.00  0.00    -0.146 A  
HETATM   18  C   UNL     1      -8.524   7.376  65.967  1.00  0.00    -0.152 A  
HETATM   19  C   UNL     1      -8.135  10.024  66.858  1.00  0.00    -0.117 A  
HETATM   20  C   UNL     1      -9.556   8.028  66.626  1.00  0.00    -0.230 A  
HETATM   21  C   UNL     1      -9.361   9.342  67.058  1.00  0.00    -0.185 A  
BRANCH  20  22
HETATM   22  O   UNL     1     -10.787   7.507  66.910  1.00  0.00    -0.345 OA 
HETATM   23  C   UNL     1     -10.855   6.102  67.134  1.00  0.00    -0.360 C  
ENDBRANCH  20  22
ENDBRANCH   9  12
ENDBRANCH   1   9
BRANCH   6  24
HETATM   24  C   UNL     1     -11.887  14.054  64.128  1.00  0.00    -0.393 C  
HETATM   25  C   UNL     1     -11.938  12.921  63.419  1.00  0.00    -0.612 C  
ENDBRANCH   6  24
TORSDOF 4
ENDMDL
MODEL      100
REMARK 921   NORMALIZED FREE ENERGY PREDICTED BY IDOCK:   -4.86 KCAL/MOL
REMARK 922        TOTAL FREE ENERGY PREDICTED BY IDOCK:   -6.79 KCAL/MOL
REMARK 923 INTER-LIGAND FREE ENERGY PREDICTED BY IDOCK:   -6.02 KCAL/MOL
REMARK 924 INTRA-LIGAND FREE ENERGY PREDICTED BY IDOCK:   -0.76 KCAL/MOL
REMARK 927      BINDING AFFINITY PREDICTED BY RF-SCORE:    0.00 PKD
ROOT
HETATM    1  C   UNL     1     -10.064  12.354  67.753  1.00  0.00    -0.203 C  
HETATM    2  N   UNL     1     -11.557  12.504  67.820  1.00  0.00    -0.324 NA 
HETATM    3  C   UNL     1      -9.373  13.690  68.126  1.00  0.00    -0.212 C  
HETATM    4  C   UNL     1     -12.007  13.031  69.123  1.00  0.00    -0.271 C  
HETATM    5  C   UNL     1     -10.429  14.798  68.292  1.00  0.00    -0.241 C  
HETATM    6  C   UNL     1     -11.330  14.891  67.034  1.00  0.00    -0.345 C  
HETATM    7  C   UNL     1     -11.319  14.360  69.471  1.00  0.00    -0.318 C  
HETATM    8  C   UNL     1     -11.955  13.493  66.778  1.00  0.00    -0.404 C  
ENDROOT
BRANCH   1   9
HETATM    9  C   UNL     1      -9.492  11.098  68.511  1.00  0.00    -0.193 C  
HETATM   10  O   UNL     1      -8.291  11.347  69.252  1.00  0.00    -0.375 OA 
HETATM   11  H   UNL     1      -7.945  10.590  69.710  1.00  0.00     0.000 HD 
BRANCH   9  12
HETATM   12  C   UNL     1      -9.225   9.935  67.558  1.00  0.00    -0.148 A  
HETATM   13  N   UNL     1      -8.781   7.906  65.665  1.00  0.00    -0.145 NA 
HETATM   14  C   UNL     1      -8.461  10.164  66.402  1.00  0.00    -0.133 A  
HETATM   15  C   UNL     1      -9.490   7.657  66.779  1.00  0.00    -0.191 A  
HETATM   16  C   UNL     1      -9.980   6.371  66.944  1.00  0.00    -0.217 A  
HETATM   17  C   UNL     1      -8.276   9.139  65.502  1.00  0.00    -0.123 A  
HETATM   18  C   UNL     1     -10.726   5.999  68.066  1.00  0.00    -0.359 A  
HETATM   19  C   UNL     1      -9.758   8.631  67.767  1.00  0.00    -0.202 A  
HETATM   20  C   UNL     1     -11.003   6.939  69.049  1.00  0.00    -0.181 A  
HETATM   21  C   UNL     1     -10.527   8.243  68.892  1.00  0.00    -0.209 A  
BRANCH  20  22
HETATM   22  O   UNL     1     -11.713   6.720  70.195  1.00  0.00    -0.357 OA 
HETATM   23  C   UNL     1     -11.138   7.192  71.409  1.00  0.00    -0.242 C  
ENDBRANCH  20  22
ENDBRANCH   9  12
ENDBRANCH   1   9
BRANCH   6  24
HETATM   24  C   UNL     1     -10.590  15.403  65.820  1.00  0.00    -0.361 C  
HETATM   25  C   UNL     1     -10.391  16.699  65.551  1.00  0.00    -0.268 C  
ENDBRANCH   6  24
TORSDOF 4
ENDMDL
MODEL      101
REMARK 921   NORMALIZED FREE ENERGY PREDICTED BY IDOCK:   -4.84 KCAL/MOL
REMARK 922        TOTAL FREE ENERGY PREDICTED BY IDOCK:   -6.76 KCAL/MOL
REMARK 923 INTER-LIGAND FREE ENERGY PREDICTED BY IDOCK:   -5.96 KCAL/MOL
REMARK 924 INTRA-LIGAND FREE ENERGY PREDICTED BY IDOCK:   -0.80 KCAL/MOL
REMARK 927      BINDING AFFINITY PREDICTED BY RF-SCORE:    0.00 PKD
ROOT
HETATM    1  C   UNL     1     -10.041  14.061  68.277  1.00  0.00    -0.246 C  
HETATM    2  N   UNL     1      -9.378  14.216  66.939  1.00  0.00    -0.254 NA 
HETATM    3  C   UNL     1      -9.842  15.343  69.126  1.00  0.00    -0.247 C  
HETATM    4  C   UNL     1      -9.820  15.436  66.235  1.00  0.00    -0.297 C  
HETATM    5  C   UNL     1      -8.894  16.313  68.398  1.00  0.00    -0.202 C  
HETATM    6  C   UNL     1      -7.569  15.604  68.020  1.00  0.00    -0.132 C  
HETATM    7  C   UNL     1      -9.607  16.697  67.087  1.00  0.00    -0.244 C  
HETATM    8  C   UNL     1      -7.912  14.346  67.176  1.00  0.00    -0.119 C  
ENDROOT
BRANCH   1   9
HETATM    9  C   UNL     1     -11.528  13.546  68.222  1.00  0.00    -0.310 C  
HETATM   10  O   UNL     1     -12.518  14.576  68.339  1.00  0.00    -0.592 OA 
HETATM   11  H   UNL     1     -13.415  14.266  68.306  1.00  0.00     0.000 HD 
BRANCH   9  12
HETATM   12  C   UNL     1     -11.805  12.501  69.301  1.00  0.00    -0.360 A  
HETATM   13  N   UNL     1     -12.254  10.700  71.410  1.00  0.00    -0.335 NA 
HETATM   14  C   UNL     1     -12.499  12.886  70.460  1.00  0.00    -0.294 A  
HETATM   15  C   UNL     1     -11.615  10.302  70.298  1.00  0.00    -0.316 A  
HETATM   16  C   UNL     1     -11.197   8.981  70.244  1.00  0.00    -0.232 A  
HETATM   17  C   UNL     1     -12.689  11.969  71.468  1.00  0.00    -0.255 A  
HETATM   18  C   UNL     1     -10.526   8.458  69.135  1.00  0.00    -0.218 A  
HETATM   19  C   UNL     1     -11.348  11.156  69.204  1.00  0.00    -0.340 A  
HETATM   20  C   UNL     1     -10.252   9.279  68.050  1.00  0.00    -0.209 A  
HETATM   21  C   UNL     1     -10.655  10.616  68.092  1.00  0.00    -0.237 A  
BRANCH  20  22
HETATM   22  O   UNL     1      -9.611   8.908  66.902  1.00  0.00    -0.162 OA 
HETATM   23  C   UNL     1      -8.206   8.697  66.988  1.00  0.00    -0.106 C  
ENDBRANCH  20  22
ENDBRANCH   9  12
ENDBRANCH   1   9
BRANCH   6  24
HETATM   24  C   UNL     1      -6.726  15.255  69.224  1.00  0.00    -0.148 C  
HETATM   25  C   UNL     1      -5.425  15.547  69.342  1.00  0.00    -0.107 C  
ENDBRANCH   6  24
TORSDOF 4
ENDMDL
MODEL      102
REMARK 921   NORMALIZED FREE ENERGY PREDICTED BY IDOCK:   -4.83 KCAL/MOL
REMARK 922        TOTAL FREE ENERGY PREDICTED BY IDOCK:   -6.74 KCAL/MOL
REMARK 923 INTER-LIGAND FREE ENERGY PREDICTED BY IDOCK:   -6.00 KCAL/MOL
REMARK 924 INTRA-LIGAND FREE ENERGY PREDICTED BY IDOCK:   -0.74 KCAL/MOL
REMARK 927      BINDING AFFINITY PREDICTED BY RF-SCORE:    0.00 PKD
ROOT
HETATM    1  C   UNL     1      -9.836   6.841  70.130  1.00  0.00    -0.177 C  
HETATM    2  N   UNL     1      -8.433   6.598  69.656  1.00  0.00    -0.131 NA 
HETATM    3  C   UNL     1     -10.657   5.528  70.074  1.00  0.00    -0.384 C  
HETATM    4  C   UNL     1      -7.781   5.491  70.384  1.00  0.00    -0.085 C  
HETATM    5  C   UNL     1      -9.828   4.419  69.400  1.00  0.00    -0.239 C  
HETATM    6  C   UNL     1      -9.305   4.888  68.018  1.00  0.00    -0.160 C  
HETATM    7  C   UNL     1      -8.604   4.196  70.309  1.00  0.00    -0.104 C  
HETATM    8  C   UNL     1      -8.506   6.204  68.220  1.00  0.00    -0.113 C  
ENDROOT
BRANCH   1   9
HETATM    9  C   UNL     1      -9.948   7.614  71.498  1.00  0.00    -0.173 C  
HETATM   10  O   UNL     1     -10.195   6.777  72.635  1.00  0.00    -0.178 OA 
HETATM   11  H   UNL     1     -10.262   7.243  73.460  1.00  0.00     0.000 HD 
BRANCH   9  12
HETATM   12  C   UNL     1     -11.035   8.686  71.455  1.00  0.00    -0.360 A  
HETATM   13  N   UNL     1     -13.158  10.523  71.361  1.00  0.00    -0.408 NA 
HETATM   14  C   UNL     1     -12.175   8.530  72.260  1.00  0.00    -0.454 A  
HETATM   15  C   UNL     1     -12.063  10.707  70.605  1.00  0.00    -0.365 A  
HETATM   16  C   UNL     1     -12.035  11.830  69.793  1.00  0.00    -0.392 A  
HETATM   17  C   UNL     1     -13.192   9.455  72.174  1.00  0.00    -0.460 A  
HETATM   18  C   UNL     1     -10.944  12.123  68.968  1.00  0.00    -0.255 A  
HETATM   19  C   UNL     1     -10.963   9.819  70.597  1.00  0.00    -0.398 A  
HETATM   20  C   UNL     1      -9.854  11.265  68.942  1.00  0.00    -0.139 A  
HETATM   21  C   UNL     1      -9.872  10.122  69.745  1.00  0.00    -0.245 A  
BRANCH  20  22
HETATM   22  O   UNL     1      -8.723  11.423  68.193  1.00  0.00    -0.141 OA 
HETATM   23  C   UNL     1      -7.696  10.453  68.364  1.00  0.00    -0.098 C  
ENDBRANCH  20  22
ENDBRANCH   9  12
ENDBRANCH   1   9
BRANCH   6  24
HETATM   24  C   UNL     1     -10.409   5.056  67.000  1.00  0.00    -0.242 C  
HETATM   25  C   UNL     1     -10.330   4.645  65.729  1.00  0.00    -0.295 C  
ENDBRANCH   6  24
TORSDOF 4
ENDMDL
MODEL      103
REMARK 921   NORMALIZED FREE ENERGY PREDICTED BY IDOCK:   -4.82 KCAL/MOL
REMARK 922        TOTAL FREE ENERGY PREDICTED BY IDOCK:   -6.73 KCAL/MOL
REMARK 923 INTER-LIGAND FREE ENERGY PREDICTED BY IDOCK:   -5.95 KCAL/MOL
REMARK 924 INTRA-LIGAND FREE ENERGY PREDICTED BY IDOCK:   -0.78 KCAL/MOL
REMARK 927      BINDING AFFINITY PREDICTED BY RF-SCORE:    0.00 PKD
ROOT
HETATM    1  C   UNL     1     -10.575  11.377  67.961  1.00  0.00    -0.191 C  
HETATM    2  N   UNL     1     -10.552  11.537  66.469  1.00  0.00    -0.248 NA 
HETATM    3  C   UNL     1     -10.811  12.748  68.644  1.00  0.00    -0.284 C  
HETATM    4  C   UNL     1     -11.757  12.223  65.962  1.00  0.00    -0.388 C  
HETATM    5  C   UNL     1     -10.788  13.870  67.590  1.00  0.00    -0.264 C  
HETATM    6  C   UNL     1      -9.488  13.808  66.749  1.00  0.00    -0.281 C  
HETATM    7  C   UNL     1     -11.970  13.583  66.643  1.00  0.00    -0.452 C  
HETATM    8  C   UNL     1      -9.378  12.390  66.126  1.00  0.00    -0.155 C  
ENDROOT
BRANCH   1   9
HETATM    9  C   UNL     1     -11.509  10.224  68.489  1.00  0.00    -0.100 C  
HETATM   10  O   UNL     1     -12.698  10.677  69.148  1.00  0.00    -0.685 OA 
HETATM   11  H   UNL     1     -13.261   9.982  69.466  1.00  0.00     0.000 HD 
BRANCH   9  12
HETATM   12  C   UNL     1     -10.768   9.287  69.442  1.00  0.00    -0.222 A  
HETATM   13  N   UNL     1      -9.302   7.707  71.243  1.00  0.00    -0.149 NA 
HETATM   14  C   UNL     1     -10.533   9.706  70.761  1.00  0.00    -0.375 A  
HETATM   15  C   UNL     1      -9.541   7.274  69.995  1.00  0.00    -0.167 A  
HETATM   16  C   UNL     1      -9.038   6.030  69.647  1.00  0.00    -0.139 A  
HETATM   17  C   UNL     1      -9.804   8.899  71.605  1.00  0.00    -0.317 A  
HETATM   18  C   UNL     1      -9.230   5.479  68.377  1.00  0.00    -0.124 A  
HETATM   19  C   UNL     1     -10.263   8.020  69.035  1.00  0.00    -0.217 A  
HETATM   20  C   UNL     1      -9.935   6.193  67.419  1.00  0.00    -0.141 A  
HETATM   21  C   UNL     1     -10.438   7.454  67.748  1.00  0.00    -0.298 A  
BRANCH  20  22
HETATM   22  O   UNL     1     -10.203   5.782  66.144  1.00  0.00    -0.104 OA 
HETATM   23  C   UNL     1     -10.107   4.385  65.884  1.00  0.00    -0.243 C  
ENDBRANCH  20  22
ENDBRANCH   9  12
ENDBRANCH   1   9
BRANCH   6  24
HETATM   24  C   UNL     1      -8.256  14.163  67.548  1.00  0.00    -0.196 C  
HETATM   25  C   UNL     1      -7.639  15.350  67.492  1.00  0.00    -0.207 C  
ENDBRANCH   6  24
TORSDOF 4
ENDMDL
MODEL      104
REMARK 921   NORMALIZED FREE ENERGY PREDICTED BY IDOCK:   -4.81 KCAL/MOL
REMARK 922        TOTAL FREE ENERGY PREDICTED BY IDOCK:   -6.72 KCAL/MOL
REMARK 923 INTER-LIGAND FREE ENERGY PREDICTED BY IDOCK:   -5.88 KCAL/MOL
REMARK 924 INTRA-LIGAND FREE ENERGY PREDICTED BY IDOCK:   -0.84 KCAL/MOL
REMARK 927      BINDING AFFINITY PREDICTED BY RF-SCORE:    0.00 PKD
ROOT
HETATM    1  C   UNL     1     -10.594  12.486  68.296  1.00  0.00    -0.231 C  
HETATM    2  N   UNL     1     -10.178  12.988  66.944  1.00  0.00    -0.241 NA 
HETATM    3  C   UNL     1     -11.327  13.603  69.081  1.00  0.00    -0.335 C  
HETATM    4  C   UNL     1     -11.310  13.562  66.189  1.00  0.00    -0.308 C  
HETATM    5  C   UNL     1     -11.260  14.926  68.297  1.00  0.00    -0.306 C  
HETATM    6  C   UNL     1      -9.795  15.276  67.935  1.00  0.00    -0.216 C  
HETATM    7  C   UNL     1     -12.018  14.674  66.979  1.00  0.00    -0.301 C  
HETATM    8  C   UNL     1      -9.185  14.079  67.156  1.00  0.00    -0.235 C  
ENDROOT
BRANCH   1   9
HETATM    9  C   UNL     1     -11.349  11.103  68.284  1.00  0.00    -0.297 C  
HETATM   10  O   UNL     1     -12.530  11.064  69.095  1.00  0.00    -0.602 OA 
HETATM   11  H   UNL     1     -12.985  10.231  69.089  1.00  0.00     0.000 HD 
BRANCH   9  12
HETATM   12  C   UNL     1     -10.438   9.958  68.722  1.00  0.00    -0.234 A  
HETATM   13  N   UNL     1      -8.697   7.961  69.658  1.00  0.00    -0.134 NA 
HETATM   14  C   UNL     1     -10.363   9.630  70.085  1.00  0.00    -0.315 A  
HETATM   15  C   UNL     1      -8.775   8.237  68.346  1.00  0.00    -0.133 A  
HETATM   16  C   UNL     1      -7.968   7.500  67.493  1.00  0.00    -0.116 A  
HETATM   17  C   UNL     1      -9.491   8.647  70.495  1.00  0.00    -0.178 A  
HETATM   18  C   UNL     1      -7.971   7.700  66.109  1.00  0.00    -0.110 A  
HETATM   19  C   UNL     1      -9.621   9.234  67.807  1.00  0.00    -0.167 A  
HETATM   20  C   UNL     1      -8.792   8.673  65.558  1.00  0.00    -0.179 A  
HETATM   21  C   UNL     1      -9.602   9.435  66.405  1.00  0.00    -0.285 A  
BRANCH  20  22
HETATM   22  O   UNL     1      -8.902   8.977  64.231  1.00  0.00    -0.164 OA 
HETATM   23  C   UNL     1      -9.439  10.254  63.905  1.00  0.00    -0.302 C  
ENDBRANCH  20  22
ENDBRANCH   9  12
ENDBRANCH   1   9
BRANCH   6  24
HETATM   24  C   UNL     1      -8.963  15.637  69.144  1.00  0.00    -0.257 C  
HETATM   25  C   UNL     1      -7.685  16.031  69.088  1.00  0.00    -0.231 C  
ENDBRANCH   6  24
TORSDOF 4
ENDMDL
MODEL      105
REMARK 921   NORMALIZED FREE ENERGY PREDICTED BY IDOCK:   -4.79 KCAL/MOL
REMARK 922        TOTAL FREE ENERGY PREDICTED BY IDOCK:   -6.70 KCAL/MOL
REMARK 923 INTER-LIGAND FREE ENERGY PREDICTED BY IDOCK:   -5.87 KCAL/MOL
REMARK 924 INTRA-LIGAND FREE ENERGY PREDICTED BY IDOCK:   -0.83 KCAL/MOL
REMARK 927      BINDING AFFINITY PREDICTED BY RF-SCORE:    0.00 PKD
ROOT
HETATM    1  C   UNL     1      -9.639   7.495  68.639  1.00  0.00    -0.151 C  
HETATM    2  N   UNL     1     -10.082   7.560  70.072  1.00  0.00    -0.196 NA 
HETATM    3  C   UNL     1      -8.964   6.130  68.348  1.00  0.00    -0.115 C  
HETATM    4  C   UNL     1     -10.935   6.414  70.446  1.00  0.00    -0.308 C  
HETATM    5  C   UNL     1      -8.814   5.330  69.654  1.00  0.00    -0.126 C  
HETATM    6  C   UNL     1      -8.082   6.170  70.731  1.00  0.00    -0.124 C  
HETATM    7  C   UNL     1     -10.247   5.072  70.158  1.00  0.00    -0.329 C  
HETATM    8  C   UNL     1      -8.859   7.500  70.923  1.00  0.00    -0.144 C  
ENDROOT
BRANCH   1   9
HETATM    9  C   UNL     1     -10.736   7.910  67.589  1.00  0.00    -0.145 C  
HETATM   10  O   UNL     1     -10.874   7.007  66.485  1.00  0.00    -0.505 OA 
HETATM   11  H   UNL     1     -11.536   7.257  65.851  1.00  0.00     0.000 HD 
BRANCH   9  12
HETATM   12  C   UNL     1     -10.480   9.307  67.026  1.00  0.00    -0.303 A  
HETATM   13  N   UNL     1      -9.837  11.824  65.957  1.00  0.00    -0.226 NA 
HETATM   14  C   UNL     1      -9.825   9.434  65.791  1.00  0.00    -0.345 A  
HETATM   15  C   UNL     1     -10.492  11.727  67.126  1.00  0.00    -0.220 A  
HETATM   16  C   UNL     1     -10.828  12.910  67.765  1.00  0.00    -0.248 A  
HETATM   17  C   UNL     1      -9.527  10.689  65.311  1.00  0.00    -0.221 A  
HETATM   18  C   UNL     1     -11.514  12.928  68.983  1.00  0.00    -0.358 A  
HETATM   19  C   UNL     1     -10.839  10.495  67.725  1.00  0.00    -0.347 A  
HETATM   20  C   UNL     1     -11.863  11.730  69.591  1.00  0.00    -0.339 A  
HETATM   21  C   UNL     1     -11.520  10.528  68.967  1.00  0.00    -0.304 A  
BRANCH  20  22
HETATM   22  O   UNL     1     -12.533  11.593  70.774  1.00  0.00    -0.360 OA 
HETATM   23  C   UNL     1     -12.326  10.383  71.495  1.00  0.00    -0.368 C  
ENDBRANCH  20  22
ENDBRANCH   9  12
ENDBRANCH   1   9
BRANCH   6  24
HETATM   24  C   UNL     1      -6.629   6.415  70.396  1.00  0.00    -0.048 C  
HETATM   25  C   UNL     1      -5.878   7.371  70.958  1.00  0.00    -0.035 C  
ENDBRANCH   6  24
TORSDOF 4
ENDMDL
MODEL      106
REMARK 921   NORMALIZED FREE ENERGY PREDICTED BY IDOCK:   -4.78 KCAL/MOL
REMARK 922        TOTAL FREE ENERGY PREDICTED BY IDOCK:   -6.68 KCAL/MOL
REMARK 923 INTER-LIGAND FREE ENERGY PREDICTED BY IDOCK:   -6.08 KCAL/MOL
REMARK 924 INTRA-LIGAND FREE ENERGY PREDICTED BY IDOCK:   -0.60 KCAL/MOL
REMARK 927      BINDING AFFINITY PREDICTED BY RF-SCORE:    0.00 PKD
ROOT
HETATM    1  C   UNL     1     -10.605  13.563  67.089  1.00  0.00    -0.264 C  
HETATM    2  N   UNL     1      -9.548  13.903  66.078  1.00  0.00    -0.234 NA 
HETATM    3  C   UNL     1     -11.586  14.750  67.260  1.00  0.00    -0.385 C  
HETATM    4  C   UNL     1     -10.126  14.349  64.795  1.00  0.00    -0.103 C  
HETATM    5  C   UNL     1     -11.083  15.966  66.461  1.00  0.00    -0.028 C  
HETATM    6  C   UNL     1      -9.620  16.306  66.843  1.00  0.00    -0.244 C  
HETATM    7  C   UNL     1     -11.089  15.532  64.983  1.00  0.00    -0.411 C  
HETATM    8  C   UNL     1      -8.752  15.038  66.626  1.00  0.00    -0.254 C  
ENDROOT
BRANCH   1   9
HETATM    9  C   UNL     1     -11.307  12.170  66.868  1.00  0.00    -0.343 C  
HETATM   10  O   UNL     1     -12.571  12.242  66.196  1.00  0.00    -0.263 OA 
HETATM   11  H   UNL     1     -12.994  11.403  66.063  1.00  0.00     0.000 HD 
BRANCH   9  12
HETATM   12  C   UNL     1     -11.515  11.426  68.186  1.00  0.00    -0.375 A  
HETATM   13  N   UNL     1     -11.834  10.206  70.696  1.00  0.00    -0.317 NA 
HETATM   14  C   UNL     1     -12.154  12.088  69.247  1.00  0.00    -0.249 A  
HETATM   15  C   UNL     1     -11.247   9.544  69.686  1.00  0.00    -0.108 A  
HETATM   16  C   UNL     1     -10.816   8.251  69.940  1.00  0.00    -0.213 A  
HETATM   17  C   UNL     1     -12.281  11.450  70.460  1.00  0.00    -0.386 A  
HETATM   18  C   UNL     1     -10.196   7.469  68.961  1.00  0.00    -0.208 A  
HETATM   19  C   UNL     1     -11.047  10.099  68.401  1.00  0.00    -0.273 A  
HETATM   20  C   UNL     1      -9.988   7.993  67.694  1.00  0.00    -0.180 A  
HETATM   21  C   UNL     1     -10.405   9.299  67.424  1.00  0.00    -0.327 A  
BRANCH  20  22
HETATM   22  O   UNL     1      -9.402   7.348  66.642  1.00  0.00    -0.156 OA 
HETATM   23  C   UNL     1      -9.630   5.946  66.538  1.00  0.00    -0.156 C  
ENDBRANCH  20  22
ENDBRANCH   9  12
ENDBRANCH   1   9
BRANCH   6  24
HETATM   24  C   UNL     1      -9.491  16.836  68.253  1.00  0.00    -0.240 C  
HETATM   25  C   UNL     1      -9.745  18.101  68.607  1.00  0.00    -0.367 C  
ENDBRANCH   6  24
TORSDOF 4
ENDMDL
MODEL      107
REMARK 921   NORMALIZED FREE ENERGY PREDICTED BY IDOCK:   -4.77 KCAL/MOL
REMARK 922        TOTAL FREE ENERGY PREDICTED BY IDOCK:   -6.67 KCAL/MOL
REMARK 923 INTER-LIGAND FREE ENERGY PREDICTED BY IDOCK:   -5.96 KCAL/MOL
REMARK 924 INTRA-LIGAND FREE ENERGY PREDICTED BY IDOCK:   -0.71 KCAL/MOL
REMARK 927      BINDING AFFINITY PREDICTED BY RF-SCORE:    0.00 PKD
ROOT
HETATM    1  C   UNL     1      -9.969  12.640  67.546  1.00  0.00    -0.205 C  
HETATM    2  N   UNL     1      -9.413  14.023  67.368  1.00  0.00    -0.218 NA 
HETATM    3  C   UNL     1     -11.514  12.662  67.423  1.00  0.00    -0.397 C  
HETATM    4  C   UNL     1      -9.873  14.653  66.114  1.00  0.00    -0.312 C  
HETATM    5  C   UNL     1     -12.010  14.115  67.317  1.00  0.00    -0.449 C  
HETATM    6  C   UNL     1     -11.465  14.969  68.490  1.00  0.00    -0.335 C  
HETATM    7  C   UNL     1     -11.406  14.674  66.014  1.00  0.00    -0.344 C  
HETATM    8  C   UNL     1      -9.917  14.858  68.496  1.00  0.00    -0.223 C  
ENDROOT
BRANCH   1   9
HETATM    9  C   UNL     1      -9.268  11.529  66.677  1.00  0.00    -0.186 C  
HETATM   10  O   UNL     1      -9.716  11.468  65.317  1.00  0.00    -0.232 OA 
HETATM   11  H   UNL     1      -9.293  10.798  64.793  1.00  0.00     0.000 HD 
BRANCH   9  12
HETATM   12  C   UNL     1      -9.435  10.140  67.292  1.00  0.00    -0.178 A  
HETATM   13  N   UNL     1      -9.924   7.609  68.407  1.00  0.00    -0.171 NA 
HETATM   14  C   UNL     1     -10.312   9.228  66.683  1.00  0.00    -0.292 A  
HETATM   15  C   UNL     1      -9.058   8.454  68.989  1.00  0.00    -0.147 A  
HETATM   16  C   UNL     1      -8.430   8.022  70.146  1.00  0.00    -0.128 A  
HETATM   17  C   UNL     1     -10.522   8.001  67.271  1.00  0.00    -0.314 A  
HETATM   18  C   UNL     1      -7.507   8.817  70.833  1.00  0.00    -0.094 A  
HETATM   19  C   UNL     1      -8.772   9.745  68.488  1.00  0.00    -0.120 A  
HETATM   20  C   UNL     1      -7.211  10.088  70.360  1.00  0.00    -0.108 A  
HETATM   21  C   UNL     1      -7.846  10.545  69.202  1.00  0.00    -0.138 A  
BRANCH  20  22
HETATM   22  O   UNL     1      -6.333  10.971  70.921  1.00  0.00    -0.339 OA 
HETATM   23  C   UNL     1      -5.944  12.086  70.126  1.00  0.00    -0.159 C  
ENDBRANCH  20  22
ENDBRANCH   9  12
ENDBRANCH   1   9
BRANCH   6  24
HETATM   24  C   UNL     1     -12.058  14.578  69.824  1.00  0.00    -0.380 C  
HETATM   25  C   UNL     1     -12.768  15.403  70.604  1.00  0.00    -0.490 C  
ENDBRANCH   6  24
TORSDOF 4
ENDMDL
MODEL      108
REMARK 921   NORMALIZED FREE ENERGY PREDICTED BY IDOCK:   -4.75 KCAL/MOL
REMARK 922        TOTAL FREE ENERGY PREDICTED BY IDOCK:   -6.65 KCAL/MOL
REMARK 923 INTER-LIGAND FREE ENERGY PREDICTED BY IDOCK:   -6.56 KCAL/MOL
REMARK 924 INTRA-LIGAND FREE ENERGY PREDICTED BY IDOCK:   -0.09 KCAL/MOL
REMARK 927      BINDING AFFINITY PREDICTED BY RF-SCORE:    0.00 PKD
ROOT
HETATM    1  C   UNL     1     -10.229  11.561  68.276  1.00  0.00    -0.196 C  
HETATM    2  N   UNL     1      -9.056  12.379  67.817  1.00  0.00    -0.185 NA 
HETATM    3  C   UNL     1     -11.103  11.150  67.064  1.00  0.00    -0.339 C  
HETATM    4  C   UNL     1      -8.278  11.698  66.763  1.00  0.00    -0.161 C  
HETATM    5  C   UNL     1     -10.588  11.840  65.788  1.00  0.00    -0.312 C  
HETATM    6  C   UNL     1     -10.489  13.373  65.994  1.00  0.00    -0.294 C  
HETATM    7  C   UNL     1      -9.159  11.307  65.566  1.00  0.00    -0.184 C  
HETATM    8  C   UNL     1      -9.590  13.641  67.232  1.00  0.00    -0.238 C  
ENDROOT
BRANCH   1   9
HETATM    9  C   UNL     1      -9.868  10.372  69.244  1.00  0.00    -0.225 C  
HETATM   10  O   UNL     1      -9.566   9.137  68.583  1.00  0.00    -0.149 OA 
HETATM   11  H   UNL     1      -9.349   8.420  69.166  1.00  0.00     0.000 HD 
BRANCH   9  12
HETATM   12  C   UNL     1     -10.982  10.107  70.255  1.00  0.00    -0.380 A  
HETATM   13  N   UNL     1     -13.007   9.790  72.176  1.00  0.00    -0.409 NA 
HETATM   14  C   UNL     1     -11.993  11.068  70.420  1.00  0.00    -0.459 A  
HETATM   15  C   UNL     1     -12.068   8.844  72.013  1.00  0.00    -0.371 A  
HETATM   16  C   UNL     1     -12.148   7.724  72.825  1.00  0.00    -0.103 A  
HETATM   17  C   UNL     1     -12.961  10.870  71.379  1.00  0.00    -0.424 A  
HETATM   18  C   UNL     1     -11.227   6.676  72.739  1.00  0.00    -0.263 A  
HETATM   19  C   UNL     1     -11.017   8.943  71.073  1.00  0.00    -0.341 A  
HETATM   20  C   UNL     1     -10.186   6.751  71.824  1.00  0.00    -0.190 A  
HETATM   21  C   UNL     1     -10.083   7.879  71.007  1.00  0.00    -0.212 A  
BRANCH  20  22
HETATM   22  O   UNL     1      -9.218   5.807  71.627  1.00  0.00    -0.146 OA 
HETATM   23  C   UNL     1      -8.563   5.304  72.786  1.00  0.00    -0.120 C  
ENDBRANCH  20  22
ENDBRANCH   9  12
ENDBRANCH   1   9
BRANCH   6  24
HETATM   24  C   UNL     1     -11.841  14.034  66.132  1.00  0.00    -0.422 C  
HETATM   25  C   UNL     1     -12.822  13.936  65.227  1.00  0.00    -0.437 C  
ENDBRANCH   6  24
TORSDOF 4
ENDMDL
MODEL      109
REMARK 921   NORMALIZED FREE ENERGY PREDICTED BY IDOCK:   -4.74 KCAL/MOL
REMARK 922        TOTAL FREE ENERGY PREDICTED BY IDOCK:   -6.64 KCAL/MOL
REMARK 923 INTER-LIGAND FREE ENERGY PREDICTED BY IDOCK:   -6.60 KCAL/MOL
REMARK 924 INTRA-LIGAND FREE ENERGY PREDICTED BY IDOCK:   -0.04 KCAL/MOL
REMARK 927      BINDING AFFINITY PREDICTED BY RF-SCORE:    0.00 PKD
ROOT
HETATM    1  C   UNL     1     -10.714  12.746  66.653  1.00  0.00    -0.261 C  
HETATM    2  N   UNL     1     -11.838  13.709  66.905  1.00  0.00    -0.390 NA 
HETATM    3  C   UNL     1      -9.885  13.199  65.424  1.00  0.00    -0.123 C  
HETATM    4  C   UNL     1     -11.364  15.103  67.023  1.00  0.00    -0.277 C  
HETATM    5  C   UNL     1     -10.564  14.404  64.748  1.00  0.00    -0.417 C  
HETATM    6  C   UNL     1     -12.044  14.085  64.419  1.00  0.00    -0.486 C  
HETATM    7  C   UNL     1     -10.553  15.536  65.793  1.00  0.00    -0.370 C  
HETATM    8  C   UNL     1     -12.753  13.649  65.730  1.00  0.00    -0.416 C  
ENDROOT
BRANCH   1   9
HETATM    9  C   UNL     1      -9.849  12.393  67.921  1.00  0.00    -0.202 C  
HETATM   10  O   UNL     1     -10.178  13.148  69.094  1.00  0.00    -0.432 OA 
HETATM   11  H   UNL     1      -9.656  12.936  69.859  1.00  0.00     0.000 HD 
BRANCH   9  12
HETATM   12  C   UNL     1      -8.355  12.565  67.652  1.00  0.00    -0.172 A  
HETATM   13  N   UNL     1      -5.579  12.726  67.253  1.00  0.00    -0.336 NA 
HETATM   14  C   UNL     1      -7.614  11.461  67.200  1.00  0.00    -0.145 A  
HETATM   15  C   UNL     1      -6.273  13.802  67.657  1.00  0.00    -0.107 A  
HETATM   16  C   UNL     1      -5.563  14.975  67.862  1.00  0.00    -0.133 A  
HETATM   17  C   UNL     1      -6.254  11.589  67.024  1.00  0.00    -0.134 A  
HETATM   18  C   UNL     1      -6.184  16.157  68.279  1.00  0.00    -0.121 A  
HETATM   19  C   UNL     1      -7.668  13.790  67.886  1.00  0.00    -0.161 A  
HETATM   20  C   UNL     1      -7.552  16.168  68.511  1.00  0.00    -0.170 A  
HETATM   21  C   UNL     1      -8.281  14.991  68.322  1.00  0.00    -0.146 A  
BRANCH  20  22
HETATM   22  O   UNL     1      -8.291  17.243  68.915  1.00  0.00    -0.254 OA 
HETATM   23  C   UNL     1      -8.813  18.087  67.894  1.00  0.00    -0.268 C  
ENDBRANCH  20  22
ENDBRANCH   9  12
ENDBRANCH   1   9
BRANCH   6  24
HETATM   24  C   UNL     1     -12.193  13.046  63.331  1.00  0.00    -0.552 C  
HETATM   25  C   UNL     1     -12.756  11.845  63.510  1.00  0.00    -0.530 C  
ENDBRANCH   6  24
TORSDOF 4
ENDMDL
MODEL      110
REMARK 921   NORMALIZED FREE ENERGY PREDICTED BY IDOCK:   -4.74 KCAL/MOL
REMARK 922        TOTAL FREE ENERGY PREDICTED BY IDOCK:   -6.64 KCAL/MOL
REMARK 923 INTER-LIGAND FREE ENERGY PREDICTED BY IDOCK:   -7.63 KCAL/MOL
REMARK 924 INTRA-LIGAND FREE ENERGY PREDICTED BY IDOCK:    1.00 KCAL/MOL
REMARK 927      BINDING AFFINITY PREDICTED BY RF-SCORE:    0.00 PKD
ROOT
HETATM    1  C   UNL     1     -10.931   8.790  70.203  1.00  0.00    -0.223 C  
HETATM    2  N   UNL     1     -10.424   7.381  70.309  1.00  0.00    -0.216 NA 
HETATM    3  C   UNL     1     -11.519   9.252  71.560  1.00  0.00    -0.454 C  
HETATM    4  C   UNL     1      -9.473   7.213  71.425  1.00  0.00    -0.161 C  
HETATM    5  C   UNL     1     -11.547   8.072  72.549  1.00  0.00    -0.464 C  
HETATM    6  C   UNL     1     -12.283   6.856  71.932  1.00  0.00    -0.370 C  
HETATM    7  C   UNL     1     -10.076   7.667  72.763  1.00  0.00    -0.311 C  
HETATM    8  C   UNL     1     -11.595   6.502  70.585  1.00  0.00    -0.381 C  
ENDROOT
BRANCH   1   9
HETATM    9  C   UNL     1      -9.920   9.810  69.556  1.00  0.00    -0.214 C  
HETATM   10  O   UNL     1     -10.337  11.180  69.619  1.00  0.00    -0.440 OA 
HETATM   11  H   UNL     1      -9.727  11.795  69.229  1.00  0.00     0.000 HD 
BRANCH   9  12
HETATM   12  C   UNL     1      -9.631   9.471  68.095  1.00  0.00    -0.153 A  
HETATM   13  N   UNL     1      -8.923   8.827  65.454  1.00  0.00    -0.188 NA 
HETATM   14  C   UNL     1      -8.841   8.348  67.801  1.00  0.00    -0.137 A  
HETATM   15  C   UNL     1      -9.704   9.889  65.711  1.00  0.00    -0.266 A  
HETATM   16  C   UNL     1     -10.136  10.636  64.626  1.00  0.00    -0.417 A  
HETATM   17  C   UNL     1      -8.516   8.077  66.491  1.00  0.00    -0.136 A  
HETATM   18  C   UNL     1     -10.957  11.758  64.775  1.00  0.00    -0.360 A  
HETATM   19  C   UNL     1     -10.092  10.275  67.014  1.00  0.00    -0.268 A  
HETATM   20  C   UNL     1     -11.349  12.157  66.045  1.00  0.00    -0.358 A  
HETATM   21  C   UNL     1     -10.912  11.423  67.151  1.00  0.00    -0.340 A  
BRANCH  20  22
HETATM   22  O   UNL     1     -12.147  13.225  66.343  1.00  0.00    -0.403 OA 
HETATM   23  C   UNL     1     -12.772  13.887  65.249  1.00  0.00    -0.449 C  
ENDBRANCH  20  22
ENDBRANCH   9  12
ENDBRANCH   1   9
BRANCH   6  24
HETATM   24  C   UNL     1     -13.765   7.095  71.755  1.00  0.00    -0.361 C  
HETATM   25  C   UNL     1     -14.327   8.307  71.675  1.00  0.00    -0.561 C  
ENDBRANCH   6  24
TORSDOF 4
ENDMDL
MODEL      111
REMARK 921   NORMALIZED FREE ENERGY PREDICTED BY IDOCK:   -4.73 KCAL/MOL
REMARK 922        TOTAL FREE ENERGY PREDICTED BY IDOCK:   -6.63 KCAL/MOL
REMARK 923 INTER-LIGAND FREE ENERGY PREDICTED BY IDOCK:   -6.29 KCAL/MOL
REMARK 924 INTRA-LIGAND FREE ENERGY PREDICTED BY IDOCK:   -0.34 KCAL/MOL
REMARK 927      BINDING AFFINITY PREDICTED BY RF-SCORE:    0.00 PKD
ROOT
HETATM    1  C   UNL     1      -9.718   9.935  66.524  1.00  0.00    -0.204 C  
HETATM    2  N   UNL     1     -10.300   8.557  66.656  1.00  0.00    -0.284 NA 
HETATM    3  C   UNL     1      -8.436  10.060  67.385  1.00  0.00    -0.121 C  
HETATM    4  C   UNL     1      -9.311   7.502  66.356  1.00  0.00    -0.157 C  
HETATM    5  C   UNL     1      -8.246   8.788  68.231  1.00  0.00    -0.118 C  
HETATM    6  C   UNL     1      -9.522   8.481  69.055  1.00  0.00    -0.150 C  
HETATM    7  C   UNL     1      -8.052   7.637  67.225  1.00  0.00    -0.119 C  
HETATM    8  C   UNL     1     -10.722   8.381  68.074  1.00  0.00    -0.055 C  
ENDROOT
BRANCH   1   9
HETATM    9  C   UNL     1      -9.554  10.445  65.043  1.00  0.00    -0.280 C  
HETATM   10  O   UNL     1      -8.219  10.829  64.692  1.00  0.00    -0.345 OA 
HETATM   11  H   UNL     1      -8.119  11.136  63.799  1.00  0.00     0.000 HD 
BRANCH   9  12
HETATM   12  C   UNL     1     -10.478  11.624  64.745  1.00  0.00    -0.346 A  
HETATM   13  N   UNL     1     -12.137  13.771  64.018  1.00  0.00    -0.540 NA 
HETATM   14  C   UNL     1     -11.412  11.508  63.703  1.00  0.00    -0.374 A  
HETATM   15  C   UNL     1     -11.272  13.893  65.038  1.00  0.00    -0.342 A  
HETATM   16  C   UNL     1     -11.241  15.109  65.702  1.00  0.00    -0.296 A  
HETATM   17  C   UNL     1     -12.200  12.591  63.381  1.00  0.00    -0.517 A  
HETATM   18  C   UNL     1     -10.383  15.346  66.780  1.00  0.00    -0.279 A  
HETATM   19  C   UNL     1     -10.402  12.857  65.451  1.00  0.00    -0.310 A  
HETATM   20  C   UNL     1      -9.519  14.345  67.202  1.00  0.00    -0.222 A  
HETATM   21  C   UNL     1      -9.528  13.117  66.536  1.00  0.00    -0.246 A  
BRANCH  20  22
HETATM   22  O   UNL     1      -8.632  14.430  68.237  1.00  0.00    -0.156 OA 
HETATM   23  C   UNL     1      -7.279  14.086  67.956  1.00  0.00    -0.144 C  
ENDBRANCH  20  22
ENDBRANCH   9  12
ENDBRANCH   1   9
BRANCH   6  24
HETATM   24  C   UNL     1      -9.775   9.495  70.146  1.00  0.00    -0.289 C  
HETATM   25  C   UNL     1     -10.991   9.893  70.537  1.00  0.00    -0.391 C  
ENDBRANCH   6  24
TORSDOF 4
ENDMDL
MODEL      112
REMARK 921   NORMALIZED FREE ENERGY PREDICTED BY IDOCK:   -4.73 KCAL/MOL
REMARK 922        TOTAL FREE ENERGY PREDICTED BY IDOCK:   -6.63 KCAL/MOL
REMARK 923 INTER-LIGAND FREE ENERGY PREDICTED BY IDOCK:   -5.96 KCAL/MOL
REMARK 924 INTRA-LIGAND FREE ENERGY PREDICTED BY IDOCK:   -0.66 KCAL/MOL
REMARK 927      BINDING AFFINITY PREDICTED BY RF-SCORE:    0.00 PKD
ROOT
HETATM    1  C   UNL     1      -7.843  17.210  68.092  1.00  0.00    -0.206 C  
HETATM    2  N   UNL     1      -7.709  18.270  69.147  1.00  0.00    -0.110 NA 
HETATM    3  C   UNL     1      -7.425  17.773  66.710  1.00  0.00    -0.244 C  
HETATM    4  C   UNL     1      -6.361  18.873  69.165  1.00  0.00    -0.268 C  
HETATM    5  C   UNL     1      -7.155  19.285  66.819  1.00  0.00    -0.218 C  
HETATM    6  C   UNL     1      -8.369  20.015  67.448  1.00  0.00    -0.382 C  
HETATM    7  C   UNL     1      -5.968  19.433  67.790  1.00  0.00    -0.214 C  
HETATM    8  C   UNL     1      -8.677  19.355  68.819  1.00  0.00    -0.337 C  
ENDROOT
BRANCH   1   9
HETATM    9  C   UNL     1      -7.180  15.828  68.455  1.00  0.00    -0.119 C  
HETATM   10  O   UNL     1      -5.859  15.648  67.929  1.00  0.00    -0.120 OA 
HETATM   11  H   UNL     1      -5.459  14.814  68.148  1.00  0.00     0.000 HD 
BRANCH   9  12
HETATM   12  C   UNL     1      -8.037  14.651  67.994  1.00  0.00    -0.135 A  
HETATM   13  N   UNL     1      -9.554  12.518  66.975  1.00  0.00    -0.211 NA 
HETATM   14  C   UNL     1      -7.471  13.692  67.139  1.00  0.00     0.085 A  
HETATM   15  C   UNL     1     -10.107  13.407  67.816  1.00  0.00    -0.232 A  
HETATM   16  C   UNL     1     -11.440  13.222  68.149  1.00  0.00    -0.347 A  
HETATM   17  C   UNL     1      -8.257  12.667  66.662  1.00  0.00     0.140 A  
HETATM   18  C   UNL     1     -12.115  14.083  69.019  1.00  0.00    -0.358 A  
HETATM   19  C   UNL     1      -9.406  14.508  68.358  1.00  0.00    -0.208 A  
HETATM   20  C   UNL     1     -11.448  15.171  69.562  1.00  0.00    -0.296 A  
HETATM   21  C   UNL     1     -10.108  15.381  69.226  1.00  0.00    -0.253 A  
BRANCH  20  22
HETATM   22  O   UNL     1     -11.975  16.091  70.424  1.00  0.00    -0.340 OA 
HETATM   23  C   UNL     1     -13.061  15.662  71.239  1.00  0.00    -0.473 C  
ENDBRANCH  20  22
ENDBRANCH   9  12
ENDBRANCH   1   9
BRANCH   6  24
HETATM   24  C   UNL     1      -9.581  20.021  66.546  1.00  0.00    -0.539 C  
HETATM   25  C   UNL     1     -10.777  19.528  66.889  1.00  0.00    -0.576 C  
ENDBRANCH   6  24
TORSDOF 4
ENDMDL
MODEL      113
REMARK 921   NORMALIZED FREE ENERGY PREDICTED BY IDOCK:   -4.71 KCAL/MOL
REMARK 922        TOTAL FREE ENERGY PREDICTED BY IDOCK:   -6.60 KCAL/MOL
REMARK 923 INTER-LIGAND FREE ENERGY PREDICTED BY IDOCK:   -5.69 KCAL/MOL
REMARK 924 INTRA-LIGAND FREE ENERGY PREDICTED BY IDOCK:   -0.91 KCAL/MOL
REMARK 927      BINDING AFFINITY PREDICTED BY RF-SCORE:    0.00 PKD
ROOT
HETATM    1  C   UNL     1      -8.728  11.962  68.235  1.00  0.00    -0.170 C  
HETATM    2  N   UNL     1      -8.122  10.639  68.604  1.00  0.00    -0.124 NA 
HETATM    3  C   UNL     1      -7.825  12.700  67.214  1.00  0.00    -0.155 C  
HETATM    4  C   UNL     1      -7.817   9.815  67.418  1.00  0.00    -0.099 C  
HETATM    5  C   UNL     1      -6.511  11.922  67.017  1.00  0.00    -0.136 C  
HETATM    6  C   UNL     1      -5.823  11.654  68.380  1.00  0.00    -0.045 C  
HETATM    7  C   UNL     1      -6.913  10.558  66.422  1.00  0.00    -0.124 C  
HETATM    8  C   UNL     1      -6.833  10.914  69.299  1.00  0.00    -0.105 C  
ENDROOT
BRANCH   1   9
HETATM    9  C   UNL     1     -10.248  11.903  67.827  1.00  0.00    -0.200 C  
HETATM   10  O   UNL     1     -10.564  12.587  66.608  1.00  0.00    -0.234 OA 
HETATM   11  H   UNL     1     -11.480  12.552  66.361  1.00  0.00     0.000 HD 
BRANCH   9  12
HETATM   12  C   UNL     1     -11.151  12.458  68.927  1.00  0.00    -0.307 A  
HETATM   13  N   UNL     1     -12.685  13.607  70.981  1.00  0.00    -0.343 NA 
HETATM   14  C   UNL     1     -11.389  13.841  68.979  1.00  0.00    -0.333 A  
HETATM   15  C   UNL     1     -12.495  12.278  70.934  1.00  0.00    -0.276 A  
HETATM   16  C   UNL     1     -13.085  11.517  71.931  1.00  0.00    -0.492 A  
HETATM   17  C   UNL     1     -12.143  14.357  70.008  1.00  0.00    -0.343 A  
HETATM   18  C   UNL     1     -12.957  10.126  71.977  1.00  0.00    -0.508 A  
HETATM   19  C   UNL     1     -11.729  11.635  69.935  1.00  0.00    -0.414 A  
HETATM   20  C   UNL     1     -12.209   9.473  71.008  1.00  0.00    -0.304 A  
HETATM   21  C   UNL     1     -11.596  10.226  70.003  1.00  0.00    -0.349 A  
BRANCH  20  22
HETATM   22  O   UNL     1     -12.000   8.125  70.925  1.00  0.00    -0.275 OA 
HETATM   23  C   UNL     1     -11.084   7.675  69.932  1.00  0.00    -0.150 C  
ENDBRANCH  20  22
ENDBRANCH   9  12
ENDBRANCH   1   9
BRANCH   6  24
HETATM   24  C   UNL     1      -5.296  12.913  69.028  1.00  0.00    -0.068 C  
HETATM   25  C   UNL     1      -5.771  13.427  70.169  1.00  0.00    -0.136 C  
ENDBRANCH   6  24
TORSDOF 4
ENDMDL
MODEL      114
REMARK 921   NORMALIZED FREE ENERGY PREDICTED BY IDOCK:   -4.71 KCAL/MOL
REMARK 922        TOTAL FREE ENERGY PREDICTED BY IDOCK:   -6.59 KCAL/MOL
REMARK 923 INTER-LIGAND FREE ENERGY PREDICTED BY IDOCK:   -7.09 KCAL/MOL
REMARK 924 INTRA-LIGAND FREE ENERGY PREDICTED BY IDOCK:    0.50 KCAL/MOL
REMARK 927      BINDING AFFINITY PREDICTED BY RF-SCORE:    0.00 PKD
ROOT
HETATM    1  C   UNL     1      -9.991  13.151  67.429  1.00  0.00    -0.229 C  
HETATM    2  N   UNL     1     -10.947  12.336  66.606  1.00  0.00    -0.265 NA 
HETATM    3  C   UNL     1      -9.252  12.245  68.446  1.00  0.00    -0.145 C  
HETATM    4  C   UNL     1     -10.287  11.182  65.963  1.00  0.00    -0.254 C  
HETATM    5  C   UNL     1      -9.841  10.823  68.407  1.00  0.00    -0.177 C  
HETATM    6  C   UNL     1     -11.377  10.860  68.607  1.00  0.00    -0.360 C  
HETATM    7  C   UNL     1      -9.568  10.292  66.987  1.00  0.00    -0.205 C  
HETATM    8  C   UNL     1     -11.986  11.797  67.528  1.00  0.00    -0.002 C  
ENDROOT
BRANCH   1   9
HETATM    9  C   UNL     1      -9.044  14.097  66.598  1.00  0.00    -0.216 C  
HETATM   10  O   UNL     1      -7.929  14.615  67.334  1.00  0.00    -0.176 OA 
HETATM   11  H   UNL     1      -7.358  15.186  66.834  1.00  0.00     0.000 HD 
BRANCH   9  12
HETATM   12  C   UNL     1      -9.807  15.278  66.001  1.00  0.00    -0.357 A  
HETATM   13  N   UNL     1     -11.169  17.384  64.736  1.00  0.00    -0.782 NA 
HETATM   14  C   UNL     1     -10.741  15.039  64.981  1.00  0.00    -0.448 A  
HETATM   15  C   UNL     1     -10.302  17.633  65.731  1.00  0.00    -0.188 A  
HETATM   16  C   UNL     1     -10.118  18.958  66.095  1.00  0.00    -0.438 A  
HETATM   17  C   UNL     1     -11.379  16.105  64.388  1.00  0.00    -0.201 A  
HETATM   18  C   UNL     1      -9.244  19.332  67.120  1.00  0.00    -0.354 A  
HETATM   19  C   UNL     1      -9.576  16.624  66.405  1.00  0.00    -0.308 A  
HETATM   20  C   UNL     1      -8.520  18.359  67.794  1.00  0.00    -0.259 A  
HETATM   21  C   UNL     1      -8.683  17.020  67.431  1.00  0.00    -0.211 A  
BRANCH  20  22
HETATM   22  O   UNL     1      -7.636  18.574  68.813  1.00  0.00    -0.298 OA 
HETATM   23  C   UNL     1      -6.914  19.801  68.791  1.00  0.00    -0.331 C  
ENDBRANCH  20  22
ENDBRANCH   9  12
ENDBRANCH   1   9
BRANCH   6  24
HETATM   24  C   UNL     1     -11.777  11.280  70.002  1.00  0.00    -0.428 C  
HETATM   25  C   UNL     1     -11.900  10.439  71.035  1.00  0.00    -0.458 C  
ENDBRANCH   6  24
TORSDOF 4
ENDMDL
MODEL      115
REMARK 921   NORMALIZED FREE ENERGY PREDICTED BY IDOCK:   -4.70 KCAL/MOL
REMARK 922        TOTAL FREE ENERGY PREDICTED BY IDOCK:   -6.59 KCAL/MOL
REMARK 923 INTER-LIGAND FREE ENERGY PREDICTED BY IDOCK:   -5.89 KCAL/MOL
REMARK 924 INTRA-LIGAND FREE ENERGY PREDICTED BY IDOCK:   -0.70 KCAL/MOL
REMARK 927      BINDING AFFINITY PREDICTED BY RF-SCORE:    0.00 PKD
ROOT
HETATM    1  C   UNL     1     -10.613   6.688  68.700  1.00  0.00    -0.234 C  
HETATM    2  N   UNL     1     -10.228   5.296  69.109  1.00  0.00    -0.216 NA 
HETATM    3  C   UNL     1      -9.597   7.714  69.264  1.00  0.00    -0.159 C  
HETATM    4  C   UNL     1      -8.834   4.972  68.745  1.00  0.00    -0.093 C  
HETATM    5  C   UNL     1      -8.601   7.006  70.200  1.00  0.00    -0.140 C  
HETATM    6  C   UNL     1      -9.350   6.204  71.294  1.00  0.00    -0.170 C  
HETATM    7  C   UNL     1      -7.841   5.994  69.319  1.00  0.00    -0.103 C  
HETATM    8  C   UNL     1     -10.328   5.221  70.595  1.00  0.00    -0.254 C  
ENDROOT
BRANCH   1   9
HETATM    9  C   UNL     1     -10.925   6.864  67.166  1.00  0.00    -0.357 C  
HETATM   10  O   UNL     1     -11.112   5.635  66.453  1.00  0.00    -0.704 OA 
HETATM   11  H   UNL     1     -11.300   5.741  65.528  1.00  0.00     0.000 HD 
BRANCH   9  12
HETATM   12  C   UNL     1      -9.834   7.661  66.455  1.00  0.00    -0.242 A  
HETATM   13  N   UNL     1      -7.702   9.033  65.244  1.00  0.00    -0.097 NA 
HETATM   14  C   UNL     1      -8.734   6.976  65.915  1.00  0.00    -0.140 A  
HETATM   15  C   UNL     1      -8.759   9.706  65.727  1.00  0.00    -0.147 A  
HETATM   16  C   UNL     1      -8.745  11.086  65.599  1.00  0.00    -0.162 A  
HETATM   17  C   UNL     1      -7.711   7.693  65.336  1.00  0.00    -0.104 A  
HETATM   18  C   UNL     1      -9.794  11.886  66.062  1.00  0.00    -0.258 A  
HETATM   19  C   UNL     1      -9.861   9.081  66.356  1.00  0.00    -0.356 A  
HETATM   20  C   UNL     1     -10.884  11.295  66.683  1.00  0.00    -0.273 A  
HETATM   21  C   UNL     1     -10.909   9.906  66.833  1.00  0.00    -0.137 A  
BRANCH  20  22
HETATM   22  O   UNL     1     -11.978  11.946  67.180  1.00  0.00    -0.611 OA 
HETATM   23  C   UNL     1     -12.015  13.360  67.017  1.00  0.00    -0.379 C  
ENDBRANCH  20  22
ENDBRANCH   9  12
ENDBRANCH   1   9
BRANCH   6  24
HETATM   24  C   UNL     1     -10.066   7.093  72.285  1.00  0.00    -0.202 C  
HETATM   25  C   UNL     1      -9.494   8.120  72.924  1.00  0.00    -0.345 C  
ENDBRANCH   6  24
TORSDOF 4
ENDMDL
MODEL      116
REMARK 921   NORMALIZED FREE ENERGY PREDICTED BY IDOCK:   -4.70 KCAL/MOL
REMARK 922        TOTAL FREE ENERGY PREDICTED BY IDOCK:   -6.58 KCAL/MOL
REMARK 923 INTER-LIGAND FREE ENERGY PREDICTED BY IDOCK:   -5.74 KCAL/MOL
REMARK 924 INTRA-LIGAND FREE ENERGY PREDICTED BY IDOCK:   -0.84 KCAL/MOL
REMARK 927      BINDING AFFINITY PREDICTED BY RF-SCORE:    0.00 PKD
ROOT
HETATM    1  C   UNL     1     -10.250   8.649  69.622  1.00  0.00    -0.208 C  
HETATM    2  N   UNL     1     -10.760   9.170  70.934  1.00  0.00    -0.250 NA 
HETATM    3  C   UNL     1     -10.383   7.106  69.569  1.00  0.00    -0.224 C  
HETATM    4  C   UNL     1     -12.133   8.709  71.222  1.00  0.00    -0.290 C  
HETATM    5  C   UNL     1     -10.847   6.572  70.937  1.00  0.00    -0.302 C  
HETATM    6  C   UNL     1      -9.917   7.080  72.068  1.00  0.00    -0.172 C  
HETATM    7  C   UNL     1     -12.244   7.178  71.175  1.00  0.00    -0.405 C  
HETATM    8  C   UNL     1      -9.876   8.631  72.006  1.00  0.00    -0.325 C  
ENDROOT
BRANCH   1   9
HETATM    9  C   UNL     1     -10.815   9.389  68.352  1.00  0.00    -0.109 C  
HETATM   10  O   UNL     1     -11.003   8.547  67.207  1.00  0.00    -0.447 OA 
HETATM   11  H   UNL     1     -11.343   8.993  66.441  1.00  0.00     0.000 HD 
BRANCH   9  12
HETATM   12  C   UNL     1      -9.925  10.559  67.936  1.00  0.00    -0.193 A  
HETATM   13  N   UNL     1      -8.143  12.611  67.226  1.00  0.00    -0.184 NA 
HETATM   14  C   UNL     1      -8.780  10.302  67.164  1.00  0.00    -0.131 A  
HETATM   15  C   UNL     1      -9.247  12.884  67.939  1.00  0.00    -0.208 A  
HETATM   16  C   UNL     1      -9.460  14.206  68.299  1.00  0.00    -0.211 A  
HETATM   17  C   UNL     1      -7.934  11.340  66.846  1.00  0.00    -0.155 A  
HETATM   18  C   UNL     1     -10.579  14.604  69.037  1.00  0.00    -0.248 A  
HETATM   19  C   UNL     1     -10.181  11.900  68.338  1.00  0.00    -0.205 A  
HETATM   20  C   UNL     1     -11.508  13.656  69.440  1.00  0.00    -0.286 A  
HETATM   21  C   UNL     1     -11.302  12.317  69.098  1.00  0.00    -0.330 A  
BRANCH  20  22
HETATM   22  O   UNL     1     -12.644  13.897  70.159  1.00  0.00    -0.314 OA 
HETATM   23  C   UNL     1     -12.809  13.165  71.369  1.00  0.00    -0.311 C  
ENDBRANCH  20  22
ENDBRANCH   9  12
ENDBRANCH   1   9
BRANCH   6  24
HETATM   24  C   UNL     1      -8.531   6.481  72.000  1.00  0.00    -0.114 C  
HETATM   25  C   UNL     1      -8.278   5.167  72.000  1.00  0.00    -0.117 C  
ENDBRANCH   6  24
TORSDOF 4
ENDMDL
MODEL      117
REMARK 921   NORMALIZED FREE ENERGY PREDICTED BY IDOCK:   -4.69 KCAL/MOL
REMARK 922        TOTAL FREE ENERGY PREDICTED BY IDOCK:   -6.57 KCAL/MOL
REMARK 923 INTER-LIGAND FREE ENERGY PREDICTED BY IDOCK:   -5.73 KCAL/MOL
REMARK 924 INTRA-LIGAND FREE ENERGY PREDICTED BY IDOCK:   -0.84 KCAL/MOL
REMARK 927      BINDING AFFINITY PREDICTED BY RF-SCORE:    0.00 PKD
ROOT
HETATM    1  C   UNL     1      -9.502   7.978  68.668  1.00  0.00    -0.147 C  
HETATM    2  N   UNL     1     -10.543   8.126  67.596  1.00  0.00    -0.219 NA 
HETATM    3  C   UNL     1      -8.273   7.208  68.120  1.00  0.00    -0.124 C  
HETATM    4  C   UNL     1      -9.996   8.733  66.366  1.00  0.00    -0.275 C  
HETATM    5  C   UNL     1      -8.567   6.695  66.698  1.00  0.00    -0.123 C  
HETATM    6  C   UNL     1      -9.881   5.874  66.671  1.00  0.00    -0.197 C  
HETATM    7  C   UNL     1      -8.786   7.952  65.833  1.00  0.00    -0.180 C  
HETATM    8  C   UNL     1     -11.021   6.759  67.243  1.00  0.00    -0.363 C  
ENDROOT
BRANCH   1   9
HETATM    9  C   UNL     1      -9.142   9.309  69.429  1.00  0.00    -0.152 C  
HETATM   10  O   UNL     1      -8.195   9.148  70.492  1.00  0.00    -0.142 OA 
HETATM   11  H   UNL     1      -7.978   9.950  70.952  1.00  0.00     0.000 HD 
BRANCH   9  12
HETATM   12  C   UNL     1     -10.386   9.985  70.004  1.00  0.00    -0.323 A  
HETATM   13  N   UNL     1     -12.762  11.072  71.036  1.00  0.00    -0.380 NA 
HETATM   14  C   UNL     1     -11.131   9.316  70.987  1.00  0.00    -0.396 A  
HETATM   15  C   UNL     1     -12.048  11.743  70.117  1.00  0.00    -0.317 A  
HETATM   16  C   UNL     1     -12.534  12.976  69.713  1.00  0.00    -0.002 A  
HETATM   17  C   UNL     1     -12.292   9.887  71.458  1.00  0.00    -0.412 A  
HETATM   18  C   UNL     1     -11.871  13.763  68.767  1.00  0.00    -0.398 A  
HETATM   19  C   UNL     1     -10.850  11.253  69.550  1.00  0.00    -0.207 A  
HETATM   20  C   UNL     1     -10.694  13.302  68.195  1.00  0.00    -0.249 A  
HETATM   21  C   UNL     1     -10.196  12.054  68.581  1.00  0.00    -0.189 A  
BRANCH  20  22
HETATM   22  O   UNL     1      -9.939  13.959  67.265  1.00  0.00    -0.237 OA 
HETATM   23  C   UNL     1     -10.640  14.718  66.286  1.00  0.00    -0.305 C  
ENDBRANCH  20  22
ENDBRANCH   9  12
ENDBRANCH   1   9
BRANCH   6  24
HETATM   24  C   UNL     1      -9.767   4.562  67.413  1.00  0.00    -0.218 C  
HETATM   25  C   UNL     1      -9.485   3.390  66.831  1.00  0.00    -0.174 C  
ENDBRANCH   6  24
TORSDOF 4
ENDMDL
MODEL      118
REMARK 921   NORMALIZED FREE ENERGY PREDICTED BY IDOCK:   -4.68 KCAL/MOL
REMARK 922        TOTAL FREE ENERGY PREDICTED BY IDOCK:   -6.56 KCAL/MOL
REMARK 923 INTER-LIGAND FREE ENERGY PREDICTED BY IDOCK:   -6.14 KCAL/MOL
REMARK 924 INTRA-LIGAND FREE ENERGY PREDICTED BY IDOCK:   -0.42 KCAL/MOL
REMARK 927      BINDING AFFINITY PREDICTED BY RF-SCORE:    0.00 PKD
ROOT
HETATM    1  C   UNL     1      -8.523  18.029  67.230  1.00  0.00    -0.234 C  
HETATM    2  N   UNL     1      -7.577  18.395  66.123  1.00  0.00    -0.368 NA 
HETATM    3  C   UNL     1      -8.272  18.927  68.468  1.00  0.00    -0.388 C  
HETATM    4  C   UNL     1      -7.625  19.834  65.799  1.00  0.00    -0.289 C  
HETATM    5  C   UNL     1      -7.027  19.804  68.237  1.00  0.00    -0.333 C  
HETATM    6  C   UNL     1      -5.808  18.933  67.840  1.00  0.00    -0.198 C  
HETATM    7  C   UNL     1      -7.365  20.707  67.036  1.00  0.00    -0.370 C  
HETATM    8  C   UNL     1      -6.195  18.091  66.594  1.00  0.00    -0.173 C  
ENDROOT
BRANCH   1   9
HETATM    9  C   UNL     1     -10.035  17.929  66.801  1.00  0.00    -0.339 C  
HETATM   10  O   UNL     1     -10.967  18.013  67.887  1.00  0.00    -0.297 OA 
HETATM   11  H   UNL     1     -11.879  17.952  67.628  1.00  0.00     0.000 HD 
BRANCH   9  12
HETATM   12  C   UNL     1     -10.321  16.641  66.032  1.00  0.00    -0.352 A  
HETATM   13  N   UNL     1     -11.022  14.321  64.611  1.00  0.00    -0.388 NA 
HETATM   14  C   UNL     1     -11.108  16.702  64.871  1.00  0.00    -0.137 A  
HETATM   15  C   UNL     1     -10.243  14.243  65.701  1.00  0.00    -0.347 A  
HETATM   16  C   UNL     1      -9.809  12.983  66.082  1.00  0.00    -0.275 A  
HETATM   17  C   UNL     1     -11.430  15.537  64.212  1.00  0.00    -0.180 A  
HETATM   18  C   UNL     1      -8.991  12.784  67.198  1.00  0.00    -0.214 A  
HETATM   19  C   UNL     1      -9.858  15.367  66.468  1.00  0.00    -0.288 A  
HETATM   20  C   UNL     1      -8.602  13.872  67.966  1.00  0.00    -0.178 A  
HETATM   21  C   UNL     1      -9.041  15.148  67.604  1.00  0.00    -0.181 A  
BRANCH  20  22
HETATM   22  O   UNL     1      -7.806  13.831  69.076  1.00  0.00    -0.042 OA 
HETATM   23  C   UNL     1      -7.511  15.074  69.703  1.00  0.00    -0.161 C  
ENDBRANCH  20  22
ENDBRANCH   9  12
ENDBRANCH   1   9
BRANCH   6  24
HETATM   24  C   UNL     1      -5.318  18.060  68.972  1.00  0.00    -0.183 C  
HETATM   25  C   UNL     1      -5.135  18.488  70.227  1.00  0.00    -0.222 C  
ENDBRANCH   6  24
TORSDOF 4
ENDMDL
MODEL      119
REMARK 921   NORMALIZED FREE ENERGY PREDICTED BY IDOCK:   -4.66 KCAL/MOL
REMARK 922        TOTAL FREE ENERGY PREDICTED BY IDOCK:   -6.53 KCAL/MOL
REMARK 923 INTER-LIGAND FREE ENERGY PREDICTED BY IDOCK:   -6.33 KCAL/MOL
REMARK 924 INTRA-LIGAND FREE ENERGY PREDICTED BY IDOCK:   -0.20 KCAL/MOL
REMARK 927      BINDING AFFINITY PREDICTED BY RF-SCORE:    0.00 PKD
ROOT
HETATM    1  C   UNL     1      -8.706  11.382  66.470  1.00  0.00    -0.181 C  
HETATM    2  N   UNL     1      -7.558  10.446  66.717  1.00  0.00    -0.107 NA 
HETATM    3  C   UNL     1      -9.969  10.584  66.058  1.00  0.00    -0.295 C  
HETATM    4  C   UNL     1      -7.900   9.387  67.687  1.00  0.00    -0.095 C  
HETATM    5  C   UNL     1      -9.614   9.097  65.875  1.00  0.00    -0.343 C  
HETATM    6  C   UNL     1      -8.426   8.934  64.894  1.00  0.00    -0.195 C  
HETATM    7  C   UNL     1      -9.148   8.601  67.257  1.00  0.00    -0.152 C  
HETATM    8  C   UNL     1      -7.236   9.779  65.424  1.00  0.00    -0.114 C  
ENDROOT
BRANCH   1   9
HETATM    9  C   UNL     1      -8.954  12.440  67.610  1.00  0.00    -0.183 C  
HETATM   10  O   UNL     1     -10.147  12.223  68.373  1.00  0.00    -0.214 OA 
HETATM   11  H   UNL     1     -10.297  12.861  69.060  1.00  0.00     0.000 HD 
BRANCH   9  12
HETATM   12  C   UNL     1      -8.997  13.865  67.060  1.00  0.00    -0.251 A  
HETATM   13  N   UNL     1      -9.049  16.544  66.219  1.00  0.00    -0.294 NA 
HETATM   14  C   UNL     1      -7.997  14.773  67.443  1.00  0.00    -0.220 A  
HETATM   15  C   UNL     1      -9.999  15.685  65.816  1.00  0.00    -0.359 A  
HETATM   16  C   UNL     1     -10.987  16.179  64.979  1.00  0.00    -0.357 A  
HETATM   17  C   UNL     1      -8.069  16.077  67.009  1.00  0.00    -0.222 A  
HETATM   18  C   UNL     1     -12.023  15.374  64.495  1.00  0.00    -0.226 A  
HETATM   19  C   UNL     1     -10.039  14.327  66.207  1.00  0.00    -0.308 A  
HETATM   20  C   UNL     1     -12.083  14.038  64.867  1.00  0.00    -0.420 A  
HETATM   21  C   UNL     1     -11.103  13.527  65.721  1.00  0.00    -0.295 A  
BRANCH  20  22
HETATM   22  O   UNL     1     -13.030  13.135  64.472  1.00  0.00    -0.688 OA 
HETATM   23  C   UNL     1     -12.634  12.168  63.505  1.00  0.00    -0.506 C  
ENDBRANCH  20  22
ENDBRANCH   9  12
ENDBRANCH   1   9
BRANCH   6  24
HETATM   24  C   UNL     1      -8.784   9.303  63.473  1.00  0.00    -0.188 C  
HETATM   25  C   UNL     1      -7.886   9.547  62.510  1.00  0.00    -0.119 C  
ENDBRANCH   6  24
TORSDOF 4
ENDMDL
MODEL      120
REMARK 921   NORMALIZED FREE ENERGY PREDICTED BY IDOCK:   -4.66 KCAL/MOL
REMARK 922        TOTAL FREE ENERGY PREDICTED BY IDOCK:   -6.53 KCAL/MOL
REMARK 923 INTER-LIGAND FREE ENERGY PREDICTED BY IDOCK:   -6.17 KCAL/MOL
REMARK 924 INTRA-LIGAND FREE ENERGY PREDICTED BY IDOCK:   -0.36 KCAL/MOL
REMARK 927      BINDING AFFINITY PREDICTED BY RF-SCORE:    0.00 PKD
ROOT
HETATM    1  C   UNL     1     -10.220   9.897  67.285  1.00  0.00    -0.222 C  
HETATM    2  N   UNL     1     -10.789   8.539  67.578  1.00  0.00    -0.124 NA 
HETATM    3  C   UNL     1      -8.672   9.834  67.248  1.00  0.00    -0.135 C  
HETATM    4  C   UNL     1     -10.286   7.510  66.647  1.00  0.00    -0.190 C  
HETATM    5  C   UNL     1      -8.193   8.436  67.680  1.00  0.00    -0.126 C  
HETATM    6  C   UNL     1      -8.801   8.048  69.052  1.00  0.00    -0.145 C  
HETATM    7  C   UNL     1      -8.751   7.456  66.630  1.00  0.00    -0.141 C  
HETATM    8  C   UNL     1     -10.347   8.153  68.948  1.00  0.00    -0.211 C  
ENDROOT
BRANCH   1   9
HETATM    9  C   UNL     1     -10.866  10.633  66.051  1.00  0.00     0.019 C  
HETATM   10  O   UNL     1     -10.196  10.404  64.805  1.00  0.00    -0.345 OA 
HETATM   11  H   UNL     1     -10.585  10.847  64.061  1.00  0.00     0.000 HD 
BRANCH   9  12
HETATM   12  C   UNL     1     -10.950  12.142  66.272  1.00  0.00    -0.332 A  
HETATM   13  N   UNL     1     -10.936  14.931  66.604  1.00  0.00    -0.321 NA 
HETATM   14  C   UNL     1     -10.597  13.004  65.221  1.00  0.00    -0.320 A  
HETATM   15  C   UNL     1     -11.306  14.126  67.613  1.00  0.00    -0.319 A  
HETATM   16  C   UNL     1     -11.676  14.731  68.805  1.00  0.00    -0.354 A  
HETATM   17  C   UNL     1     -10.601  14.364  65.435  1.00  0.00    -0.365 A  
HETATM   18  C   UNL     1     -12.083  13.992  69.919  1.00  0.00    -0.406 A  
HETATM   19  C   UNL     1     -11.328  12.716  67.519  1.00  0.00    -0.361 A  
HETATM   20  C   UNL     1     -12.110  12.606  69.850  1.00  0.00    -0.252 A  
HETATM   21  C   UNL     1     -11.729  11.979  68.661  1.00  0.00    -0.380 A  
BRANCH  20  22
HETATM   22  O   UNL     1     -12.487  11.757  70.852  1.00  0.00    -0.372 OA 
HETATM   23  C   UNL     1     -13.239  12.318  71.922  1.00  0.00    -0.376 C  
ENDBRANCH  20  22
ENDBRANCH   9  12
ENDBRANCH   1   9
BRANCH   6  24
HETATM   24  C   UNL     1      -8.260   8.883  70.190  1.00  0.00    -0.126 C  
HETATM   25  C   UNL     1      -8.762   8.880  71.431  1.00  0.00    -0.262 C  
ENDBRANCH   6  24
TORSDOF 4
ENDMDL
MODEL      121
REMARK 921   NORMALIZED FREE ENERGY PREDICTED BY IDOCK:   -4.64 KCAL/MOL
REMARK 922        TOTAL FREE ENERGY PREDICTED BY IDOCK:   -6.51 KCAL/MOL
REMARK 923 INTER-LIGAND FREE ENERGY PREDICTED BY IDOCK:   -5.70 KCAL/MOL
REMARK 924 INTRA-LIGAND FREE ENERGY PREDICTED BY IDOCK:   -0.81 KCAL/MOL
REMARK 927      BINDING AFFINITY PREDICTED BY RF-SCORE:    0.00 PKD
ROOT
HETATM    1  C   UNL     1     -10.121   7.979  70.323  1.00  0.00    -0.192 C  
HETATM    2  N   UNL     1      -8.993   8.052  71.311  1.00  0.00    -0.134 NA 
HETATM    3  C   UNL     1     -11.208   6.993  70.821  1.00  0.00    -0.323 C  
HETATM    4  C   UNL     1      -9.464   8.369  72.674  1.00  0.00    -0.265 C  
HETATM    5  C   UNL     1     -10.722   6.275  72.093  1.00  0.00    -0.269 C  
HETATM    6  C   UNL     1      -9.341   5.613  71.856  1.00  0.00    -0.161 C  
HETATM    7  C   UNL     1     -10.534   7.376  73.154  1.00  0.00    -0.406 C  
HETATM    8  C   UNL     1      -8.354   6.706  71.363  1.00  0.00    -0.120 C  
ENDROOT
BRANCH   1   9
HETATM    9  C   UNL     1     -10.681   9.375  69.855  1.00  0.00    -0.234 C  
HETATM   10  O   UNL     1     -12.062   9.596  70.167  1.00  0.00    -0.466 OA 
HETATM   11  H   UNL     1     -12.400  10.437  69.885  1.00  0.00     0.000 HD 
BRANCH   9  12
HETATM   12  C   UNL     1     -10.497   9.583  68.353  1.00  0.00    -0.261 A  
HETATM   13  N   UNL     1     -10.030   9.835  65.594  1.00  0.00    -0.305 NA 
HETATM   14  C   UNL     1     -10.453   8.460  67.511  1.00  0.00    -0.328 A  
HETATM   15  C   UNL     1     -10.099  10.924  66.376  1.00  0.00    -0.231 A  
HETATM   16  C   UNL     1      -9.931  12.157  65.764  1.00  0.00    -0.271 A  
HETATM   17  C   UNL     1     -10.216   8.635  66.166  1.00  0.00     0.098 A  
HETATM   18  C   UNL     1      -9.987  13.356  66.480  1.00  0.00    -0.286 A  
HETATM   19  C   UNL     1     -10.322  10.870  67.771  1.00  0.00    -0.218 A  
HETATM   20  C   UNL     1     -10.204  13.328  67.850  1.00  0.00    -0.233 A  
HETATM   21  C   UNL     1     -10.361  12.093  68.486  1.00  0.00    -0.233 A  
BRANCH  20  22
HETATM   22  O   UNL     1     -10.286  14.413  68.675  1.00  0.00    -0.235 OA 
HETATM   23  C   UNL     1     -11.538  14.646  69.312  1.00  0.00    -0.302 C  
ENDBRANCH  20  22
ENDBRANCH   9  12
ENDBRANCH   1   9
BRANCH   6  24
HETATM   24  C   UNL     1      -9.407   4.447  70.896  1.00  0.00    -0.218 C  
HETATM   25  C   UNL     1      -8.780   4.410  69.714  1.00  0.00    -0.111 C  
ENDBRANCH   6  24
TORSDOF 4
ENDMDL
MODEL      122
REMARK 921   NORMALIZED FREE ENERGY PREDICTED BY IDOCK:   -4.62 KCAL/MOL
REMARK 922        TOTAL FREE ENERGY PREDICTED BY IDOCK:   -6.49 KCAL/MOL
REMARK 923 INTER-LIGAND FREE ENERGY PREDICTED BY IDOCK:   -6.58 KCAL/MOL
REMARK 924 INTRA-LIGAND FREE ENERGY PREDICTED BY IDOCK:    0.09 KCAL/MOL
REMARK 927      BINDING AFFINITY PREDICTED BY RF-SCORE:    0.00 PKD
ROOT
HETATM    1  C   UNL     1      -8.865  17.123  68.393  1.00  0.00    -0.255 C  
HETATM    2  N   UNL     1      -7.906  18.198  68.813  1.00  0.00    -0.286 NA 
HETATM    3  C   UNL     1      -9.067  17.155  66.856  1.00  0.00    -0.254 C  
HETATM    4  C   UNL     1      -6.630  18.131  68.072  1.00  0.00    -0.194 C  
HETATM    5  C   UNL     1      -8.349  18.378  66.258  1.00  0.00    -0.231 C  
HETATM    6  C   UNL     1      -8.793  19.679  66.973  1.00  0.00    -0.376 C  
HETATM    7  C   UNL     1      -6.850  18.173  66.552  1.00  0.00    -0.255 C  
HETATM    8  C   UNL     1      -8.536  19.511  68.495  1.00  0.00    -0.338 C  
ENDROOT
BRANCH   1   9
HETATM    9  C   UNL     1      -8.550  15.693  68.973  1.00  0.00    -0.232 C  
HETATM   10  O   UNL     1      -7.752  14.867  68.117  1.00  0.00    -0.105 OA 
HETATM   11  H   UNL     1      -7.562  14.004  68.466  1.00  0.00     0.000 HD 
BRANCH   9  12
HETATM   12  C   UNL     1      -9.828  14.926  69.311  1.00  0.00    -0.164 A  
HETATM   13  N   UNL     1     -12.125  13.520  70.110  1.00  0.00    -0.349 NA 
HETATM   14  C   UNL     1     -10.622  15.367  70.381  1.00  0.00    -0.274 A  
HETATM   15  C   UNL     1     -11.395  13.097  69.064  1.00  0.00    -0.282 A  
HETATM   16  C   UNL     1     -11.827  11.953  68.411  1.00  0.00    -0.352 A  
HETATM   17  C   UNL     1     -11.736  14.641  70.738  1.00  0.00    -0.279 A  
HETATM   18  C   UNL     1     -11.148  11.426  67.309  1.00  0.00    -0.363 A  
HETATM   19  C   UNL     1     -10.225  13.750  68.614  1.00  0.00    -0.209 A  
HETATM   20  C   UNL     1      -9.996  12.049  66.850  1.00  0.00    -0.202 A  
HETATM   21  C   UNL     1      -9.540  13.196  67.505  1.00  0.00    -0.208 A  
BRANCH  20  22
HETATM   22  O   UNL     1      -9.234  11.652  65.788  1.00  0.00    -0.225 OA 
HETATM   23  C   UNL     1      -9.729  10.568  65.010  1.00  0.00    -0.292 C  
ENDBRANCH  20  22
ENDBRANCH   9  12
ENDBRANCH   1   9
BRANCH   6  24
HETATM   24  C   UNL     1     -10.231  20.044  66.686  1.00  0.00    -0.597 C  
HETATM   25  C   UNL     1     -10.779  20.042  65.465  1.00  0.00    -0.259 C  
ENDBRANCH   6  24
TORSDOF 4
ENDMDL
MODEL      123
REMARK 921   NORMALIZED FREE ENERGY PREDICTED BY IDOCK:   -4.61 KCAL/MOL
REMARK 922        TOTAL FREE ENERGY PREDICTED BY IDOCK:   -6.48 KCAL/MOL
REMARK 923 INTER-LIGAND FREE ENERGY PREDICTED BY IDOCK:   -6.08 KCAL/MOL
REMARK 924 INTRA-LIGAND FREE ENERGY PREDICTED BY IDOCK:   -0.39 KCAL/MOL
REMARK 927      BINDING AFFINITY PREDICTED BY RF-SCORE:    0.00 PKD
ROOT
HETATM    1  C   UNL     1      -9.864  10.261  67.685  1.00  0.00    -0.171 C  
HETATM    2  N   UNL     1      -8.873  10.941  66.785  1.00  0.00    -0.142 NA 
HETATM    3  C   UNL     1     -11.279  10.858  67.473  1.00  0.00    -0.364 C  
HETATM    4  C   UNL     1      -9.293  10.913  65.370  1.00  0.00    -0.208 C  
HETATM    5  C   UNL     1     -11.200  12.068  66.524  1.00  0.00    -0.387 C  
HETATM    6  C   UNL     1     -10.159  13.097  67.032  1.00  0.00    -0.241 C  
HETATM    7  C   UNL     1     -10.692  11.517  65.178  1.00  0.00    -0.348 C  
HETATM    8  C   UNL     1      -8.797  12.370  67.199  1.00  0.00    -0.197 C  
ENDROOT
BRANCH   1   9
HETATM    9  C   UNL     1      -9.816   8.687  67.653  1.00  0.00    -0.180 C  
HETATM   10  O   UNL     1     -11.082   8.059  67.420  1.00  0.00    -0.486 OA 
HETATM   11  H   UNL     1     -11.054   7.110  67.400  1.00  0.00     0.000 HD 
BRANCH   9  12
HETATM   12  C   UNL     1      -9.235   8.113  68.944  1.00  0.00    -0.147 A  
HETATM   13  N   UNL     1      -8.119   6.906  71.222  1.00  0.00    -0.109 NA 
HETATM   14  C   UNL     1      -7.956   7.533  68.915  1.00  0.00    -0.126 A  
HETATM   15  C   UNL     1      -9.331   7.481  71.280  1.00  0.00    -0.149 A  
HETATM   16  C   UNL     1      -9.991   7.451  72.499  1.00  0.00    -0.228 A  
HETATM   17  C   UNL     1      -7.455   6.949  70.057  1.00  0.00    -0.093 A  
HETATM   18  C   UNL     1     -11.255   8.022  72.674  1.00  0.00    -0.462 A  
HETATM   19  C   UNL     1      -9.956   8.098  70.171  1.00  0.00    -0.187 A  
HETATM   20  C   UNL     1     -11.888   8.632  71.600  1.00  0.00    -0.323 A  
HETATM   21  C   UNL     1     -11.242   8.660  70.361  1.00  0.00    -0.236 A  
BRANCH  20  22
HETATM   22  O   UNL     1     -13.115   9.231  71.623  1.00  0.00    -0.340 OA 
HETATM   23  C   UNL     1     -13.139  10.641  71.821  1.00  0.00    -0.466 C  
ENDBRANCH  20  22
ENDBRANCH   9  12
ENDBRANCH   1   9
BRANCH   6  24
HETATM   24  C   UNL     1     -10.587  13.782  68.309  1.00  0.00    -0.262 C  
HETATM   25  C   UNL     1     -10.171  14.997  68.688  1.00  0.00    -0.231 C  
ENDBRANCH   6  24
TORSDOF 4
ENDMDL
MODEL      124
REMARK 921   NORMALIZED FREE ENERGY PREDICTED BY IDOCK:   -4.60 KCAL/MOL
REMARK 922        TOTAL FREE ENERGY PREDICTED BY IDOCK:   -6.47 KCAL/MOL
REMARK 923 INTER-LIGAND FREE ENERGY PREDICTED BY IDOCK:   -6.50 KCAL/MOL
REMARK 924 INTRA-LIGAND FREE ENERGY PREDICTED BY IDOCK:    0.03 KCAL/MOL
REMARK 927      BINDING AFFINITY PREDICTED BY RF-SCORE:    0.00 PKD
ROOT
HETATM    1  C   UNL     1      -8.760   9.994  67.693  1.00  0.00    -0.121 C  
HETATM    2  N   UNL     1      -9.072  10.698  68.981  1.00  0.00    -0.179 NA 
HETATM    3  C   UNL     1      -9.995   9.192  67.208  1.00  0.00    -0.270 C  
HETATM    4  C   UNL     1     -10.286  11.532  68.882  1.00  0.00    -0.169 C  
HETATM    5  C   UNL     1     -11.102   9.236  68.276  1.00  0.00     0.058 C  
HETATM    6  C   UNL     1     -10.558   8.772  69.651  1.00  0.00    -0.220 C  
HETATM    7  C   UNL     1     -11.501  10.719  68.409  1.00  0.00    -0.358 C  
HETATM    8  C   UNL     1      -9.332   9.654  70.013  1.00  0.00    -0.241 C  
ENDROOT
BRANCH   1   9
HETATM    9  C   UNL     1      -8.103  10.900  66.585  1.00  0.00    -0.147 C  
HETATM   10  O   UNL     1      -7.961  12.278  66.953  1.00  0.00    -0.299 OA 
HETATM   11  H   UNL     1      -7.565  12.825  66.285  1.00  0.00     0.000 HD 
BRANCH   9  12
HETATM   12  C   UNL     1      -8.879  10.840  65.271  1.00  0.00    -0.200 A  
HETATM   13  N   UNL     1     -10.146  10.729  62.766  1.00  0.00    -0.131 NA 
HETATM   14  C   UNL     1      -8.491   9.909  64.294  1.00  0.00    -0.178 A  
HETATM   15  C   UNL     1     -10.553  11.607  63.697  1.00  0.00    -0.433 A  
HETATM   16  C   UNL     1     -11.611  12.438  63.366  1.00  0.00    -0.541 A  
HETATM   17  C   UNL     1      -9.139   9.897  63.079  1.00  0.00    -0.269 A  
HETATM   18  C   UNL     1     -12.119  13.386  64.259  1.00  0.00    -0.479 A  
HETATM   19  C   UNL     1      -9.956  11.723  64.974  1.00  0.00    -0.287 A  
HETATM   20  C   UNL     1     -11.549  13.519  65.517  1.00  0.00    -0.320 A  
HETATM   21  C   UNL     1     -10.473  12.697  65.863  1.00  0.00    -0.295 A  
BRANCH  20  22
HETATM   22  O   UNL     1     -11.940  14.394  66.490  1.00  0.00    -0.404 OA 
HETATM   23  C   UNL     1     -10.915  14.949  67.307  1.00  0.00    -0.323 C  
ENDBRANCH  20  22
ENDBRANCH   9  12
ENDBRANCH   1   9
BRANCH   6  24
HETATM   24  C   UNL     1     -10.215   7.301  69.679  1.00  0.00    -0.214 C  
HETATM   25  C   UNL     1     -11.087   6.319  69.417  1.00  0.00    -0.477 C  
ENDBRANCH   6  24
TORSDOF 4
ENDMDL
MODEL      125
REMARK 921   NORMALIZED FREE ENERGY PREDICTED BY IDOCK:   -4.60 KCAL/MOL
REMARK 922        TOTAL FREE ENERGY PREDICTED BY IDOCK:   -6.46 KCAL/MOL
REMARK 923 INTER-LIGAND FREE ENERGY PREDICTED BY IDOCK:   -6.42 KCAL/MOL
REMARK 924 INTRA-LIGAND FREE ENERGY PREDICTED BY IDOCK:   -0.04 KCAL/MOL
REMARK 927      BINDING AFFINITY PREDICTED BY RF-SCORE:    0.00 PKD
ROOT
HETATM    1  C   UNL     1     -11.366   8.393  70.718  1.00  0.00    -0.265 C  
HETATM    2  N   UNL     1      -9.952   8.487  71.214  1.00  0.00    -0.203 NA 
HETATM    3  C   UNL     1     -12.068   7.154  71.330  1.00  0.00    -0.381 C  
HETATM    4  C   UNL     1      -9.874   8.461  72.688  1.00  0.00    -0.259 C  
HETATM    5  C   UNL     1     -11.052   6.316  72.128  1.00  0.00    -0.312 C  
HETATM    6  C   UNL     1      -9.822   5.967  71.252  1.00  0.00    -0.211 C  
HETATM    7  C   UNL     1     -10.566   7.222  73.275  1.00  0.00    -0.428 C  
HETATM    8  C   UNL     1      -9.219   7.291  70.708  1.00  0.00    -0.156 C  
ENDROOT
BRANCH   1   9
HETATM    9  C   UNL     1     -12.197   9.727  70.832  1.00  0.00    -0.302 C  
HETATM   10  O   UNL     1     -13.613   9.560  70.689  1.00  0.00    -0.588 OA 
HETATM   11  H   UNL     1     -14.113  10.364  70.757  1.00  0.00     0.000 HD 
BRANCH   9  12
HETATM   12  C   UNL     1     -11.739  10.767  69.811  1.00  0.00    -0.399 A  
HETATM   13  N   UNL     1     -11.053  12.770  67.964  1.00  0.00    -0.237 NA 
HETATM   14  C   UNL     1     -11.841  12.129  70.135  1.00  0.00    -0.368 A  
HETATM   15  C   UNL     1     -10.920  11.473  67.644  1.00  0.00    -0.242 A  
HETATM   16  C   UNL     1     -10.434  11.178  66.380  1.00  0.00    -0.311 A  
HETATM   17  C   UNL     1     -11.497  13.074  69.194  1.00  0.00    -0.299 A  
HETATM   18  C   UNL     1     -10.250   9.863  65.942  1.00  0.00    -0.264 A  
HETATM   19  C   UNL     1     -11.253  10.414  68.520  1.00  0.00    -0.308 A  
HETATM   20  C   UNL     1     -10.572   8.808  66.784  1.00  0.00    -0.150 A  
HETATM   21  C   UNL     1     -11.075   9.087  68.057  1.00  0.00     0.161 A  
BRANCH  20  22
HETATM   22  O   UNL     1     -10.443   7.479  66.495  1.00  0.00    -0.198 OA 
HETATM   23  C   UNL     1      -9.169   6.890  66.729  1.00  0.00    -0.152 C  
ENDBRANCH  20  22
ENDBRANCH   9  12
ENDBRANCH   1   9
BRANCH   6  24
HETATM   24  C   UNL     1     -10.150   5.003  70.136  1.00  0.00    -0.338 C  
HETATM   25  C   UNL     1      -9.695   3.746  70.069  1.00  0.00    -0.211 C  
ENDBRANCH   6  24
TORSDOF 4
ENDMDL
MODEL      126
REMARK 921   NORMALIZED FREE ENERGY PREDICTED BY IDOCK:   -4.59 KCAL/MOL
REMARK 922        TOTAL FREE ENERGY PREDICTED BY IDOCK:   -6.45 KCAL/MOL
REMARK 923 INTER-LIGAND FREE ENERGY PREDICTED BY IDOCK:   -6.32 KCAL/MOL
REMARK 924 INTRA-LIGAND FREE ENERGY PREDICTED BY IDOCK:   -0.13 KCAL/MOL
REMARK 927      BINDING AFFINITY PREDICTED BY RF-SCORE:    0.00 PKD
ROOT
HETATM    1  C   UNL     1      -9.903  12.278  67.784  1.00  0.00    -0.201 C  
HETATM    2  N   UNL     1     -10.825  11.368  67.026  1.00  0.00    -0.268 NA 
HETATM    3  C   UNL     1      -8.630  11.510  68.222  1.00  0.00    -0.161 C  
HETATM    4  C   UNL     1     -10.149  10.702  65.896  1.00  0.00    -0.261 C  
HETATM    5  C   UNL     1      -8.778  10.015  67.884  1.00  0.00    -0.125 C  
HETATM    6  C   UNL     1     -10.089   9.444  68.484  1.00  0.00    -0.208 C  
HETATM    7  C   UNL     1      -8.896   9.938  66.350  1.00  0.00    -0.159 C  
HETATM    8  C   UNL     1     -11.275  10.302  67.966  1.00  0.00    -0.235 C  
ENDROOT
BRANCH   1   9
HETATM    9  C   UNL     1      -9.614  13.659  67.083  1.00  0.00    -0.241 C  
HETATM   10  O   UNL     1      -8.269  13.819  66.617  1.00  0.00    -0.399 OA 
HETATM   11  H   UNL     1      -8.094  14.651  66.194  1.00  0.00     0.000 HD 
BRANCH   9  12
HETATM   12  C   UNL     1      -9.939  14.837  68.000  1.00  0.00    -0.218 A  
HETATM   13  N   UNL     1     -10.712  16.952  69.679  1.00  0.00    -0.261 NA 
HETATM   14  C   UNL     1     -10.757  14.622  69.121  1.00  0.00    -0.263 A  
HETATM   15  C   UNL     1      -9.905  17.175  68.630  1.00  0.00    -0.300 A  
HETATM   16  C   UNL     1      -9.479  18.478  68.423  1.00  0.00    -0.368 A  
HETATM   17  C   UNL     1     -11.113  15.692  69.911  1.00  0.00    -0.319 A  
HETATM   18  C   UNL     1      -8.633  18.824  67.365  1.00  0.00    -0.289 A  
HETATM   19  C   UNL     1      -9.483  16.161  67.740  1.00  0.00    -0.217 A  
HETATM   20  C   UNL     1      -8.208  17.846  66.478  1.00  0.00    -0.269 A  
HETATM   21  C   UNL     1      -8.638  16.530  66.664  1.00  0.00    -0.289 A  
BRANCH  20  22
HETATM   22  O   UNL     1      -7.383  18.035  65.405  1.00  0.00    -0.495 OA 
HETATM   23  C   UNL     1      -5.988  17.858  65.627  1.00  0.00    -0.154 C  
ENDBRANCH  20  22
ENDBRANCH   9  12
ENDBRANCH   1   9
BRANCH   6  24
HETATM   24  C   UNL     1     -10.064   9.379  69.993  1.00  0.00    -0.259 C  
HETATM   25  C   UNL     1     -11.158   9.360  70.764  1.00  0.00    -0.365 C  
ENDBRANCH   6  24
TORSDOF 4
ENDMDL
MODEL      127
REMARK 921   NORMALIZED FREE ENERGY PREDICTED BY IDOCK:   -4.59 KCAL/MOL
REMARK 922        TOTAL FREE ENERGY PREDICTED BY IDOCK:   -6.45 KCAL/MOL
REMARK 923 INTER-LIGAND FREE ENERGY PREDICTED BY IDOCK:   -6.05 KCAL/MOL
REMARK 924 INTRA-LIGAND FREE ENERGY PREDICTED BY IDOCK:   -0.40 KCAL/MOL
REMARK 927      BINDING AFFINITY PREDICTED BY RF-SCORE:    0.00 PKD
ROOT
HETATM    1  C   UNL     1      -9.688   8.072  67.732  1.00  0.00    -0.156 C  
HETATM    2  N   UNL     1      -8.323   8.246  67.132  1.00  0.00    -0.122 NA 
HETATM    3  C   UNL     1     -10.645   9.177  67.218  1.00  0.00    -0.303 C  
HETATM    4  C   UNL     1      -8.365   8.318  65.658  1.00  0.00    -0.148 C  
HETATM    5  C   UNL     1      -9.860  10.202  66.379  1.00  0.00    -0.279 C  
HETATM    6  C   UNL     1      -8.647  10.748  67.174  1.00  0.00    -0.128 C  
HETATM    7  C   UNL     1      -9.311   9.425  65.167  1.00  0.00    -0.288 C  
HETATM    8  C   UNL     1      -7.778   9.543  67.625  1.00  0.00    -0.095 C  
ENDROOT
BRANCH   1   9
HETATM    9  C   UNL     1     -10.273   6.613  67.632  1.00  0.00    -0.177 C  
HETATM   10  O   UNL     1     -11.649   6.551  67.237  1.00  0.00    -0.737 OA 
HETATM   11  H   UNL     1     -12.003   5.672  67.176  1.00  0.00     0.000 HD 
BRANCH   9  12
HETATM   12  C   UNL     1     -10.125   5.852  68.948  1.00  0.00    -0.231 A  
HETATM   13  N   UNL     1      -9.907   4.302  71.280  1.00  0.00    -0.188 NA 
HETATM   14  C   UNL     1      -9.449   4.622  68.950  1.00  0.00    -0.218 A  
HETATM   15  C   UNL     1     -10.531   5.490  71.308  1.00  0.00    -0.239 A  
HETATM   16  C   UNL     1     -11.052   5.906  72.524  1.00  0.00    -0.328 A  
HETATM   17  C   UNL     1      -9.373   3.896  70.117  1.00  0.00    -0.171 A  
HETATM   18  C   UNL     1     -11.717   7.127  72.669  1.00  0.00    -0.171 A  
HETATM   19  C   UNL     1     -10.685   6.318  70.171  1.00  0.00    -0.346 A  
HETATM   20  C   UNL     1     -11.881   7.954  71.567  1.00  0.00    -0.289 A  
HETATM   21  C   UNL     1     -11.374   7.545  70.331  1.00  0.00    -0.253 A  
BRANCH  20  22
HETATM   22  O   UNL     1     -12.504   9.170  71.559  1.00  0.00    -0.314 OA 
HETATM   23  C   UNL     1     -13.707   9.283  72.312  1.00  0.00    -0.462 C  
ENDBRANCH  20  22
ENDBRANCH   9  12
ENDBRANCH   1   9
BRANCH   6  24
HETATM   24  C   UNL     1      -9.054  11.612  68.345  1.00  0.00    -0.180 C  
HETATM   25  C   UNL     1      -9.801  12.718  68.240  1.00  0.00    -0.224 C  
ENDBRANCH   6  24
TORSDOF 4
ENDMDL
MODEL      128
REMARK 921   NORMALIZED FREE ENERGY PREDICTED BY IDOCK:   -4.58 KCAL/MOL
REMARK 922        TOTAL FREE ENERGY PREDICTED BY IDOCK:   -6.44 KCAL/MOL
REMARK 923 INTER-LIGAND FREE ENERGY PREDICTED BY IDOCK:   -5.62 KCAL/MOL
REMARK 924 INTRA-LIGAND FREE ENERGY PREDICTED BY IDOCK:   -0.82 KCAL/MOL
REMARK 927      BINDING AFFINITY PREDICTED BY RF-SCORE:    0.00 PKD
ROOT
HETATM    1  C   UNL     1     -10.509   8.726  70.002  1.00  0.00    -0.212 C  
HETATM    2  N   UNL     1     -10.444   7.227  69.990  1.00  0.00    -0.218 NA 
HETATM    3  C   UNL     1     -10.910   9.235  71.410  1.00  0.00    -0.434 C  
HETATM    4  C   UNL     1      -9.568   6.697  71.055  1.00  0.00    -0.171 C  
HETATM    5  C   UNL     1     -11.272   8.043  72.315  1.00  0.00    -0.402 C  
HETATM    6  C   UNL     1     -12.348   7.151  71.644  1.00  0.00    -0.398 C  
HETATM    7  C   UNL     1      -9.986   7.204  72.443  1.00  0.00    -0.190 C  
HETATM    8  C   UNL     1     -11.819   6.715  70.250  1.00  0.00    -0.316 C  
ENDROOT
BRANCH   1   9
HETATM    9  C   UNL     1      -9.251   9.448  69.389  1.00  0.00    -0.165 C  
HETATM   10  O   UNL     1      -8.557  10.309  70.301  1.00  0.00    -0.325 OA 
HETATM   11  H   UNL     1      -7.798  10.744  69.932  1.00  0.00     0.000 HD 
BRANCH   9  12
HETATM   12  C   UNL     1      -9.615  10.267  68.152  1.00  0.00    -0.151 A  
HETATM   13  N   UNL     1     -10.451  11.798  65.950  1.00  0.00    -0.246 NA 
HETATM   14  C   UNL     1     -10.248  11.509  68.320  1.00  0.00    -0.205 A  
HETATM   15  C   UNL     1      -9.819  10.627  65.766  1.00  0.00    -0.241 A  
HETATM   16  C   UNL     1      -9.604  10.221  64.458  1.00  0.00    -0.378 A  
HETATM   17  C   UNL     1     -10.644  12.219  67.210  1.00  0.00    -0.224 A  
HETATM   18  C   UNL     1      -8.953   9.023  64.150  1.00  0.00     0.032 A  
HETATM   19  C   UNL     1      -9.379   9.802  66.827  1.00  0.00    -0.190 A  
HETATM   20  C   UNL     1      -8.514   8.197  65.175  1.00  0.00    -0.116 A  
HETATM   21  C   UNL     1      -8.734   8.585  66.499  1.00  0.00    -0.149 A  
BRANCH  20  22
HETATM   22  O   UNL     1      -7.863   7.005  65.026  1.00  0.00    -0.111 OA 
HETATM   23  C   UNL     1      -7.834   6.446  63.716  1.00  0.00    -0.111 C  
ENDBRANCH  20  22
ENDBRANCH   9  12
ENDBRANCH   1   9
BRANCH   6  24
HETATM   24  C   UNL     1     -13.693   7.832  71.542  1.00  0.00    -0.416 C  
HETATM   25  C   UNL     1     -14.337   8.386  72.577  1.00  0.00    -0.283 C  
ENDBRANCH   6  24
TORSDOF 4
ENDMDL
MODEL      129
REMARK 921   NORMALIZED FREE ENERGY PREDICTED BY IDOCK:   -4.57 KCAL/MOL
REMARK 922        TOTAL FREE ENERGY PREDICTED BY IDOCK:   -6.43 KCAL/MOL
REMARK 923 INTER-LIGAND FREE ENERGY PREDICTED BY IDOCK:   -6.44 KCAL/MOL
REMARK 924 INTRA-LIGAND FREE ENERGY PREDICTED BY IDOCK:    0.01 KCAL/MOL
REMARK 927      BINDING AFFINITY PREDICTED BY RF-SCORE:    0.00 PKD
ROOT
HETATM    1  C   UNL     1      -8.845   7.502  67.423  1.00  0.00    -0.127 C  
HETATM    2  N   UNL     1      -8.527   6.346  68.328  1.00  0.00    -0.116 NA 
HETATM    3  C   UNL     1     -10.283   7.364  66.862  1.00  0.00    -0.346 C  
HETATM    4  C   UNL     1      -9.536   6.175  69.391  1.00  0.00    -0.137 C  
HETATM    5  C   UNL     1     -10.881   6.007  67.277  1.00  0.00    -0.403 C  
HETATM    6  C   UNL     1      -9.939   4.845  66.871  1.00  0.00    -0.244 C  
HETATM    7  C   UNL     1     -10.954   6.031  68.816  1.00  0.00    -0.384 C  
HETATM    8  C   UNL     1      -8.542   5.108  67.497  1.00  0.00    -0.104 C  
ENDROOT
BRANCH   1   9
HETATM    9  C   UNL     1      -8.519   8.921  68.024  1.00  0.00    -0.126 C  
HETATM   10  O   UNL     1      -7.962   8.893  69.344  1.00  0.00    -0.095 OA 
HETATM   11  H   UNL     1      -7.766   9.748  69.707  1.00  0.00     0.000 HD 
BRANCH   9  12
HETATM   12  C   UNL     1      -9.754   9.820  68.052  1.00  0.00    -0.165 A  
HETATM   13  N   UNL     1     -11.918  11.610  68.036  1.00  0.00    -0.609 NA 
HETATM   14  C   UNL     1     -10.050  10.603  66.924  1.00  0.00    -0.260 A  
HETATM   15  C   UNL     1     -11.671  10.849  69.114  1.00  0.00    -0.326 A  
HETATM   16  C   UNL     1     -12.523  10.988  70.198  1.00  0.00    -0.344 A  
HETATM   17  C   UNL     1     -11.119  11.469  66.967  1.00  0.00    -0.307 A  
HETATM   18  C   UNL     1     -12.363  10.244  71.371  1.00  0.00    -0.502 A  
HETATM   19  C   UNL     1     -10.595   9.935  69.194  1.00  0.00    -0.240 A  
HETATM   20  C   UNL     1     -11.314   9.342  71.472  1.00  0.00    -0.385 A  
HETATM   21  C   UNL     1     -10.437   9.198  70.394  1.00  0.00    -0.268 A  
BRANCH  20  22
HETATM   22  O   UNL     1     -11.036   8.547  72.548  1.00  0.00    -0.353 OA 
HETATM   23  C   UNL     1     -11.462   7.191  72.475  1.00  0.00    -0.258 C  
ENDBRANCH  20  22
ENDBRANCH   9  12
ENDBRANCH   1   9
BRANCH   6  24
HETATM   24  C   UNL     1      -9.853   4.657  65.374  1.00  0.00    -0.172 C  
HETATM   25  C   UNL     1     -10.749   3.976  64.649  1.00  0.00    -0.164 C  
ENDBRANCH   6  24
TORSDOF 4
ENDMDL
MODEL      130
REMARK 921   NORMALIZED FREE ENERGY PREDICTED BY IDOCK:   -4.57 KCAL/MOL
REMARK 922        TOTAL FREE ENERGY PREDICTED BY IDOCK:   -6.43 KCAL/MOL
REMARK 923 INTER-LIGAND FREE ENERGY PREDICTED BY IDOCK:   -5.75 KCAL/MOL
REMARK 924 INTRA-LIGAND FREE ENERGY PREDICTED BY IDOCK:   -0.67 KCAL/MOL
REMARK 927      BINDING AFFINITY PREDICTED BY RF-SCORE:    0.00 PKD
ROOT
HETATM    1  C   UNL     1      -9.891  12.574  67.093  1.00  0.00    -0.210 C  
HETATM    2  N   UNL     1     -10.867  13.389  67.892  1.00  0.00    -0.242 NA 
HETATM    3  C   UNL     1      -9.689  13.202  65.691  1.00  0.00    -0.107 C  
HETATM    4  C   UNL     1     -10.482  14.813  67.959  1.00  0.00    -0.246 C  
HETATM    5  C   UNL     1     -10.669  14.373  65.494  1.00  0.00    -0.344 C  
HETATM    6  C   UNL     1     -12.125  13.922  65.771  1.00  0.00    -0.449 C  
HETATM    7  C   UNL     1     -10.295  15.421  66.560  1.00  0.00    -0.293 C  
HETATM    8  C   UNL     1     -12.185  13.317  67.200  1.00  0.00    -0.227 C  
ENDROOT
BRANCH   1   9
HETATM    9  C   UNL     1      -8.551  12.224  67.843  1.00  0.00    -0.169 C  
HETATM   10  O   UNL     1      -7.410  12.971  67.401  1.00  0.00    -0.178 OA 
HETATM   11  H   UNL     1      -6.602  12.760  67.854  1.00  0.00     0.000 HD 
BRANCH   9  12
HETATM   12  C   UNL     1      -8.214  10.738  67.736  1.00  0.00    -0.112 A  
HETATM   13  N   UNL     1      -7.619   8.019  67.357  1.00  0.00    -0.096 NA 
HETATM   14  C   UNL     1      -7.305  10.317  66.752  1.00  0.00    -0.106 A  
HETATM   15  C   UNL     1      -8.468   8.403  68.324  1.00  0.00    -0.135 A  
HETATM   16  C   UNL     1      -9.025   7.408  69.112  1.00  0.00    -0.135 A  
HETATM   17  C   UNL     1      -7.051   8.972  66.602  1.00  0.00    -0.081 A  
HETATM   18  C   UNL     1      -9.917   7.693  70.150  1.00  0.00    -0.186 A  
HETATM   19  C   UNL     1      -8.819   9.752  68.565  1.00  0.00    -0.121 A  
HETATM   20  C   UNL     1     -10.276   9.009  70.404  1.00  0.00    -0.209 A  
HETATM   21  C   UNL     1      -9.735  10.024  69.611  1.00  0.00    -0.255 A  
BRANCH  20  22
HETATM   22  O   UNL     1     -11.130   9.436  71.381  1.00  0.00    -0.335 OA 
HETATM   23  C   UNL     1     -11.570   8.463  72.322  1.00  0.00    -0.383 C  
ENDBRANCH  20  22
ENDBRANCH   9  12
ENDBRANCH   1   9
BRANCH   6  24
HETATM   24  C   UNL     1     -12.647  12.955  64.733  1.00  0.00    -0.493 C  
HETATM   25  C   UNL     1     -12.153  12.841  63.495  1.00  0.00    -0.642 C  
ENDBRANCH   6  24
TORSDOF 4
ENDMDL
MODEL      131
REMARK 921   NORMALIZED FREE ENERGY PREDICTED BY IDOCK:   -4.57 KCAL/MOL
REMARK 922        TOTAL FREE ENERGY PREDICTED BY IDOCK:   -6.42 KCAL/MOL
REMARK 923 INTER-LIGAND FREE ENERGY PREDICTED BY IDOCK:   -5.93 KCAL/MOL
REMARK 924 INTRA-LIGAND FREE ENERGY PREDICTED BY IDOCK:   -0.48 KCAL/MOL
REMARK 927      BINDING AFFINITY PREDICTED BY RF-SCORE:    0.00 PKD
ROOT
HETATM    1  C   UNL     1     -10.611  12.029  68.051  1.00  0.00    -0.208 C  
HETATM    2  N   UNL     1     -10.366  12.158  66.575  1.00  0.00    -0.211 NA 
HETATM    3  C   UNL     1     -11.301  13.307  68.593  1.00  0.00    -0.324 C  
HETATM    4  C   UNL     1     -11.595  12.497  65.832  1.00  0.00    -0.405 C  
HETATM    5  C   UNL     1     -11.376  14.373  67.486  1.00  0.00    -0.345 C  
HETATM    6  C   UNL     1      -9.974  14.632  66.878  1.00  0.00    -0.254 C  
HETATM    7  C   UNL     1     -12.260  13.770  66.377  1.00  0.00    -0.480 C  
HETATM    8  C   UNL     1      -9.403  13.278  66.376  1.00  0.00    -0.174 C  
ENDROOT
BRANCH   1   9
HETATM    9  C   UNL     1     -11.303  10.685  68.491  1.00  0.00    -0.284 C  
HETATM   10  O   UNL     1     -12.677  10.822  68.875  1.00  0.00    -0.647 OA 
HETATM   11  H   UNL     1     -13.095  10.011  69.140  1.00  0.00     0.000 HD 
BRANCH   9  12
HETATM   12  C   UNL     1     -10.556  10.015  69.643  1.00  0.00    -0.278 A  
HETATM   13  N   UNL     1      -9.274   8.892  71.877  1.00  0.00    -0.366 NA 
HETATM   14  C   UNL     1     -11.282   9.582  70.764  1.00  0.00    -0.383 A  
HETATM   15  C   UNL     1      -8.564   9.272  70.802  1.00  0.00    -0.203 A  
HETATM   16  C   UNL     1      -7.191   9.084  70.851  1.00  0.00    -0.106 A  
HETATM   17  C   UNL     1     -10.608   9.043  71.837  1.00  0.00    -0.317 A  
HETATM   18  C   UNL     1      -6.355   9.439  69.788  1.00  0.00    -0.040 A  
HETATM   19  C   UNL     1      -9.142   9.851  69.649  1.00  0.00    -0.245 A  
HETATM   20  C   UNL     1      -6.899  10.010  68.647  1.00  0.00    -0.054 A  
HETATM   21  C   UNL     1      -8.280  10.219  68.587  1.00  0.00    -0.116 A  
BRANCH  20  22
HETATM   22  O   UNL     1      -6.210  10.402  67.535  1.00  0.00    -0.056 OA 
HETATM   23  C   UNL     1      -5.998  11.800  67.368  1.00  0.00    -0.105 C  
ENDBRANCH  20  22
ENDBRANCH   9  12
ENDBRANCH   1   9
BRANCH   6  24
HETATM   24  C   UNL     1      -9.032  15.312  67.844  1.00  0.00    -0.170 C  
HETATM   25  C   UNL     1      -7.700  15.321  67.717  1.00  0.00    -0.164 C  
ENDBRANCH   6  24
TORSDOF 4
ENDMDL
MODEL      132
REMARK 921   NORMALIZED FREE ENERGY PREDICTED BY IDOCK:   -4.55 KCAL/MOL
REMARK 922        TOTAL FREE ENERGY PREDICTED BY IDOCK:   -6.40 KCAL/MOL
REMARK 923 INTER-LIGAND FREE ENERGY PREDICTED BY IDOCK:   -6.16 KCAL/MOL
REMARK 924 INTRA-LIGAND FREE ENERGY PREDICTED BY IDOCK:   -0.24 KCAL/MOL
REMARK 927      BINDING AFFINITY PREDICTED BY RF-SCORE:    0.00 PKD
ROOT
HETATM    1  C   UNL     1      -9.162  14.898  67.446  1.00  0.00    -0.194 C  
HETATM    2  N   UNL     1      -9.655  16.099  66.691  1.00  0.00    -0.231 NA 
HETATM    3  C   UNL     1      -8.325  15.341  68.672  1.00  0.00    -0.162 C  
HETATM    4  C   UNL     1     -10.381  17.046  67.561  1.00  0.00    -0.329 C  
HETATM    5  C   UNL     1      -8.124  16.868  68.647  1.00  0.00    -0.253 C  
HETATM    6  C   UNL     1      -7.529  17.320  67.289  1.00  0.00    -0.201 C  
HETATM    7  C   UNL     1      -9.533  17.481  68.766  1.00  0.00    -0.249 C  
HETATM    8  C   UNL     1      -8.461  16.813  66.155  1.00  0.00    -0.263 C  
ENDROOT
BRANCH   1   9
HETATM    9  C   UNL     1     -10.266  13.823  67.772  1.00  0.00    -0.241 C  
HETATM   10  O   UNL     1      -9.754  12.571  68.245  1.00  0.00    -0.219 OA 
HETATM   11  H   UNL     1     -10.420  11.923  68.442  1.00  0.00     0.000 HD 
BRANCH   9  12
HETATM   12  C   UNL     1     -11.157  13.542  66.563  1.00  0.00    -0.310 A  
HETATM   13  N   UNL     1     -12.935  13.002  64.457  1.00  0.00    -0.714 NA 
HETATM   14  C   UNL     1     -12.404  14.181  66.475  1.00  0.00    -0.405 A  
HETATM   15  C   UNL     1     -11.735  12.403  64.506  1.00  0.00    -0.362 A  
HETATM   16  C   UNL     1     -11.423  11.523  63.482  1.00  0.00    -0.334 A  
HETATM   17  C   UNL     1     -13.244  13.879  65.426  1.00  0.00     0.001 A  
HETATM   18  C   UNL     1     -10.200  10.847  63.429  1.00  0.00    -0.356 A  
HETATM   19  C   UNL     1     -10.795  12.622  65.539  1.00  0.00    -0.310 A  
HETATM   20  C   UNL     1      -9.263  11.044  64.433  1.00  0.00    -0.158 A  
HETATM   21  C   UNL     1      -9.566  11.919  65.480  1.00  0.00    -0.200 A  
BRANCH  20  22
HETATM   22  O   UNL     1      -8.032  10.459  64.512  1.00  0.00    -0.156 OA 
HETATM   23  C   UNL     1      -7.278  10.699  65.696  1.00  0.00    -0.084 C  
ENDBRANCH  20  22
ENDBRANCH   9  12
ENDBRANCH   1   9
BRANCH   6  24
HETATM   24  C   UNL     1      -6.105  16.857  67.089  1.00  0.00    -0.208 C  
HETATM   25  C   UNL     1      -5.193  17.519  66.367  1.00  0.00    -0.219 C  
ENDBRANCH   6  24
TORSDOF 4
ENDMDL
MODEL      133
REMARK 921   NORMALIZED FREE ENERGY PREDICTED BY IDOCK:   -4.54 KCAL/MOL
REMARK 922        TOTAL FREE ENERGY PREDICTED BY IDOCK:   -6.38 KCAL/MOL
REMARK 923 INTER-LIGAND FREE ENERGY PREDICTED BY IDOCK:   -6.43 KCAL/MOL
REMARK 924 INTRA-LIGAND FREE ENERGY PREDICTED BY IDOCK:    0.05 KCAL/MOL
REMARK 927      BINDING AFFINITY PREDICTED BY RF-SCORE:    0.00 PKD
ROOT
HETATM    1  C   UNL     1      -9.159   9.607  66.426  1.00  0.00    -0.156 C  
HETATM    2  N   UNL     1      -8.214   9.444  67.581  1.00  0.00    -0.114 NA 
HETATM    3  C   UNL     1     -10.626   9.478  66.911  1.00  0.00    -0.241 C  
HETATM    4  C   UNL     1      -8.526  10.364  68.693  1.00  0.00    -0.129 C  
HETATM    5  C   UNL     1     -10.654   9.064  68.393  1.00  0.00    -0.200 C  
HETATM    6  C   UNL     1      -9.806   7.787  68.622  1.00  0.00    -0.174 C  
HETATM    7  C   UNL     1      -9.980  10.215  69.166  1.00  0.00    -0.221 C  
HETATM    8  C   UNL     1      -8.370   8.054  68.096  1.00  0.00    -0.127 C  
ENDROOT
BRANCH   1   9
HETATM    9  C   UNL     1      -8.887  10.868  65.521  1.00  0.00    -0.188 C  
HETATM   10  O   UNL     1      -8.002  11.835  66.100  1.00  0.00    -0.376 OA 
HETATM   11  H   UNL     1      -7.838  12.595  65.555  1.00  0.00     0.000 HD 
BRANCH   9  12
HETATM   12  C   UNL     1     -10.183  11.582  65.141  1.00  0.00    -0.322 A  
HETATM   13  N   UNL     1     -12.497  12.917  64.272  1.00  0.00    -0.612 NA 
HETATM   14  C   UNL     1     -10.829  11.227  63.946  1.00  0.00    -0.427 A  
HETATM   15  C   UNL     1     -11.912  13.252  65.434  1.00  0.00    -0.395 A  
HETATM   16  C   UNL     1     -12.498  14.270  66.169  1.00  0.00    -0.362 A  
HETATM   17  C   UNL     1     -11.958  11.915  63.560  1.00  0.00    -0.466 A  
HETATM   18  C   UNL     1     -11.977  14.698  67.394  1.00  0.00    -0.309 A  
HETATM   19  C   UNL     1     -10.742  12.629  65.926  1.00  0.00    -0.293 A  
HETATM   20  C   UNL     1     -10.829  14.102  67.896  1.00  0.00    -0.245 A  
HETATM   21  C   UNL     1     -10.218  13.082  67.162  1.00  0.00    -0.243 A  
BRANCH  20  22
HETATM   22  O   UNL     1     -10.211  14.411  69.075  1.00  0.00    -0.230 OA 
HETATM   23  C   UNL     1      -8.901  14.963  68.989  1.00  0.00    -0.179 C  
ENDBRANCH  20  22
ENDBRANCH   9  12
ENDBRANCH   1   9
BRANCH   6  24
HETATM   24  C   UNL     1     -10.415   6.558  67.987  1.00  0.00    -0.265 C  
HETATM   25  C   UNL     1      -9.754   5.413  67.780  1.00  0.00    -0.160 C  
ENDBRANCH   6  24
TORSDOF 4
ENDMDL
MODEL      134
REMARK 921   NORMALIZED FREE ENERGY PREDICTED BY IDOCK:   -4.53 KCAL/MOL
REMARK 922        TOTAL FREE ENERGY PREDICTED BY IDOCK:   -6.38 KCAL/MOL
REMARK 923 INTER-LIGAND FREE ENERGY PREDICTED BY IDOCK:   -5.95 KCAL/MOL
REMARK 924 INTRA-LIGAND FREE ENERGY PREDICTED BY IDOCK:   -0.43 KCAL/MOL
REMARK 927      BINDING AFFINITY PREDICTED BY RF-SCORE:    0.00 PKD
ROOT
HETATM    1  C   UNL     1      -8.963   6.696  72.081  1.00  0.00    -0.138 C  
HETATM    2  N   UNL     1      -9.275   6.148  70.718  1.00  0.00    -0.153 NA 
HETATM    3  C   UNL     1      -8.260   5.618  72.945  1.00  0.00    -0.119 C  
HETATM    4  C   UNL     1      -8.082   5.581  70.058  1.00  0.00    -0.090 C  
HETATM    5  C   UNL     1      -8.244   4.274  72.196  1.00  0.00    -0.102 C  
HETATM    6  C   UNL     1      -9.673   3.878  71.746  1.00  0.00    -0.243 C  
HETATM    7  C   UNL     1      -7.404   4.509  70.925  1.00  0.00    -0.051 C  
HETATM    8  C   UNL     1     -10.255   5.039  70.894  1.00  0.00    -0.217 C  
ENDROOT
BRANCH   1   9
HETATM    9  C   UNL     1      -8.241   8.096  72.081  1.00  0.00    -0.149 C  
HETATM   10  O   UNL     1      -8.329   8.810  73.320  1.00  0.00    -0.389 OA 
HETATM   11  H   UNL     1      -7.894   9.654  73.321  1.00  0.00     0.000 HD 
BRANCH   9  12
HETATM   12  C   UNL     1      -8.770   9.005  70.974  1.00  0.00    -0.280 A  
HETATM   13  N   UNL     1      -9.599  10.788  68.967  1.00  0.00    -0.198 NA 
HETATM   14  C   UNL     1      -7.881   9.466  69.989  1.00  0.00    -0.135 A  
HETATM   15  C   UNL     1     -10.472  10.337  69.881  1.00  0.00    -0.256 A  
HETATM   16  C   UNL     1     -11.780  10.786  69.785  1.00  0.00    -0.399 A  
HETATM   17  C   UNL     1      -8.334  10.343  69.029  1.00  0.00    -0.150 A  
HETATM   18  C   UNL     1     -12.774  10.378  70.680  1.00  0.00    -0.417 A  
HETATM   19  C   UNL     1     -10.122   9.446  70.922  1.00  0.00    -0.366 A  
HETATM   20  C   UNL     1     -12.453   9.506  71.710  1.00  0.00    -0.401 A  
HETATM   21  C   UNL     1     -11.137   9.053  71.830  1.00  0.00    -0.444 A  
BRANCH  20  22
HETATM   22  O   UNL     1     -13.316   9.022  72.653  1.00  0.00    -0.458 OA 
HETATM   23  C   UNL     1     -14.342   8.147  72.197  1.00  0.00    -0.372 C  
ENDBRANCH  20  22
ENDBRANCH   9  12
ENDBRANCH   1   9
BRANCH   6  24
HETATM   24  C   UNL     1     -10.577   3.530  72.906  1.00  0.00    -0.218 C  
HETATM   25  C   UNL     1     -10.316   2.571  73.802  1.00  0.00    -0.206 C  
ENDBRANCH   6  24
TORSDOF 4
ENDMDL
MODEL      135
REMARK 921   NORMALIZED FREE ENERGY PREDICTED BY IDOCK:   -4.51 KCAL/MOL
REMARK 922        TOTAL FREE ENERGY PREDICTED BY IDOCK:   -6.35 KCAL/MOL
REMARK 923 INTER-LIGAND FREE ENERGY PREDICTED BY IDOCK:   -6.80 KCAL/MOL
REMARK 924 INTRA-LIGAND FREE ENERGY PREDICTED BY IDOCK:    0.45 KCAL/MOL
REMARK 927      BINDING AFFINITY PREDICTED BY RF-SCORE:    0.00 PKD
ROOT
HETATM    1  C   UNL     1     -10.789  13.834  65.439  1.00  0.00    -0.312 C  
HETATM    2  N   UNL     1     -11.787  12.901  66.063  1.00  0.00    -0.409 NA 
HETATM    3  C   UNL     1     -10.413  13.345  64.017  1.00  0.00    -0.039 C  
HETATM    4  C   UNL     1     -12.970  12.694  65.204  1.00  0.00     0.177 C  
HETATM    5  C   UNL     1     -11.056  11.972  63.748  1.00  0.00    -0.510 C  
HETATM    6  C   UNL     1     -10.692  10.966  64.870  1.00  0.00    -0.240 C  
HETATM    7  C   UNL     1     -12.579  12.200  63.803  1.00  0.00    -0.585 C  
HETATM    8  C   UNL     1     -11.121  11.578  66.231  1.00  0.00    -0.263 C  
ENDROOT
BRANCH   1   9
HETATM    9  C   UNL     1     -11.171  15.360  65.517  1.00  0.00    -0.234 C  
HETATM   10  O   UNL     1     -10.482  16.194  64.577  1.00  0.00    -0.652 OA 
HETATM   11  H   UNL     1     -10.712  17.114  64.624  1.00  0.00     0.000 HD 
BRANCH   9  12
HETATM   12  C   UNL     1     -10.938  15.931  66.915  1.00  0.00    -0.172 A  
HETATM   13  N   UNL     1     -10.691  16.996  69.502  1.00  0.00    -0.245 NA 
HETATM   14  C   UNL     1     -11.691  15.430  67.988  1.00  0.00    -0.235 A  
HETATM   15  C   UNL     1      -9.939  17.469  68.496  1.00  0.00    -0.344 A  
HETATM   16  C   UNL     1      -9.050  18.491  68.794  1.00  0.00    -0.283 A  
HETATM   17  C   UNL     1     -11.538  15.988  69.237  1.00  0.00    -0.331 A  
HETATM   18  C   UNL     1      -8.215  19.056  67.825  1.00  0.00    -0.305 A  
HETATM   19  C   UNL     1     -10.017  16.987  67.169  1.00  0.00    -0.281 A  
HETATM   20  C   UNL     1      -8.276  18.599  66.516  1.00  0.00    -0.286 A  
HETATM   21  C   UNL     1      -9.176  17.579  66.196  1.00  0.00    -0.162 A  
BRANCH  20  22
HETATM   22  O   UNL     1      -7.523  19.052  65.470  1.00  0.00    -0.476 OA 
HETATM   23  C   UNL     1      -7.079  20.403  65.533  1.00  0.00    -0.194 C  
ENDBRANCH  20  22
ENDBRANCH   9  12
ENDBRANCH   1   9
BRANCH   6  24
HETATM   24  C   UNL     1      -9.230  10.586  64.865  1.00  0.00    -0.254 C  
HETATM   25  C   UNL     1      -8.413  10.723  65.916  1.00  0.00    -0.166 C  
ENDBRANCH   6  24
TORSDOF 4
ENDMDL
MODEL      136
REMARK 921   NORMALIZED FREE ENERGY PREDICTED BY IDOCK:   -4.44 KCAL/MOL
REMARK 922        TOTAL FREE ENERGY PREDICTED BY IDOCK:   -6.27 KCAL/MOL
REMARK 923 INTER-LIGAND FREE ENERGY PREDICTED BY IDOCK:   -5.56 KCAL/MOL
REMARK 924 INTRA-LIGAND FREE ENERGY PREDICTED BY IDOCK:   -0.70 KCAL/MOL
REMARK 927      BINDING AFFINITY PREDICTED BY RF-SCORE:    0.00 PKD
ROOT
HETATM    1  C   UNL     1     -11.274   7.334  69.615  1.00  0.00    -0.084 C  
HETATM    2  N   UNL     1     -11.299   6.253  70.657  1.00  0.00    -0.342 NA 
HETATM    3  C   UNL     1     -10.742   8.655  70.225  1.00  0.00    -0.243 C  
HETATM    4  C   UNL     1      -9.990   6.085  71.319  1.00  0.00    -0.184 C  
HETATM    5  C   UNL     1     -10.556   8.494  71.745  1.00  0.00    -0.371 C  
HETATM    6  C   UNL     1     -11.861   7.983  72.406  1.00  0.00    -0.429 C  
HETATM    7  C   UNL     1      -9.483   7.402  71.926  1.00  0.00    -0.166 C  
HETATM    8  C   UNL     1     -12.278   6.662  71.704  1.00  0.00    -0.352 C  
ENDROOT
BRANCH   1   9
HETATM    9  C   UNL     1     -10.587   6.927  68.257  1.00  0.00    -0.215 C  
HETATM   10  O   UNL     1     -10.384   5.518  68.092  1.00  0.00    -0.185 OA 
HETATM   11  H   UNL     1      -9.970   5.273  67.274  1.00  0.00     0.000 HD 
BRANCH   9  12
HETATM   12  C   UNL     1      -9.239   7.623  68.074  1.00  0.00    -0.138 A  
HETATM   13  N   UNL     1      -6.736   8.887  67.919  1.00  0.00    -0.068 NA 
HETATM   14  C   UNL     1      -8.103   7.077  68.691  1.00  0.00    -0.121 A  
HETATM   15  C   UNL     1      -7.804   9.411  67.296  1.00  0.00    -0.099 A  
HETATM   16  C   UNL     1      -7.611  10.585  66.584  1.00  0.00    -0.120 A  
HETATM   17  C   UNL     1      -6.899   7.736  68.591  1.00  0.00    -0.062 A  
HETATM   18  C   UNL     1      -8.650  11.215  65.894  1.00  0.00    -0.135 A  
HETATM   19  C   UNL     1      -9.093   8.833  67.339  1.00  0.00    -0.147 A  
HETATM   20  C   UNL     1      -9.925  10.667  65.924  1.00  0.00    -0.255 A  
HETATM   21  C   UNL     1     -10.140   9.491  66.647  1.00  0.00    -0.321 A  
BRANCH  20  22
HETATM   22  O   UNL     1     -11.031  11.168  65.298  1.00  0.00    -0.198 OA 
HETATM   23  C   UNL     1     -10.932  11.391  63.895  1.00  0.00    -0.366 C  
ENDBRANCH  20  22
ENDBRANCH   9  12
ENDBRANCH   1   9
BRANCH   6  24
HETATM   24  C   UNL     1     -12.973   9.006  72.377  1.00  0.00    -0.471 C  
HETATM   25  C   UNL     1     -14.222   8.748  71.971  1.00  0.00    -0.493 C  
ENDBRANCH   6  24
TORSDOF 4
ENDMDL
MODEL      137
REMARK 921   NORMALIZED FREE ENERGY PREDICTED BY IDOCK:   -4.44 KCAL/MOL
REMARK 922        TOTAL FREE ENERGY PREDICTED BY IDOCK:   -6.27 KCAL/MOL
REMARK 923 INTER-LIGAND FREE ENERGY PREDICTED BY IDOCK:   -5.86 KCAL/MOL
REMARK 924 INTRA-LIGAND FREE ENERGY PREDICTED BY IDOCK:   -0.41 KCAL/MOL
REMARK 927      BINDING AFFINITY PREDICTED BY RF-SCORE:    0.00 PKD
ROOT
HETATM    1  C   UNL     1      -9.523  13.070  67.009  1.00  0.00    -0.237 C  
HETATM    2  N   UNL     1     -10.726  12.858  67.883  1.00  0.00    -0.215 NA 
HETATM    3  C   UNL     1      -9.674  14.381  66.197  1.00  0.00    -0.335 C  
HETATM    4  C   UNL     1     -11.006  14.027  68.740  1.00  0.00    -0.262 C  
HETATM    5  C   UNL     1     -11.077  14.975  66.416  1.00  0.00    -0.329 C  
HETATM    6  C   UNL     1     -12.173  13.923  66.111  1.00  0.00    -0.498 C  
HETATM    7  C   UNL     1     -11.162  15.315  67.917  1.00  0.00    -0.333 C  
HETATM    8  C   UNL     1     -11.903  12.670  66.988  1.00  0.00    -0.345 C  
ENDROOT
BRANCH   1   9
HETATM    9  C   UNL     1      -8.138  12.921  67.744  1.00  0.00    -0.166 C  
HETATM   10  O   UNL     1      -7.033  13.522  67.056  1.00  0.00    -0.403 OA 
HETATM   11  H   UNL     1      -6.198  13.432  67.499  1.00  0.00     0.000 HD 
BRANCH   9  12
HETATM   12  C   UNL     1      -7.791  11.457  68.007  1.00  0.00    -0.121 A  
HETATM   13  N   UNL     1      -6.985   8.820  68.542  1.00  0.00    -0.064 NA 
HETATM   14  C   UNL     1      -7.155  11.115  69.211  1.00  0.00    -0.123 A  
HETATM   15  C   UNL     1      -7.619   9.120  67.397  1.00  0.00    -0.085 A  
HETATM   16  C   UNL     1      -7.852   8.081  66.509  1.00  0.00    -0.097 A  
HETATM   17  C   UNL     1      -6.775   9.809  69.425  1.00  0.00    -0.055 A  
HETATM   18  C   UNL     1      -8.506   8.278  65.290  1.00  0.00    -0.179 A  
HETATM   19  C   UNL     1      -8.044  10.426  67.059  1.00  0.00    -0.116 A  
HETATM   20  C   UNL     1      -8.931   9.551  64.937  1.00  0.00    -0.219 A  
HETATM   21  C   UNL     1      -8.693  10.612  65.814  1.00  0.00    -0.192 A  
BRANCH  20  22
HETATM   22  O   UNL     1      -9.583   9.892  63.785  1.00  0.00    -0.237 OA 
HETATM   23  C   UNL     1      -8.999  10.922  62.995  1.00  0.00    -0.256 C  
ENDBRANCH  20  22
ENDBRANCH   9  12
ENDBRANCH   1   9
BRANCH   6  24
HETATM   24  C   UNL     1     -12.256  13.571  64.644  1.00  0.00    -0.450 C  
HETATM   25  C   UNL     1     -12.175  12.324  64.164  1.00  0.00    -0.539 C  
ENDBRANCH   6  24
TORSDOF 4
ENDMDL
MODEL      138
REMARK 921   NORMALIZED FREE ENERGY PREDICTED BY IDOCK:   -4.43 KCAL/MOL
REMARK 922        TOTAL FREE ENERGY PREDICTED BY IDOCK:   -6.25 KCAL/MOL
REMARK 923 INTER-LIGAND FREE ENERGY PREDICTED BY IDOCK:   -6.26 KCAL/MOL
REMARK 924 INTRA-LIGAND FREE ENERGY PREDICTED BY IDOCK:    0.01 KCAL/MOL
REMARK 927      BINDING AFFINITY PREDICTED BY RF-SCORE:    0.00 PKD
ROOT
HETATM    1  C   UNL     1      -8.700   6.948  70.888  1.00  0.00    -0.141 C  
HETATM    2  N   UNL     1      -9.270   6.046  71.944  1.00  0.00    -0.151 NA 
HETATM    3  C   UNL     1      -9.520   6.826  69.579  1.00  0.00    -0.148 C  
HETATM    4  C   UNL     1     -10.714   6.275  72.156  1.00  0.00    -0.231 C  
HETATM    5  C   UNL     1     -10.564   5.702  69.716  1.00  0.00    -0.400 C  
HETATM    6  C   UNL     1      -9.889   4.378  70.156  1.00  0.00    -0.288 C  
HETATM    7  C   UNL     1     -11.511   6.141  70.849  1.00  0.00    -0.317 C  
HETATM    8  C   UNL     1      -9.108   4.642  71.471  1.00  0.00    -0.135 C  
ENDROOT
BRANCH   1   9
HETATM    9  C   UNL     1      -8.444   8.431  71.353  1.00  0.00    -0.155 C  
HETATM   10  O   UNL     1      -8.951   8.741  72.657  1.00  0.00    -0.380 OA 
HETATM   11  H   UNL     1      -8.797   9.635  72.937  1.00  0.00     0.000 HD 
BRANCH   9  12
HETATM   12  C   UNL     1      -9.026   9.442  70.367  1.00  0.00    -0.294 A  
HETATM   13  N   UNL     1      -9.947  11.404  68.581  1.00  0.00    -0.207 NA 
HETATM   14  C   UNL     1      -8.199   9.961  69.358  1.00  0.00    -0.147 A  
HETATM   15  C   UNL     1     -10.764  10.899  69.519  1.00  0.00    -0.206 A  
HETATM   16  C   UNL     1     -12.062  11.385  69.559  1.00  0.00    -0.370 A  
HETATM   17  C   UNL     1      -8.695  10.926  68.510  1.00  0.00    -0.153 A  
HETATM   18  C   UNL     1     -12.998  10.927  70.491  1.00  0.00    -0.212 A  
HETATM   19  C   UNL     1     -10.365   9.917  70.454  1.00  0.00    -0.322 A  
HETATM   20  C   UNL     1     -12.629   9.965  71.419  1.00  0.00    -0.398 A  
HETATM   21  C   UNL     1     -11.321   9.473  71.401  1.00  0.00    -0.462 A  
BRANCH  20  22
HETATM   22  O   UNL     1     -13.433   9.424  72.382  1.00  0.00    -0.457 OA 
HETATM   23  C   UNL     1     -14.330   8.398  71.970  1.00  0.00    -0.464 C  
ENDBRANCH  20  22
ENDBRANCH   9  12
ENDBRANCH   1   9
BRANCH   6  24
HETATM   24  C   UNL     1      -8.998   3.790  69.086  1.00  0.00    -0.176 C  
HETATM   25  C   UNL     1      -7.665   3.713  69.176  1.00  0.00    -0.052 C  
ENDBRANCH   6  24
TORSDOF 4
ENDMDL
MODEL      139
REMARK 921   NORMALIZED FREE ENERGY PREDICTED BY IDOCK:   -4.42 KCAL/MOL
REMARK 922        TOTAL FREE ENERGY PREDICTED BY IDOCK:   -6.24 KCAL/MOL
REMARK 923 INTER-LIGAND FREE ENERGY PREDICTED BY IDOCK:   -6.38 KCAL/MOL
REMARK 924 INTRA-LIGAND FREE ENERGY PREDICTED BY IDOCK:    0.14 KCAL/MOL
REMARK 927      BINDING AFFINITY PREDICTED BY RF-SCORE:    0.00 PKD
ROOT
HETATM    1  C   UNL     1     -10.459  14.609  68.173  1.00  0.00    -0.237 C  
HETATM    2  N   UNL     1     -11.509  15.126  67.232  1.00  0.00    -0.322 NA 
HETATM    3  C   UNL     1      -9.329  13.903  67.381  1.00  0.00    -0.228 C  
HETATM    4  C   UNL     1     -10.938  15.983  66.174  1.00  0.00    -0.083 C  
HETATM    5  C   UNL     1      -9.712  13.810  65.892  1.00  0.00    -0.217 C  
HETATM    6  C   UNL     1     -11.101  13.145  65.723  1.00  0.00    -0.293 C  
HETATM    7  C   UNL     1      -9.827  15.263  65.394  1.00  0.00    -0.318 C  
HETATM    8  C   UNL     1     -12.131  13.948  66.563  1.00  0.00    -0.449 C  
ENDROOT
BRANCH   1   9
HETATM    9  C   UNL     1      -9.948  15.656  69.232  1.00  0.00    -0.265 C  
HETATM   10  O   UNL     1     -10.693  16.880  69.266  1.00  0.00    -0.335 OA 
HETATM   11  H   UNL     1     -10.385  17.511  69.905  1.00  0.00     0.000 HD 
BRANCH   9  12
HETATM   12  C   UNL     1      -8.476  16.005  69.018  1.00  0.00    -0.244 A  
HETATM   13  N   UNL     1      -5.740  16.603  68.799  1.00  0.00    -0.126 NA 
HETATM   14  C   UNL     1      -7.492  15.113  69.474  1.00  0.00    -0.213 A  
HETATM   15  C   UNL     1      -6.664  17.457  68.329  1.00  0.00    -0.183 A  
HETATM   16  C   UNL     1      -6.207  18.626  67.741  1.00  0.00    -0.194 A  
HETATM   17  C   UNL     1      -6.164  15.454  69.349  1.00  0.00    -0.128 A  
HETATM   18  C   UNL     1      -7.079  19.583  67.214  1.00  0.00    -0.228 A  
HETATM   19  C   UNL     1      -8.056  17.224  68.414  1.00  0.00    -0.259 A  
HETATM   20  C   UNL     1      -8.450  19.377  67.287  1.00  0.00    -0.295 A  
HETATM   21  C   UNL     1      -8.928  18.210  67.889  1.00  0.00    -0.273 A  
BRANCH  20  22
HETATM   22  O   UNL     1      -9.417  20.218  66.815  1.00  0.00    -0.385 OA 
HETATM   23  C   UNL     1     -10.736  19.692  66.715  1.00  0.00    -0.447 C  
ENDBRANCH  20  22
ENDBRANCH   9  12
ENDBRANCH   1   9
BRANCH   6  24
HETATM   24  C   UNL     1     -11.099  11.680  66.094  1.00  0.00    -0.335 C  
HETATM   25  C   UNL     1     -10.236  10.781  65.605  1.00  0.00    -0.320 C  
ENDBRANCH   6  24
TORSDOF 4
ENDMDL
MODEL      140
REMARK 921   NORMALIZED FREE ENERGY PREDICTED BY IDOCK:   -4.40 KCAL/MOL
REMARK 922        TOTAL FREE ENERGY PREDICTED BY IDOCK:   -6.21 KCAL/MOL
REMARK 923 INTER-LIGAND FREE ENERGY PREDICTED BY IDOCK:   -5.79 KCAL/MOL
REMARK 924 INTRA-LIGAND FREE ENERGY PREDICTED BY IDOCK:   -0.42 KCAL/MOL
REMARK 927      BINDING AFFINITY PREDICTED BY RF-SCORE:    0.00 PKD
ROOT
HETATM    1  C   UNL     1      -8.057  18.110  67.743  1.00  0.00    -0.238 C  
HETATM    2  N   UNL     1      -9.335  18.452  68.452  1.00  0.00    -0.319 NA 
HETATM    3  C   UNL     1      -8.324  17.886  66.233  1.00  0.00    -0.230 C  
HETATM    4  C   UNL     1     -10.033  19.593  67.825  1.00  0.00    -0.394 C  
HETATM    5  C   UNL     1      -9.838  17.928  65.956  1.00  0.00    -0.180 C  
HETATM    6  C   UNL     1     -10.591  16.934  66.876  1.00  0.00    -0.214 C  
HETATM    7  C   UNL     1     -10.297  19.350  66.332  1.00  0.00    -0.575 C  
HETATM    8  C   UNL     1     -10.236  17.269  68.350  1.00  0.00    -0.358 C  
ENDROOT
BRANCH   1   9
HETATM    9  C   UNL     1      -6.851  19.075  68.050  1.00  0.00    -0.233 C  
HETATM   10  O   UNL     1      -5.762  18.978  67.123  1.00  0.00    -0.166 OA 
HETATM   11  H   UNL     1      -5.034  19.561  67.308  1.00  0.00     0.000 HD 
BRANCH   9  12
HETATM   12  C   UNL     1      -6.296  18.858  69.456  1.00  0.00    -0.284 A  
HETATM   13  N   UNL     1      -5.148  18.587  72.006  1.00  0.00    -0.728 NA 
HETATM   14  C   UNL     1      -6.018  19.977  70.258  1.00  0.00    -0.375 A  
HETATM   15  C   UNL     1      -5.433  17.502  71.268  1.00  0.00     0.168 A  
HETATM   16  C   UNL     1      -5.139  16.265  71.819  1.00  0.00     0.211 A  
HETATM   17  C   UNL     1      -5.451  19.793  71.499  1.00  0.00    -0.376 A  
HETATM   18  C   UNL     1      -5.398  15.069  71.142  1.00  0.00    -0.105 A  
HETATM   19  C   UNL     1      -6.003  17.566  69.975  1.00  0.00    -0.188 A  
HETATM   20  C   UNL     1      -5.955  15.107  69.872  1.00  0.00    -0.136 A  
HETATM   21  C   UNL     1      -6.246  16.346  69.296  1.00  0.00    -0.178 A  
BRANCH  20  22
HETATM   22  O   UNL     1      -6.264  14.026  69.096  1.00  0.00    -0.092 OA 
HETATM   23  C   UNL     1      -7.067  14.267  67.945  1.00  0.00    -0.160 C  
ENDBRANCH  20  22
ENDBRANCH   9  12
ENDBRANCH   1   9
BRANCH   6  24
HETATM   24  C   UNL     1     -10.295  15.489  66.546  1.00  0.00    -0.293 C  
HETATM   25  C   UNL     1     -10.977  14.768  65.647  1.00  0.00    -0.345 C  
ENDBRANCH   6  24
TORSDOF 4
ENDMDL
MODEL      141
REMARK 921   NORMALIZED FREE ENERGY PREDICTED BY IDOCK:   -4.38 KCAL/MOL
REMARK 922        TOTAL FREE ENERGY PREDICTED BY IDOCK:   -6.19 KCAL/MOL
REMARK 923 INTER-LIGAND FREE ENERGY PREDICTED BY IDOCK:   -5.92 KCAL/MOL
REMARK 924 INTRA-LIGAND FREE ENERGY PREDICTED BY IDOCK:   -0.27 KCAL/MOL
REMARK 927      BINDING AFFINITY PREDICTED BY RF-SCORE:    0.00 PKD
ROOT
HETATM    1  C   UNL     1     -10.752  12.913  67.091  1.00  0.00    -0.253 C  
HETATM    2  N   UNL     1     -10.655  12.638  65.619  1.00  0.00    -0.268 NA 
HETATM    3  C   UNL     1     -11.829  13.995  67.365  1.00  0.00    -0.445 C  
HETATM    4  C   UNL     1     -11.964  12.298  65.026  1.00  0.00    -0.354 C  
HETATM    5  C   UNL     1     -12.349  14.565  66.033  1.00  0.00    -0.234 C  
HETATM    6  C   UNL     1     -11.175  15.063  65.153  1.00  0.00    -0.391 C  
HETATM    7  C   UNL     1     -13.014  13.384  65.299  1.00  0.00    -0.258 C  
HETATM    8  C   UNL     1     -10.179  13.887  64.959  1.00  0.00    -0.358 C  
ENDROOT
BRANCH   1   9
HETATM    9  C   UNL     1     -10.881  11.631  67.997  1.00  0.00    -0.215 C  
HETATM   10  O   UNL     1     -10.501  11.829  69.364  1.00  0.00    -0.430 OA 
HETATM   11  H   UNL     1     -10.578  11.056  69.910  1.00  0.00     0.000 HD 
BRANCH   9  12
HETATM   12  C   UNL     1     -10.065  10.464  67.444  1.00  0.00    -0.237 A  
HETATM   13  N   UNL     1      -8.639   8.212  66.557  1.00  0.00    -0.132 NA 
HETATM   14  C   UNL     1     -10.702   9.232  67.226  1.00  0.00    -0.244 A  
HETATM   15  C   UNL     1      -8.016   9.389  66.730  1.00  0.00    -0.108 A  
HETATM   16  C   UNL     1      -6.658   9.435  66.453  1.00  0.00    -0.071 A  
HETATM   17  C   UNL     1      -9.959   8.156  66.796  1.00  0.00    -0.279 A  
HETATM   18  C   UNL     1      -5.910  10.608  66.594  1.00  0.00    -0.074 A  
HETATM   19  C   UNL     1      -8.669  10.559  67.182  1.00  0.00    -0.130 A  
HETATM   20  C   UNL     1      -6.530  11.768  67.037  1.00  0.00    -0.147 A  
HETATM   21  C   UNL     1      -7.895  11.736  67.333  1.00  0.00    -0.155 A  
BRANCH  20  22
HETATM   22  O   UNL     1      -5.931  12.982  67.218  1.00  0.00    -0.319 OA 
HETATM   23  C   UNL     1      -6.001  13.547  68.523  1.00  0.00    -0.090 C  
ENDBRANCH  20  22
ENDBRANCH   9  12
ENDBRANCH   1   9
BRANCH   6  24
HETATM   24  C   UNL     1     -10.493  16.285  65.722  1.00  0.00    -0.379 C  
HETATM   25  C   UNL     1      -9.196  16.338  66.051  1.00  0.00    -0.351 C  
ENDBRANCH   6  24
TORSDOF 4
ENDMDL
MODEL      142
REMARK 921   NORMALIZED FREE ENERGY PREDICTED BY IDOCK:   -4.37 KCAL/MOL
REMARK 922        TOTAL FREE ENERGY PREDICTED BY IDOCK:   -6.18 KCAL/MOL
REMARK 923 INTER-LIGAND FREE ENERGY PREDICTED BY IDOCK:   -5.50 KCAL/MOL
REMARK 924 INTRA-LIGAND FREE ENERGY PREDICTED BY IDOCK:   -0.69 KCAL/MOL
REMARK 927      BINDING AFFINITY PREDICTED BY RF-SCORE:    0.00 PKD
ROOT
HETATM    1  C   UNL     1      -8.148  11.009  66.878  1.00  0.00    -0.142 C  
HETATM    2  N   UNL     1      -7.846   9.567  67.168  1.00  0.00    -0.095 NA 
HETATM    3  C   UNL     1      -9.400  11.124  65.972  1.00  0.00    -0.228 C  
HETATM    4  C   UNL     1      -9.014   8.853  67.722  1.00  0.00    -0.135 C  
HETATM    5  C   UNL     1      -9.851   9.723  65.520  1.00  0.00    -0.378 C  
HETATM    6  C   UNL     1      -8.676   8.953  64.866  1.00  0.00    -0.184 C  
HETATM    7  C   UNL     1     -10.242   8.970  66.806  1.00  0.00    -0.341 C  
HETATM    8  C   UNL     1      -7.497   8.913  65.875  1.00  0.00    -0.093 C  
ENDROOT
BRANCH   1   9
HETATM    9  C   UNL     1      -8.178  11.946  68.144  1.00  0.00    -0.158 C  
HETATM   10  O   UNL     1      -7.954  11.272  69.388  1.00  0.00    -0.361 OA 
HETATM   11  H   UNL     1      -7.972  11.836  70.151  1.00  0.00     0.000 HD 
BRANCH   9  12
HETATM   12  C   UNL     1      -9.498  12.709  68.251  1.00  0.00    -0.203 A  
HETATM   13  N   UNL     1     -12.009  13.961  68.384  1.00  0.00    -0.366 NA 
HETATM   14  C   UNL     1     -10.601  12.077  68.847  1.00  0.00    -0.192 A  
HETATM   15  C   UNL     1     -10.959  14.595  67.836  1.00  0.00    -0.277 A  
HETATM   16  C   UNL     1     -11.174  15.875  67.350  1.00  0.00    -0.134 A  
HETATM   17  C   UNL     1     -11.813  12.731  68.884  1.00  0.00    -0.308 A  
HETATM   18  C   UNL     1     -10.152  16.629  66.765  1.00  0.00    -0.293 A  
HETATM   19  C   UNL     1      -9.671  14.022  67.729  1.00  0.00    -0.228 A  
HETATM   20  C   UNL     1      -8.880  16.086  66.647  1.00  0.00    -0.272 A  
HETATM   21  C   UNL     1      -8.650  14.792  67.120  1.00  0.00    -0.248 A  
BRANCH  20  22
HETATM   22  O   UNL     1      -7.789  16.702  66.103  1.00  0.00    -0.308 OA 
HETATM   23  C   UNL     1      -7.622  18.087  66.389  1.00  0.00    -0.262 C  
ENDBRANCH  20  22
ENDBRANCH   9  12
ENDBRANCH   1   9
BRANCH   6  24
HETATM   24  C   UNL     1      -8.255   9.542  63.539  1.00  0.00    -0.164 C  
HETATM   25  C   UNL     1      -7.060  10.097  63.308  1.00  0.00    -0.127 C  
ENDBRANCH   6  24
TORSDOF 4
ENDMDL
MODEL      143
REMARK 921   NORMALIZED FREE ENERGY PREDICTED BY IDOCK:   -4.34 KCAL/MOL
REMARK 922        TOTAL FREE ENERGY PREDICTED BY IDOCK:   -6.14 KCAL/MOL
REMARK 923 INTER-LIGAND FREE ENERGY PREDICTED BY IDOCK:   -5.98 KCAL/MOL
REMARK 924 INTRA-LIGAND FREE ENERGY PREDICTED BY IDOCK:   -0.16 KCAL/MOL
REMARK 927      BINDING AFFINITY PREDICTED BY RF-SCORE:    0.00 PKD
ROOT
HETATM    1  C   UNL     1     -11.211  12.090  66.415  1.00  0.00    -0.337 C  
HETATM    2  N   UNL     1     -12.449  12.493  65.666  1.00  0.00    -0.611 NA 
HETATM    3  C   UNL     1      -9.955  12.696  65.739  1.00  0.00    -0.266 C  
HETATM    4  C   UNL     1     -12.547  13.956  65.496  1.00  0.00    -0.526 C  
HETATM    5  C   UNL     1     -10.350  13.388  64.422  1.00  0.00    -0.347 C  
HETATM    6  C   UNL     1     -11.143  12.419  63.509  1.00  0.00    -0.521 C  
HETATM    7  C   UNL     1     -11.298  14.537  64.817  1.00  0.00    -0.397 C  
HETATM    8  C   UNL     1     -12.367  11.890  64.305  1.00  0.00    -0.211 C  
ENDROOT
BRANCH   1   9
HETATM    9  C   UNL     1     -11.278  12.314  67.972  1.00  0.00    -0.269 C  
HETATM   10  O   UNL     1     -10.708  13.550  68.420  1.00  0.00    -0.244 OA 
HETATM   11  H   UNL     1     -10.748  13.685  69.359  1.00  0.00     0.000 HD 
BRANCH   9  12
HETATM   12  C   UNL     1     -10.601  11.177  68.737  1.00  0.00    -0.233 A  
HETATM   13  N   UNL     1      -9.487   9.103  70.269  1.00  0.00    -0.201 NA 
HETATM   14  C   UNL     1     -11.387  10.120  69.221  1.00  0.00    -0.211 A  
HETATM   15  C   UNL     1      -8.711  10.089  69.790  1.00  0.00    -0.179 A  
HETATM   16  C   UNL     1      -7.357  10.031  70.083  1.00  0.00    -0.171 A  
HETATM   17  C   UNL     1     -10.796   9.129  69.972  1.00  0.00    -0.234 A  
HETATM   18  C   UNL     1      -6.457  11.001  69.633  1.00  0.00    -0.123 A  
HETATM   19  C   UNL     1      -9.206  11.167  69.020  1.00  0.00    -0.045 A  
HETATM   20  C   UNL     1      -6.920  12.068  68.877  1.00  0.00    -0.104 A  
HETATM   21  C   UNL     1      -8.283  12.149  68.583  1.00  0.00    -0.033 A  
BRANCH  20  22
HETATM   22  O   UNL     1      -6.160  13.084  68.368  1.00  0.00    -0.070 OA 
HETATM   23  C   UNL     1      -6.846  14.102  67.647  1.00  0.00    -0.179 C  
ENDBRANCH  20  22
ENDBRANCH   9  12
ENDBRANCH   1   9
BRANCH   6  24
HETATM   24  C   UNL     1     -10.293  11.289  62.976  1.00  0.00    -0.248 C  
HETATM   25  C   UNL     1      -8.972  11.370  62.774  1.00  0.00    -0.219 C  
ENDBRANCH   6  24
TORSDOF 4
ENDMDL
MODEL      144
REMARK 921   NORMALIZED FREE ENERGY PREDICTED BY IDOCK:   -4.31 KCAL/MOL
REMARK 922        TOTAL FREE ENERGY PREDICTED BY IDOCK:   -6.11 KCAL/MOL
REMARK 923 INTER-LIGAND FREE ENERGY PREDICTED BY IDOCK:   -6.23 KCAL/MOL
REMARK 924 INTRA-LIGAND FREE ENERGY PREDICTED BY IDOCK:    0.12 KCAL/MOL
REMARK 927      BINDING AFFINITY PREDICTED BY RF-SCORE:    0.00 PKD
ROOT
HETATM    1  C   UNL     1     -10.261  12.393  66.889  1.00  0.00    -0.225 C  
HETATM    2  N   UNL     1     -10.892  11.142  66.349  1.00  0.00    -0.256 NA 
HETATM    3  C   UNL     1      -8.723  12.338  66.708  1.00  0.00    -0.175 C  
HETATM    4  C   UNL     1     -10.494  10.873  64.953  1.00  0.00    -0.282 C  
HETATM    5  C   UNL     1      -8.305  10.954  66.180  1.00  0.00    -0.168 C  
HETATM    6  C   UNL     1      -8.867   9.829  67.086  1.00  0.00    -0.141 C  
HETATM    7  C   UNL     1      -8.967  10.813  64.796  1.00  0.00    -0.194 C  
HETATM    8  C   UNL     1     -10.408  10.002  67.178  1.00  0.00    -0.241 C  
ENDROOT
BRANCH   1   9
HETATM    9  C   UNL     1     -10.922  13.734  66.393  1.00  0.00    -0.298 C  
HETATM   10  O   UNL     1     -10.264  14.343  65.274  1.00  0.00    -0.356 OA 
HETATM   11  H   UNL     1     -10.662  15.151  64.975  1.00  0.00     0.000 HD 
BRANCH   9  12
HETATM   12  C   UNL     1     -11.007  14.770  67.512  1.00  0.00    -0.304 A  
HETATM   13  N   UNL     1     -11.348  16.667  69.556  1.00  0.00    -0.078 NA 
HETATM   14  C   UNL     1     -11.891  14.547  68.579  1.00  0.00    -0.355 A  
HETATM   15  C   UNL     1     -10.474  16.887  68.560  1.00  0.00    -0.361 A  
HETATM   16  C   UNL     1      -9.762  18.076  68.592  1.00  0.00    -0.356 A  
HETATM   17  C   UNL     1     -12.027  15.509  69.555  1.00  0.00    -0.350 A  
HETATM   18  C   UNL     1      -8.824  18.407  67.609  1.00  0.00    -0.272 A  
HETATM   19  C   UNL     1     -10.259  15.981  67.496  1.00  0.00    -0.275 A  
HETATM   20  C   UNL     1      -8.598  17.534  66.555  1.00  0.00    -0.263 A  
HETATM   21  C   UNL     1      -9.317  16.338  66.500  1.00  0.00    -0.298 A  
BRANCH  20  22
HETATM   22  O   UNL     1      -7.714  17.722  65.530  1.00  0.00    -0.486 OA 
HETATM   23  C   UNL     1      -6.778  18.785  65.673  1.00  0.00    -0.276 C  
ENDBRANCH  20  22
ENDBRANCH   9  12
ENDBRANCH   1   9
BRANCH   6  24
HETATM   24  C   UNL     1      -8.226   9.801  68.453  1.00  0.00    -0.105 C  
HETATM   25  C   UNL     1      -8.218   8.732  69.259  1.00  0.00    -0.108 C  
ENDBRANCH   6  24
TORSDOF 4
ENDMDL
MODEL      145
REMARK 921   NORMALIZED FREE ENERGY PREDICTED BY IDOCK:   -4.30 KCAL/MOL
REMARK 922        TOTAL FREE ENERGY PREDICTED BY IDOCK:   -6.10 KCAL/MOL
REMARK 923 INTER-LIGAND FREE ENERGY PREDICTED BY IDOCK:   -5.46 KCAL/MOL
REMARK 924 INTRA-LIGAND FREE ENERGY PREDICTED BY IDOCK:   -0.63 KCAL/MOL
REMARK 927      BINDING AFFINITY PREDICTED BY RF-SCORE:    0.00 PKD
ROOT
HETATM    1  C   UNL     1      -8.961  16.200  67.976  1.00  0.00    -0.185 C  
HETATM    2  N   UNL     1      -8.494  16.231  66.550  1.00  0.00    -0.273 NA 
HETATM    3  C   UNL     1     -10.101  17.228  68.190  1.00  0.00    -0.325 C  
HETATM    4  C   UNL     1      -9.605  16.052  65.594  1.00  0.00    -0.191 C  
HETATM    5  C   UNL     1     -10.292  18.072  66.917  1.00  0.00    -0.377 C  
HETATM    6  C   UNL     1      -8.951  18.712  66.476  1.00  0.00    -0.308 C  
HETATM    7  C   UNL     1     -10.721  17.084  65.815  1.00  0.00    -0.146 C  
HETATM    8  C   UNL     1      -7.905  17.577  66.299  1.00  0.00    -0.287 C  
ENDROOT
BRANCH   1   9
HETATM    9  C   UNL     1      -9.273  14.763  68.539  1.00  0.00    -0.194 C  
HETATM   10  O   UNL     1      -9.680  14.738  69.913  1.00  0.00    -0.429 OA 
HETATM   11  H   UNL     1      -9.869  13.871  70.252  1.00  0.00     0.000 HD 
BRANCH   9  12
HETATM   12  C   UNL     1      -8.079  13.823  68.383  1.00  0.00    -0.148 A  
HETATM   13  N   UNL     1      -5.778  12.241  68.071  1.00  0.00    -0.057 NA 
HETATM   14  C   UNL     1      -6.895  14.105  69.083  1.00  0.00    -0.113 A  
HETATM   15  C   UNL     1      -6.909  11.936  67.415  1.00  0.00    -0.130 A  
HETATM   16  C   UNL     1      -6.884  10.821  66.592  1.00  0.00    -0.125 A  
HETATM   17  C   UNL     1      -5.792  13.303  68.893  1.00  0.00    -0.076 A  
HETATM   18  C   UNL     1      -8.005  10.408  65.865  1.00  0.00    -0.151 A  
HETATM   19  C   UNL     1      -8.100  12.692  67.518  1.00  0.00    -0.178 A  
HETATM   20  C   UNL     1      -9.183  11.135  65.950  1.00  0.00    -0.206 A  
HETATM   21  C   UNL     1      -9.223  12.269  66.764  1.00  0.00    -0.210 A  
BRANCH  20  22
HETATM   22  O   UNL     1     -10.353  10.851  65.303  1.00  0.00    -0.273 OA 
HETATM   23  C   UNL     1     -10.765  11.761  64.289  1.00  0.00    -0.342 C  
ENDBRANCH  20  22
ENDBRANCH   9  12
ENDBRANCH   1   9
BRANCH   6  24
HETATM   24  C   UNL     1      -8.465  19.774  67.435  1.00  0.00    -0.360 C  
HETATM   25  C   UNL     1      -7.817  19.517  68.578  1.00  0.00    -0.382 C  
ENDBRANCH   6  24
TORSDOF 4
ENDMDL
MODEL      146
REMARK 921   NORMALIZED FREE ENERGY PREDICTED BY IDOCK:   -4.30 KCAL/MOL
REMARK 922        TOTAL FREE ENERGY PREDICTED BY IDOCK:   -6.09 KCAL/MOL
REMARK 923 INTER-LIGAND FREE ENERGY PREDICTED BY IDOCK:   -5.27 KCAL/MOL
REMARK 924 INTRA-LIGAND FREE ENERGY PREDICTED BY IDOCK:   -0.82 KCAL/MOL
REMARK 927      BINDING AFFINITY PREDICTED BY RF-SCORE:    0.00 PKD
ROOT
HETATM    1  C   UNL     1      -9.704   8.870  68.076  1.00  0.00    -0.156 C  
HETATM    2  N   UNL     1      -8.584   9.868  68.000  1.00  0.00    -0.121 NA 
HETATM    3  C   UNL     1     -10.444   8.790  66.716  1.00  0.00    -0.283 C  
HETATM    4  C   UNL     1      -7.670   9.597  66.872  1.00  0.00    -0.098 C  
HETATM    5  C   UNL     1      -9.905   9.871  65.761  1.00  0.00    -0.356 C  
HETATM    6  C   UNL     1      -9.968  11.270  66.424  1.00  0.00    -0.252 C  
HETATM    7  C   UNL     1      -8.420   9.530  65.533  1.00  0.00    -0.150 C  
HETATM    8  C   UNL     1      -9.192  11.209  67.767  1.00  0.00    -0.153 C  
ENDROOT
BRANCH   1   9
HETATM    9  C   UNL     1      -9.303   7.470  68.676  1.00  0.00    -0.143 C  
HETATM   10  O   UNL     1      -9.577   6.356  67.818  1.00  0.00    -0.122 OA 
HETATM   11  H   UNL     1      -9.335   5.511  68.180  1.00  0.00     0.000 HD 
BRANCH   9  12
HETATM   12  C   UNL     1      -9.988   7.213  70.017  1.00  0.00    -0.182 A  
HETATM   13  N   UNL     1     -11.397   6.822  72.416  1.00  0.00    -0.264 NA 
HETATM   14  C   UNL     1     -11.282   6.668  70.027  1.00  0.00    -0.425 A  
HETATM   15  C   UNL     1     -10.149   7.317  72.432  1.00  0.00    -0.185 A  
HETATM   16  C   UNL     1      -9.601   7.618  73.669  1.00  0.00    -0.333 A  
HETATM   17  C   UNL     1     -11.933   6.500  71.228  1.00  0.00    -0.306 A  
HETATM   18  C   UNL     1      -8.309   8.134  73.804  1.00  0.00    -0.311 A  
HETATM   19  C   UNL     1      -9.386   7.548  71.263  1.00  0.00    -0.157 A  
HETATM   20  C   UNL     1      -7.542   8.370  72.671  1.00  0.00    -0.077 A  
HETATM   21  C   UNL     1      -8.084   8.084  71.415  1.00  0.00    -0.118 A  
BRANCH  20  22
HETATM   22  O   UNL     1      -6.269   8.865  72.650  1.00  0.00    -0.181 OA 
HETATM   23  C   UNL     1      -5.783   9.338  71.398  1.00  0.00    -0.067 C  
ENDBRANCH  20  22
ENDBRANCH   9  12
ENDBRANCH   1   9
BRANCH   6  24
HETATM   24  C   UNL     1     -11.384  11.763  66.619  1.00  0.00    -0.381 C  
HETATM   25  C   UNL     1     -11.708  13.034  66.883  1.00  0.00    -0.441 C  
ENDBRANCH   6  24
TORSDOF 4
ENDMDL
MODEL      147
REMARK 921   NORMALIZED FREE ENERGY PREDICTED BY IDOCK:   -4.30 KCAL/MOL
REMARK 922        TOTAL FREE ENERGY PREDICTED BY IDOCK:   -6.09 KCAL/MOL
REMARK 923 INTER-LIGAND FREE ENERGY PREDICTED BY IDOCK:   -5.25 KCAL/MOL
REMARK 924 INTRA-LIGAND FREE ENERGY PREDICTED BY IDOCK:   -0.83 KCAL/MOL
REMARK 927      BINDING AFFINITY PREDICTED BY RF-SCORE:    0.00 PKD
ROOT
HETATM    1  C   UNL     1      -9.161   5.117  67.353  1.00  0.00    -0.116 C  
HETATM    2  N   UNL     1      -8.846   4.004  68.311  1.00  0.00    -0.101 NA 
HETATM    3  C   UNL     1      -8.718   4.731  65.918  1.00  0.00    -0.124 C  
HETATM    4  C   UNL     1      -9.410   2.712  67.871  1.00  0.00    -0.194 C  
HETATM    5  C   UNL     1      -7.950   3.397  65.947  1.00  0.00    -0.092 C  
HETATM    6  C   UNL     1      -6.783   3.459  66.965  1.00  0.00    -0.049 C  
HETATM    7  C   UNL     1      -8.953   2.343  66.452  1.00  0.00    -0.124 C  
HETATM    8  C   UNL     1      -7.364   3.852  68.350  1.00  0.00    -0.055 C  
ENDROOT
BRANCH   1   9
HETATM    9  C   UNL     1     -10.631   5.674  67.447  1.00  0.00    -0.237 C  
HETATM   10  O   UNL     1     -11.356   5.648  66.211  1.00  0.00    -0.734 OA 
HETATM   11  H   UNL     1     -12.243   5.984  66.267  1.00  0.00     0.000 HD 
BRANCH   9  12
HETATM   12  C   UNL     1     -10.661   7.104  67.982  1.00  0.00    -0.232 A  
HETATM   13  N   UNL     1     -10.562   9.766  68.873  1.00  0.00    -0.213 NA 
HETATM   14  C   UNL     1     -10.461   8.169  67.089  1.00  0.00    -0.396 A  
HETATM   15  C   UNL     1     -10.784   8.765  69.740  1.00  0.00    -0.218 A  
HETATM   16  C   UNL     1     -10.961   9.107  71.072  1.00  0.00    -0.375 A  
HETATM   17  C   UNL     1     -10.415   9.456  67.575  1.00  0.00    -0.280 A  
HETATM   18  C   UNL     1     -11.203   8.147  72.059  1.00  0.00    -0.372 A  
HETATM   19  C   UNL     1     -10.838   7.404  69.363  1.00  0.00    -0.184 A  
HETATM   20  C   UNL     1     -11.259   6.805  71.712  1.00  0.00    -0.259 A  
HETATM   21  C   UNL     1     -11.071   6.442  70.377  1.00  0.00    -0.400 A  
BRANCH  20  22
HETATM   22  O   UNL     1     -11.490   5.762  72.564  1.00  0.00    -0.293 OA 
HETATM   23  C   UNL     1     -10.587   4.663  72.497  1.00  0.00    -0.179 C  
ENDBRANCH  20  22
ENDBRANCH   9  12
ENDBRANCH   1   9
BRANCH   6  24
HETATM   24  C   UNL     1      -5.679   4.397  66.536  1.00  0.00    -0.018 C  
HETATM   25  C   UNL     1      -5.158   4.432  65.304  1.00  0.00    -0.009 C  
ENDBRANCH   6  24
TORSDOF 4
ENDMDL
MODEL      148
REMARK 921   NORMALIZED FREE ENERGY PREDICTED BY IDOCK:   -4.28 KCAL/MOL
REMARK 922        TOTAL FREE ENERGY PREDICTED BY IDOCK:   -6.06 KCAL/MOL
REMARK 923 INTER-LIGAND FREE ENERGY PREDICTED BY IDOCK:   -6.14 KCAL/MOL
REMARK 924 INTRA-LIGAND FREE ENERGY PREDICTED BY IDOCK:    0.08 KCAL/MOL
REMARK 927      BINDING AFFINITY PREDICTED BY RF-SCORE:    0.00 PKD
ROOT
HETATM    1  C   UNL     1      -9.035  11.780  68.256  1.00  0.00    -0.180 C  
HETATM    2  N   UNL     1      -9.608  10.414  68.497  1.00  0.00    -0.152 NA 
HETATM    3  C   UNL     1      -8.495  11.887  66.807  1.00  0.00    -0.167 C  
HETATM    4  C   UNL     1     -10.621  10.047  67.486  1.00  0.00    -0.280 C  
HETATM    5  C   UNL     1      -8.569  10.513  66.116  1.00  0.00    -0.155 C  
HETATM    6  C   UNL     1      -7.857   9.432  66.969  1.00  0.00    -0.098 C  
HETATM    7  C   UNL     1     -10.065  10.150  66.058  1.00  0.00    -0.317 C  
HETATM    8  C   UNL     1      -8.492   9.432  68.386  1.00  0.00    -0.120 C  
ENDROOT
BRANCH   1   9
HETATM    9  C   UNL     1      -9.966  12.974  68.688  1.00  0.00    -0.107 C  
HETATM   10  O   UNL     1     -11.356  12.638  68.789  1.00  0.00    -0.249 OA 
HETATM   11  H   UNL     1     -11.918  13.357  69.049  1.00  0.00     0.000 HD 
BRANCH   9  12
HETATM   12  C   UNL     1      -9.837  14.165  67.739  1.00  0.00    -0.231 A  
HETATM   13  N   UNL     1      -9.609  16.464  66.141  1.00  0.00    -0.309 NA 
HETATM   14  C   UNL     1      -8.927  15.188  68.052  1.00  0.00    -0.172 A  
HETATM   15  C   UNL     1     -10.464  15.483  65.807  1.00  0.00    -0.361 A  
HETATM   16  C   UNL     1     -11.214  15.660  64.655  1.00  0.00    -0.380 A  
HETATM   17  C   UNL     1      -8.856  16.297  67.240  1.00  0.00    -0.188 A  
HETATM   18  C   UNL     1     -12.130  14.703  64.210  1.00  0.00    -0.437 A  
HETATM   19  C   UNL     1     -10.636  14.305  66.569  1.00  0.00    -0.286 A  
HETATM   20  C   UNL     1     -12.317  13.539  64.942  1.00  0.00    -0.407 A  
HETATM   21  C   UNL     1     -11.579  13.351  66.114  1.00  0.00    -0.378 A  
BRANCH  20  22
HETATM   22  O   UNL     1     -13.171  12.520  64.630  1.00  0.00    -0.848 OA 
HETATM   23  C   UNL     1     -12.832  11.718  63.504  1.00  0.00    -0.220 C  
ENDBRANCH  20  22
ENDBRANCH   9  12
ENDBRANCH   1   9
BRANCH   6  24
HETATM   24  C   UNL     1      -6.360   9.624  67.028  1.00  0.00    -0.065 C  
HETATM   25  C   UNL     1      -5.479   8.898  66.328  1.00  0.00    -0.037 C  
ENDBRANCH   6  24
TORSDOF 4
ENDMDL
MODEL      149
REMARK 921   NORMALIZED FREE ENERGY PREDICTED BY IDOCK:   -4.26 KCAL/MOL
REMARK 922        TOTAL FREE ENERGY PREDICTED BY IDOCK:   -6.04 KCAL/MOL
REMARK 923 INTER-LIGAND FREE ENERGY PREDICTED BY IDOCK:   -6.37 KCAL/MOL
REMARK 924 INTRA-LIGAND FREE ENERGY PREDICTED BY IDOCK:    0.33 KCAL/MOL
REMARK 927      BINDING AFFINITY PREDICTED BY RF-SCORE:    0.00 PKD
ROOT
HETATM    1  C   UNL     1     -10.831  12.778  67.260  1.00  0.00    -0.251 C  
HETATM    2  N   UNL     1     -10.297  12.128  66.017  1.00  0.00    -0.231 NA 
HETATM    3  C   UNL     1     -11.928  13.810  66.898  1.00  0.00    -0.460 C  
HETATM    4  C   UNL     1     -11.370  11.546  65.186  1.00  0.00    -0.086 C  
HETATM    5  C   UNL     1     -12.018  13.965  65.368  1.00  0.00    -0.393 C  
HETATM    6  C   UNL     1     -10.628  14.295  64.768  1.00  0.00    -0.434 C  
HETATM    7  C   UNL     1     -12.443  12.585  64.829  1.00  0.00    -0.532 C  
HETATM    8  C   UNL     1      -9.632  13.187  65.206  1.00  0.00     0.158 C  
ENDROOT
BRANCH   1   9
HETATM    9  C   UNL     1     -11.239  11.777  68.406  1.00  0.00    -0.251 C  
HETATM   10  O   UNL     1     -11.770  12.404  69.581  1.00  0.00    -0.300 OA 
HETATM   11  H   UNL     1     -12.016  11.801  70.272  1.00  0.00     0.000 HD 
BRANCH   9  12
HETATM   12  C   UNL     1     -10.067  10.895  68.831  1.00  0.00    -0.211 A  
HETATM   13  N   UNL     1      -7.893   9.222  69.436  1.00  0.00    -0.080 NA 
HETATM   14  C   UNL     1      -8.874  10.947  68.093  1.00  0.00    -0.137 A  
HETATM   15  C   UNL     1      -9.014   9.177  70.174  1.00  0.00    -0.198 A  
HETATM   16  C   UNL     1      -9.042   8.280  71.231  1.00  0.00    -0.202 A  
HETATM   17  C   UNL     1      -7.838  10.103  68.425  1.00  0.00    -0.093 A  
HETATM   18  C   UNL     1     -10.155   8.152  72.068  1.00  0.00    -0.304 A  
HETATM   19  C   UNL     1     -10.148   9.983  69.921  1.00  0.00    -0.289 A  
HETATM   20  C   UNL     1     -11.279   8.932  71.837  1.00  0.00    -0.377 A  
HETATM   21  C   UNL     1     -11.273   9.831  70.769  1.00  0.00    -0.419 A  
BRANCH  20  22
HETATM   22  O   UNL     1     -12.433   8.917  72.570  1.00  0.00    -0.361 OA 
HETATM   23  C   UNL     1     -13.630   8.577  71.879  1.00  0.00    -0.396 C  
ENDBRANCH  20  22
ENDBRANCH   9  12
ENDBRANCH   1   9
BRANCH   6  24
HETATM   24  C   UNL     1     -10.136  15.672  65.150  1.00  0.00    -0.216 C  
HETATM   25  C   UNL     1      -9.040  15.902  65.882  1.00  0.00    -0.304 C  
ENDBRANCH   6  24
TORSDOF 4
ENDMDL
MODEL      150
REMARK 921   NORMALIZED FREE ENERGY PREDICTED BY IDOCK:   -4.25 KCAL/MOL
REMARK 922        TOTAL FREE ENERGY PREDICTED BY IDOCK:   -6.03 KCAL/MOL
REMARK 923 INTER-LIGAND FREE ENERGY PREDICTED BY IDOCK:   -5.26 KCAL/MOL
REMARK 924 INTRA-LIGAND FREE ENERGY PREDICTED BY IDOCK:   -0.76 KCAL/MOL
REMARK 927      BINDING AFFINITY PREDICTED BY RF-SCORE:    0.00 PKD
ROOT
HETATM    1  C   UNL     1      -9.874  14.679  67.419  1.00  0.00    -0.222 C  
HETATM    2  N   UNL     1      -8.815  15.557  68.021  1.00  0.00    -0.164 NA 
HETATM    3  C   UNL     1     -11.264  15.352  67.543  1.00  0.00    -0.302 C  
HETATM    4  C   UNL     1      -8.836  16.922  67.458  1.00  0.00    -0.209 C  
HETATM    5  C   UNL     1     -11.152  16.636  68.385  1.00  0.00    -0.305 C  
HETATM    6  C   UNL     1     -10.478  16.340  69.749  1.00  0.00    -0.260 C  
HETATM    7  C   UNL     1     -10.219  17.577  67.599  1.00  0.00    -0.343 C  
HETATM    8  C   UNL     1      -9.103  15.672  69.479  1.00  0.00    -0.240 C  
ENDROOT
BRANCH   1   9
HETATM    9  C   UNL     1      -9.544  14.139  65.976  1.00  0.00    -0.225 C  
HETATM   10  O   UNL     1     -10.331  14.722  64.930  1.00  0.00    -0.406 OA 
HETATM   11  H   UNL     1     -10.133  14.397  64.060  1.00  0.00     0.000 HD 
BRANCH   9  12
HETATM   12  C   UNL     1      -9.694  12.622  65.892  1.00  0.00    -0.212 A  
HETATM   13  N   UNL     1     -10.147   9.851  65.784  1.00  0.00    -0.276 NA 
HETATM   14  C   UNL     1     -10.792  12.084  65.200  1.00  0.00    -0.347 A  
HETATM   15  C   UNL     1      -9.074  10.342  66.425  1.00  0.00    -0.157 A  
HETATM   16  C   UNL     1      -8.217   9.429  67.019  1.00  0.00    -0.116 A  
HETATM   17  C   UNL     1     -10.973  10.720  65.180  1.00  0.00     0.136 A  
HETATM   18  C   UNL     1      -7.068   9.828  67.709  1.00  0.00    -0.087 A  
HETATM   19  C   UNL     1      -8.790  11.724  66.526  1.00  0.00    -0.183 A  
HETATM   20  C   UNL     1      -6.770  11.178  67.822  1.00  0.00    -0.065 A  
HETATM   21  C   UNL     1      -7.630  12.113  67.241  1.00  0.00    -0.156 A  
BRANCH  20  22
HETATM   22  O   UNL     1      -5.686  11.713  68.460  1.00  0.00    -0.046 OA 
HETATM   23  C   UNL     1      -5.896  12.214  69.776  1.00  0.00    -0.123 C  
ENDBRANCH  20  22
ENDBRANCH   9  12
ENDBRANCH   1   9
BRANCH   6  24
HETATM   24  C   UNL     1     -11.340  15.495  70.658  1.00  0.00    -0.367 C  
HETATM   25  C   UNL     1     -11.709  15.854  71.894  1.00  0.00    -0.590 C  
ENDBRANCH   6  24
TORSDOF 4
ENDMDL
MODEL      151
REMARK 921   NORMALIZED FREE ENERGY PREDICTED BY IDOCK:   -4.23 KCAL/MOL
REMARK 922        TOTAL FREE ENERGY PREDICTED BY IDOCK:   -6.01 KCAL/MOL
REMARK 923 INTER-LIGAND FREE ENERGY PREDICTED BY IDOCK:   -5.41 KCAL/MOL
REMARK 924 INTRA-LIGAND FREE ENERGY PREDICTED BY IDOCK:   -0.59 KCAL/MOL
REMARK 927      BINDING AFFINITY PREDICTED BY RF-SCORE:    0.00 PKD
ROOT
HETATM    1  C   UNL     1      -9.396   7.942  67.893  1.00  0.00    -0.141 C  
HETATM    2  N   UNL     1      -8.135   7.710  68.674  1.00  0.00    -0.126 NA 
HETATM    3  C   UNL     1     -10.352   6.732  68.046  1.00  0.00    -0.224 C  
HETATM    4  C   UNL     1      -8.406   7.378  70.086  1.00  0.00    -0.136 C  
HETATM    5  C   UNL     1      -9.647   5.601  68.818  1.00  0.00    -0.166 C  
HETATM    6  C   UNL     1      -8.292   5.246  68.156  1.00  0.00    -0.097 C  
HETATM    7  C   UNL     1      -9.347   6.170  70.218  1.00  0.00    -0.172 C  
HETATM    8  C   UNL     1      -7.439   6.541  68.067  1.00  0.00    -0.095 C  
ENDROOT
BRANCH   1   9
HETATM    9  C   UNL     1     -10.079   9.340  68.139  1.00  0.00    -0.187 C  
HETATM   10  O   UNL     1     -11.408   9.266  68.671  1.00  0.00    -0.442 OA 
HETATM   11  H   UNL     1     -11.820  10.108  68.819  1.00  0.00     0.000 HD 
BRANCH   9  12
HETATM   12  C   UNL     1     -10.127  10.179  66.863  1.00  0.00    -0.279 A  
HETATM   13  N   UNL     1     -10.057  11.643  64.467  1.00  0.00    -0.266 NA 
HETATM   14  C   UNL     1      -9.898   9.552  65.628  1.00  0.00    -0.343 A  
HETATM   15  C   UNL     1     -10.308  12.258  65.634  1.00  0.00    -0.257 A  
HETATM   16  C   UNL     1     -10.528  13.626  65.596  1.00  0.00    -0.304 A  
HETATM   17  C   UNL     1      -9.868  10.313  64.481  1.00  0.00    -0.315 A  
HETATM   18  C   UNL     1     -10.802  14.366  66.750  1.00  0.00    -0.301 A  
HETATM   19  C   UNL     1     -10.349  11.585  66.877  1.00  0.00    -0.258 A  
HETATM   20  C   UNL     1     -10.846  13.728  67.981  1.00  0.00    -0.249 A  
HETATM   21  C   UNL     1     -10.614  12.352  68.039  1.00  0.00    -0.238 A  
BRANCH  20  22
HETATM   22  O   UNL     1     -11.104  14.319  69.185  1.00  0.00    -0.248 OA 
HETATM   23  C   UNL     1     -11.591  15.656  69.156  1.00  0.00    -0.383 C  
ENDBRANCH  20  22
ENDBRANCH   9  12
ENDBRANCH   1   9
BRANCH   6  24
HETATM   24  C   UNL     1      -8.454   4.590  66.805  1.00  0.00    -0.105 C  
HETATM   25  C   UNL     1      -7.746   3.531  66.393  1.00  0.00    -0.084 C  
ENDBRANCH   6  24
TORSDOF 4
ENDMDL
MODEL      152
REMARK 921   NORMALIZED FREE ENERGY PREDICTED BY IDOCK:   -4.23 KCAL/MOL
REMARK 922        TOTAL FREE ENERGY PREDICTED BY IDOCK:   -6.00 KCAL/MOL
REMARK 923 INTER-LIGAND FREE ENERGY PREDICTED BY IDOCK:   -6.68 KCAL/MOL
REMARK 924 INTRA-LIGAND FREE ENERGY PREDICTED BY IDOCK:    0.68 KCAL/MOL
REMARK 927      BINDING AFFINITY PREDICTED BY RF-SCORE:    0.00 PKD
ROOT
HETATM    1  C   UNL     1     -10.007  16.445  67.404  1.00  0.00    -0.251 C  
HETATM    2  N   UNL     1      -9.225  16.244  68.670  1.00  0.00    -0.217 NA 
HETATM    3  C   UNL     1      -9.120  16.136  66.171  1.00  0.00    -0.382 C  
HETATM    4  C   UNL     1      -8.607  14.905  68.738  1.00  0.00    -0.177 C  
HETATM    5  C   UNL     1      -7.671  15.875  66.619  1.00  0.00    -0.199 C  
HETATM    6  C   UNL     1      -7.145  17.046  67.488  1.00  0.00    -0.173 C  
HETATM    7  C   UNL     1      -7.725  14.620  67.513  1.00  0.00    -0.216 C  
HETATM    8  C   UNL     1      -8.121  17.245  68.679  1.00  0.00    -0.261 C  
ENDROOT
BRANCH   1   9
HETATM    9  C   UNL     1     -11.416  15.742  67.378  1.00  0.00    -0.019 C  
HETATM   10  O   UNL     1     -12.256  16.052  68.497  1.00  0.00    -0.355 OA 
HETATM   11  H   UNL     1     -13.105  15.628  68.482  1.00  0.00     0.000 HD 
BRANCH   9  12
HETATM   12  C   UNL     1     -11.289  14.222  67.290  1.00  0.00    -0.350 A  
HETATM   13  N   UNL     1     -11.152  11.435  66.972  1.00  0.00    -0.295 NA 
HETATM   14  C   UNL     1     -10.913  13.641  66.068  1.00  0.00    -0.288 A  
HETATM   15  C   UNL     1     -11.484  11.970  68.158  1.00  0.00    -0.322 A  
HETATM   16  C   UNL     1     -11.750  11.094  69.198  1.00  0.00    -0.408 A  
HETATM   17  C   UNL     1     -10.866  12.269  65.961  1.00  0.00    -0.275 A  
HETATM   18  C   UNL     1     -12.101  11.540  70.476  1.00  0.00    -0.472 A  
HETATM   19  C   UNL     1     -11.581  13.362  68.386  1.00  0.00    -0.368 A  
HETATM   20  C   UNL     1     -12.203  12.902  70.722  1.00  0.00    -0.260 A  
HETATM   21  C   UNL     1     -11.951  13.800  69.682  1.00  0.00    -0.399 A  
BRANCH  20  22
HETATM   22  O   UNL     1     -12.531  13.482  71.915  1.00  0.00    -0.167 OA 
HETATM   23  C   UNL     1     -13.726  13.030  72.544  1.00  0.00    -0.398 C  
ENDBRANCH  20  22
ENDBRANCH   9  12
ENDBRANCH   1   9
BRANCH   6  24
HETATM   24  C   UNL     1      -6.959  18.322  66.700  1.00  0.00    -0.237 C  
HETATM   25  C   UNL     1      -5.801  18.701  66.145  1.00  0.00    -0.195 C  
ENDBRANCH   6  24
TORSDOF 4
ENDMDL
MODEL      153
REMARK 921   NORMALIZED FREE ENERGY PREDICTED BY IDOCK:   -4.22 KCAL/MOL
REMARK 922        TOTAL FREE ENERGY PREDICTED BY IDOCK:   -5.99 KCAL/MOL
REMARK 923 INTER-LIGAND FREE ENERGY PREDICTED BY IDOCK:   -5.57 KCAL/MOL
REMARK 924 INTRA-LIGAND FREE ENERGY PREDICTED BY IDOCK:   -0.42 KCAL/MOL
REMARK 927      BINDING AFFINITY PREDICTED BY RF-SCORE:    0.00 PKD
ROOT
HETATM    1  C   UNL     1      -9.887   6.975  71.143  1.00  0.00    -0.176 C  
HETATM    2  N   UNL     1      -9.781   6.472  72.553  1.00  0.00    -0.159 NA 
HETATM    3  C   UNL     1      -8.934   6.178  70.216  1.00  0.00    -0.154 C  
HETATM    4  C   UNL     1      -9.991   5.013  72.644  1.00  0.00    -0.166 C  
HETATM    5  C   UNL     1      -8.059   5.228  71.055  1.00  0.00    -0.112 C  
HETATM    6  C   UNL     1      -7.330   6.005  72.180  1.00  0.00    -0.094 C  
HETATM    7  C   UNL     1      -9.032   4.240  71.726  1.00  0.00    -0.156 C  
HETATM    8  C   UNL     1      -8.396   6.752  73.027  1.00  0.00    -0.115 C  
ENDROOT
BRANCH   1   9
HETATM    9  C   UNL     1     -11.358   7.106  70.596  1.00  0.00    -0.292 C  
HETATM   10  O   UNL     1     -11.471   7.030  69.169  1.00  0.00    -0.513 OA 
HETATM   11  H   UNL     1     -12.358   7.109  68.840  1.00  0.00     0.000 HD 
BRANCH   9  12
HETATM   12  C   UNL     1     -12.018   8.406  71.053  1.00  0.00    -0.255 A  
HETATM   13  N   UNL     1     -13.392  10.711  71.882  1.00  0.00    -0.405 NA 
HETATM   14  C   UNL     1     -12.983   8.358  72.071  1.00  0.00    -0.388 A  
HETATM   15  C   UNL     1     -12.451  10.785  70.927  1.00  0.00    -0.402 A  
HETATM   16  C   UNL     1     -12.196  12.034  70.382  1.00  0.00    -0.379 A  
HETATM   17  C   UNL     1     -13.633   9.514  72.439  1.00  0.00    -0.382 A  
HETATM   18  C   UNL     1     -11.235  12.229  69.386  1.00  0.00    -0.243 A  
HETATM   19  C   UNL     1     -11.728   9.665  70.456  1.00  0.00    -0.312 A  
HETATM   20  C   UNL     1     -10.514  11.144  68.907  1.00  0.00    -0.207 A  
HETATM   21  C   UNL     1     -10.767   9.876  69.436  1.00  0.00    -0.255 A  
BRANCH  20  22
HETATM   22  O   UNL     1      -9.547  11.183  67.943  1.00  0.00    -0.167 OA 
HETATM   23  C   UNL     1      -9.687  10.279  66.853  1.00  0.00    -0.186 C  
ENDBRANCH  20  22
ENDBRANCH   9  12
ENDBRANCH   1   9
BRANCH   6  24
HETATM   24  C   UNL     1      -6.274   6.949  71.652  1.00  0.00    -0.038 C  
HETATM   25  C   UNL     1      -5.256   6.577  70.867  1.00  0.00    -0.018 C  
ENDBRANCH   6  24
TORSDOF 4
ENDMDL
MODEL      154
REMARK 921   NORMALIZED FREE ENERGY PREDICTED BY IDOCK:   -4.22 KCAL/MOL
REMARK 922        TOTAL FREE ENERGY PREDICTED BY IDOCK:   -5.99 KCAL/MOL
REMARK 923 INTER-LIGAND FREE ENERGY PREDICTED BY IDOCK:   -5.95 KCAL/MOL
REMARK 924 INTRA-LIGAND FREE ENERGY PREDICTED BY IDOCK:   -0.03 KCAL/MOL
REMARK 927      BINDING AFFINITY PREDICTED BY RF-SCORE:    0.00 PKD
ROOT
HETATM    1  C   UNL     1     -10.403   7.561  70.687  1.00  0.00    -0.208 C  
HETATM    2  N   UNL     1     -11.152   6.262  70.768  1.00  0.00    -0.297 NA 
HETATM    3  C   UNL     1      -8.897   7.331  70.970  1.00  0.00    -0.144 C  
HETATM    4  C   UNL     1     -10.564   5.224  69.899  1.00  0.00    -0.221 C  
HETATM    5  C   UNL     1      -8.662   5.872  71.404  1.00  0.00    -0.133 C  
HETATM    6  C   UNL     1      -9.584   5.497  72.591  1.00  0.00    -0.166 C  
HETATM    7  C   UNL     1      -9.074   5.003  70.200  1.00  0.00    -0.163 C  
HETATM    8  C   UNL     1     -11.054   5.774  72.173  1.00  0.00    -0.271 C  
ENDROOT
BRANCH   1   9
HETATM    9  C   UNL     1     -10.694   8.413  69.395  1.00  0.00    -0.152 C  
HETATM   10  O   UNL     1      -9.569   8.572  68.522  1.00  0.00    -0.148 OA 
HETATM   11  H   UNL     1      -9.744   9.086  67.743  1.00  0.00     0.000 HD 
BRANCH   9  12
HETATM   12  C   UNL     1     -11.225   9.803  69.741  1.00  0.00    -0.242 A  
HETATM   13  N   UNL     1     -12.343  12.278  70.457  1.00  0.00    -0.306 NA 
HETATM   14  C   UNL     1     -11.673  10.054  71.047  1.00  0.00    -0.479 A  
HETATM   15  C   UNL     1     -11.893  12.069  69.209  1.00  0.00    -0.318 A  
HETATM   16  C   UNL     1     -12.005  13.118  68.310  1.00  0.00    -0.328 A  
HETATM   17  C   UNL     1     -12.218  11.282  71.348  1.00  0.00    -0.080 A  
HETATM   18  C   UNL     1     -11.565  13.014  66.988  1.00  0.00    -0.413 A  
HETATM   19  C   UNL     1     -11.327  10.847  68.778  1.00  0.00    -0.357 A  
HETATM   20  C   UNL     1     -11.008  11.824  66.542  1.00  0.00    -0.295 A  
HETATM   21  C   UNL     1     -10.899  10.752  67.431  1.00  0.00    -0.345 A  
BRANCH  20  22
HETATM   22  O   UNL     1     -10.534  11.578  65.284  1.00  0.00    -0.264 OA 
HETATM   23  C   UNL     1      -9.984  10.287  65.044  1.00  0.00    -0.323 C  
ENDBRANCH  20  22
ENDBRANCH   9  12
ENDBRANCH   1   9
BRANCH   6  24
HETATM   24  C   UNL     1      -9.221   6.220  73.867  1.00  0.00    -0.144 C  
HETATM   25  C   UNL     1      -9.614   7.464  74.166  1.00  0.00    -0.153 C  
ENDBRANCH   6  24
TORSDOF 4
ENDMDL
MODEL      155
REMARK 921   NORMALIZED FREE ENERGY PREDICTED BY IDOCK:   -4.20 KCAL/MOL
REMARK 922        TOTAL FREE ENERGY PREDICTED BY IDOCK:   -5.97 KCAL/MOL
REMARK 923 INTER-LIGAND FREE ENERGY PREDICTED BY IDOCK:   -6.01 KCAL/MOL
REMARK 924 INTRA-LIGAND FREE ENERGY PREDICTED BY IDOCK:    0.05 KCAL/MOL
REMARK 927      BINDING AFFINITY PREDICTED BY RF-SCORE:    0.00 PKD
ROOT
HETATM    1  C   UNL     1     -10.552   6.679  71.736  1.00  0.00    -0.215 C  
HETATM    2  N   UNL     1      -9.269   6.353  71.028  1.00  0.00    -0.154 NA 
HETATM    3  C   UNL     1     -10.280   7.630  72.929  1.00  0.00    -0.356 C  
HETATM    4  C   UNL     1      -8.527   7.566  70.629  1.00  0.00    -0.132 C  
HETATM    5  C   UNL     1      -8.764   7.817  73.116  1.00  0.00    -0.250 C  
HETATM    6  C   UNL     1      -8.052   6.446  73.237  1.00  0.00    -0.110 C  
HETATM    7  C   UNL     1      -8.259   8.492  71.825  1.00  0.00    -0.209 C  
HETATM    8  C   UNL     1      -8.408   5.600  71.984  1.00  0.00    -0.122 C  
ENDROOT
BRANCH   1   9
HETATM    9  C   UNL     1     -11.727   7.143  70.795  1.00  0.00    -0.323 C  
HETATM   10  O   UNL     1     -11.459   6.998  69.394  1.00  0.00    -0.513 OA 
HETATM   11  H   UNL     1     -12.166   7.278  68.827  1.00  0.00     0.000 HD 
BRANCH   9  12
HETATM   12  C   UNL     1     -12.118   8.597  71.053  1.00  0.00    -0.247 A  
HETATM   13  N   UNL     1     -13.012  11.216  71.533  1.00  0.00    -0.452 NA 
HETATM   14  C   UNL     1     -13.026   8.884  72.085  1.00  0.00    -0.473 A  
HETATM   15  C   UNL     1     -12.121  10.968  70.560  1.00  0.00    -0.377 A  
HETATM   16  C   UNL     1     -11.672  12.050  69.820  1.00  0.00    -0.390 A  
HETATM   17  C   UNL     1     -13.438  10.183  72.278  1.00  0.00    -0.189 A  
HETATM   18  C   UNL     1     -10.740  11.909  68.787  1.00  0.00    -0.257 A  
HETATM   19  C   UNL     1     -11.635   9.675  70.259  1.00  0.00    -0.255 A  
HETATM   20  C   UNL     1     -10.251  10.650  68.472  1.00  0.00    -0.175 A  
HETATM   21  C   UNL     1     -10.702   9.546  69.199  1.00  0.00    -0.228 A  
BRANCH  20  22
HETATM   22  O   UNL     1      -9.340  10.361  67.496  1.00  0.00    -0.147 OA 
HETATM   23  C   UNL     1      -9.670   9.306  66.598  1.00  0.00    -0.219 C  
ENDBRANCH  20  22
ENDBRANCH   9  12
ENDBRANCH   1   9
BRANCH   6  24
HETATM   24  C   UNL     1      -8.394   5.719  74.517  1.00  0.00    -0.111 C  
HETATM   25  C   UNL     1      -8.938   4.497  74.566  1.00  0.00    -0.110 C  
ENDBRANCH   6  24
TORSDOF 4
ENDMDL
MODEL      156
REMARK 921   NORMALIZED FREE ENERGY PREDICTED BY IDOCK:   -4.19 KCAL/MOL
REMARK 922        TOTAL FREE ENERGY PREDICTED BY IDOCK:   -5.96 KCAL/MOL
REMARK 923 INTER-LIGAND FREE ENERGY PREDICTED BY IDOCK:   -5.93 KCAL/MOL
REMARK 924 INTRA-LIGAND FREE ENERGY PREDICTED BY IDOCK:   -0.03 KCAL/MOL
REMARK 927      BINDING AFFINITY PREDICTED BY RF-SCORE:    0.00 PKD
ROOT
HETATM    1  C   UNL     1     -10.657  11.842  68.330  1.00  0.00    -0.216 C  
HETATM    2  N   UNL     1     -10.071  12.268  67.015  1.00  0.00    -0.212 NA 
HETATM    3  C   UNL     1     -11.668  12.902  68.837  1.00  0.00    -0.370 C  
HETATM    4  C   UNL     1     -11.112  12.582  66.016  1.00  0.00    -0.294 C  
HETATM    5  C   UNL     1     -11.639  14.136  67.916  1.00  0.00    -0.370 C  
HETATM    6  C   UNL     1     -10.194  14.674  67.765  1.00  0.00    -0.229 C  
HETATM    7  C   UNL     1     -12.099  13.640  66.531  1.00  0.00    -0.469 C  
HETATM    8  C   UNL     1      -9.293  13.517  67.254  1.00  0.00    -0.233 C  
ENDROOT
BRANCH   1   9
HETATM    9  C   UNL     1     -11.200  10.364  68.365  1.00  0.00    -0.258 C  
HETATM   10  O   UNL     1     -11.824   9.989  69.599  1.00  0.00    -0.452 OA 
HETATM   11  H   UNL     1     -12.152   9.098  69.620  1.00  0.00     0.000 HD 
BRANCH   9  12
HETATM   12  C   UNL     1     -10.098   9.349  68.065  1.00  0.00    -0.230 A  
HETATM   13  N   UNL     1      -8.191   7.395  67.405  1.00  0.00    -0.112 NA 
HETATM   14  C   UNL     1      -9.858   8.980  66.732  1.00  0.00    -0.300 A  
HETATM   15  C   UNL     1      -8.384   7.755  68.685  1.00  0.00    -0.129 A  
HETATM   16  C   UNL     1      -7.607   7.126  69.645  1.00  0.00    -0.104 A  
HETATM   17  C   UNL     1      -8.916   8.014  66.460  1.00  0.00    -0.157 A  
HETATM   18  C   UNL     1      -7.720   7.425  71.006  1.00  0.00    -0.091 A  
HETATM   19  C   UNL     1      -9.331   8.724  69.088  1.00  0.00    -0.149 A  
HETATM   20  C   UNL     1      -8.645   8.371  71.426  1.00  0.00    -0.164 A  
HETATM   21  C   UNL     1      -9.445   9.006  70.472  1.00  0.00    -0.265 A  
BRANCH  20  22
HETATM   22  O   UNL     1      -8.863   8.766  72.715  1.00  0.00    -0.382 OA 
HETATM   23  C   UNL     1      -8.499   7.848  73.741  1.00  0.00    -0.252 C  
ENDBRANCH  20  22
ENDBRANCH   9  12
ENDBRANCH   1   9
BRANCH   6  24
HETATM   24  C   UNL     1      -9.656  15.278  69.042  1.00  0.00    -0.237 C  
HETATM   25  C   UNL     1      -8.355  15.446  69.305  1.00  0.00    -0.254 C  
ENDBRANCH   6  24
TORSDOF 4
ENDMDL
MODEL      157
REMARK 921   NORMALIZED FREE ENERGY PREDICTED BY IDOCK:   -4.18 KCAL/MOL
REMARK 922        TOTAL FREE ENERGY PREDICTED BY IDOCK:   -5.94 KCAL/MOL
REMARK 923 INTER-LIGAND FREE ENERGY PREDICTED BY IDOCK:   -5.10 KCAL/MOL
REMARK 924 INTRA-LIGAND FREE ENERGY PREDICTED BY IDOCK:   -0.85 KCAL/MOL
REMARK 927      BINDING AFFINITY PREDICTED BY RF-SCORE:    0.00 PKD
ROOT
HETATM    1  C   UNL     1      -9.926   7.320  70.464  1.00  0.00    -0.190 C  
HETATM    2  N   UNL     1     -10.998   6.358  70.888  1.00  0.00    -0.264 NA 
HETATM    3  C   UNL     1      -9.825   8.490  71.476  1.00  0.00    -0.309 C  
HETATM    4  C   UNL     1     -10.812   5.891  72.277  1.00  0.00    -0.245 C  
HETATM    5  C   UNL     1     -10.959   8.387  72.512  1.00  0.00    -0.388 C  
HETATM    6  C   UNL     1     -12.337   8.287  71.810  1.00  0.00    -0.366 C  
HETATM    7  C   UNL     1     -10.723   7.063  73.266  1.00  0.00    -0.373 C  
HETATM    8  C   UNL     1     -12.299   7.081  70.832  1.00  0.00    -0.314 C  
ENDROOT
BRANCH   1   9
HETATM    9  C   UNL     1      -8.544   6.655  70.105  1.00  0.00    -0.140 C  
HETATM   10  O   UNL     1      -7.417   7.226  70.781  1.00  0.00    -0.077 OA 
HETATM   11  H   UNL     1      -6.584   6.826  70.565  1.00  0.00     0.000 HD 
BRANCH   9  12
HETATM   12  C   UNL     1      -8.268   6.701  68.604  1.00  0.00    -0.119 A  
HETATM   13  N   UNL     1      -7.844   6.948  65.837  1.00  0.00    -0.101 NA 
HETATM   14  C   UNL     1      -7.746   7.879  68.044  1.00  0.00    -0.125 A  
HETATM   15  C   UNL     1      -8.315   5.802  66.356  1.00  0.00    -0.113 A  
HETATM   16  C   UNL     1      -8.576   4.766  65.472  1.00  0.00    -0.131 A  
HETATM   17  C   UNL     1      -7.562   7.953  66.681  1.00  0.00    -0.093 A  
HETATM   18  C   UNL     1      -9.063   3.528  65.901  1.00  0.00    -0.156 A  
HETATM   19  C   UNL     1      -8.560   5.612  67.735  1.00  0.00    -0.101 A  
HETATM   20  C   UNL     1      -9.312   3.319  67.250  1.00  0.00    -0.192 A  
HETATM   21  C   UNL     1      -9.068   4.357  68.153  1.00  0.00    -0.161 A  
BRANCH  20  22
HETATM   22  O   UNL     1      -9.784   2.167  67.813  1.00  0.00    -0.071 OA 
HETATM   23  C   UNL     1      -9.274   1.821  69.096  1.00  0.00    -0.128 C  
ENDBRANCH  20  22
ENDBRANCH   9  12
ENDBRANCH   1   9
BRANCH   6  24
HETATM   24  C   UNL     1     -12.730   9.565  71.106  1.00  0.00    -0.371 C  
HETATM   25  C   UNL     1     -12.914  10.738  71.723  1.00  0.00    -0.568 C  
ENDBRANCH   6  24
TORSDOF 4
ENDMDL
MODEL      158
REMARK 921   NORMALIZED FREE ENERGY PREDICTED BY IDOCK:   -4.17 KCAL/MOL
REMARK 922        TOTAL FREE ENERGY PREDICTED BY IDOCK:   -5.93 KCAL/MOL
REMARK 923 INTER-LIGAND FREE ENERGY PREDICTED BY IDOCK:   -5.49 KCAL/MOL
REMARK 924 INTRA-LIGAND FREE ENERGY PREDICTED BY IDOCK:   -0.45 KCAL/MOL
REMARK 927      BINDING AFFINITY PREDICTED BY RF-SCORE:    0.00 PKD
ROOT
HETATM    1  C   UNL     1      -9.387   7.897  67.777  1.00  0.00    -0.140 C  
HETATM    2  N   UNL     1      -8.060   8.061  68.459  1.00  0.00    -0.124 NA 
HETATM    3  C   UNL     1      -9.182   7.555  66.279  1.00  0.00    -0.194 C  
HETATM    4  C   UNL     1      -7.181   6.891  68.260  1.00  0.00    -0.091 C  
HETATM    5  C   UNL     1      -7.688   7.647  65.919  1.00  0.00    -0.098 C  
HETATM    6  C   UNL     1      -7.109   9.025  66.330  1.00  0.00    -0.086 C  
HETATM    7  C   UNL     1      -6.982   6.573  66.770  1.00  0.00    -0.067 C  
HETATM    8  C   UNL     1      -7.381   9.237  67.844  1.00  0.00    -0.080 C  
ENDROOT
BRANCH   1   9
HETATM    9  C   UNL     1     -10.401   6.950  68.522  1.00  0.00    -0.186 C  
HETATM   10  O   UNL     1     -11.591   6.651  67.780  1.00  0.00    -0.635 OA 
HETATM   11  H   UNL     1     -12.202   6.080  68.229  1.00  0.00     0.000 HD 
BRANCH   9  12
HETATM   12  C   UNL     1     -10.820   7.522  69.875  1.00  0.00    -0.250 A  
HETATM   13  N   UNL     1     -11.690   8.423  72.390  1.00  0.00    -0.386 NA 
HETATM   14  C   UNL     1     -10.762   6.697  71.010  1.00  0.00    -0.278 A  
HETATM   15  C   UNL     1     -11.726   9.239  71.323  1.00  0.00    -0.346 A  
HETATM   16  C   UNL     1     -12.204  10.524  71.523  1.00  0.00    -0.385 A  
HETATM   17  C   UNL     1     -11.205   7.183  72.219  1.00  0.00    -0.261 A  
HETATM   18  C   UNL     1     -12.282  11.458  70.486  1.00  0.00    -0.478 A  
HETATM   19  C   UNL     1     -11.313   8.849  70.029  1.00  0.00    -0.050 A  
HETATM   20  C   UNL     1     -11.883  11.098  69.207  1.00  0.00    -0.352 A  
HETATM   21  C   UNL     1     -11.411   9.802  68.985  1.00  0.00    -0.013 A  
BRANCH  20  22
HETATM   22  O   UNL     1     -11.900  11.901  68.102  1.00  0.00    -0.424 OA 
HETATM   23  C   UNL     1     -11.196  11.435  66.956  1.00  0.00    -0.283 C  
ENDBRANCH  20  22
ENDBRANCH   9  12
ENDBRANCH   1   9
BRANCH   6  24
HETATM   24  C   UNL     1      -7.657  10.162  65.499  1.00  0.00    -0.146 C  
HETATM   25  C   UNL     1      -7.760  10.138  64.165  1.00  0.00    -0.133 C  
ENDBRANCH   6  24
TORSDOF 4
ENDMDL
MODEL      159
REMARK 921   NORMALIZED FREE ENERGY PREDICTED BY IDOCK:   -4.16 KCAL/MOL
REMARK 922        TOTAL FREE ENERGY PREDICTED BY IDOCK:   -5.92 KCAL/MOL
REMARK 923 INTER-LIGAND FREE ENERGY PREDICTED BY IDOCK:   -5.17 KCAL/MOL
REMARK 924 INTRA-LIGAND FREE ENERGY PREDICTED BY IDOCK:   -0.74 KCAL/MOL
REMARK 927      BINDING AFFINITY PREDICTED BY RF-SCORE:    0.00 PKD
ROOT
HETATM    1  C   UNL     1     -10.462  12.438  67.512  1.00  0.00    -0.215 C  
HETATM    2  N   UNL     1      -9.557  13.631  67.615  1.00  0.00    -0.215 NA 
HETATM    3  C   UNL     1     -11.911  12.890  67.196  1.00  0.00    -0.424 C  
HETATM    4  C   UNL     1      -9.633  14.495  66.420  1.00  0.00    -0.303 C  
HETATM    5  C   UNL     1     -12.003  14.426  67.245  1.00  0.00    -0.409 C  
HETATM    6  C   UNL     1     -11.461  14.966  68.592  1.00  0.00    -0.326 C  
HETATM    7  C   UNL     1     -11.074  14.940  66.128  1.00  0.00    -0.335 C  
HETATM    8  C   UNL     1     -10.012  14.441  68.780  1.00  0.00    -0.223 C  
ENDROOT
BRANCH   1   9
HETATM    9  C   UNL     1      -9.930  11.281  66.585  1.00  0.00    -0.209 C  
HETATM   10  O   UNL     1     -10.732  11.035  65.423  1.00  0.00    -0.236 OA 
HETATM   11  H   UNL     1     -10.412  10.337  64.864  1.00  0.00     0.000 HD 
BRANCH   9  12
HETATM   12  C   UNL     1      -9.786   9.965  67.347  1.00  0.00    -0.223 A  
HETATM   13  N   UNL     1      -9.529   7.642  68.905  1.00  0.00    -0.149 NA 
HETATM   14  C   UNL     1     -10.649   9.705  68.424  1.00  0.00    -0.264 A  
HETATM   15  C   UNL     1      -8.712   7.857  67.861  1.00  0.00    -0.124 A  
HETATM   16  C   UNL     1      -7.754   6.890  67.596  1.00  0.00    -0.111 A  
HETATM   17  C   UNL     1     -10.480   8.555  69.161  1.00  0.00    -0.205 A  
HETATM   18  C   UNL     1      -6.855   7.008  66.532  1.00  0.00    -0.061 A  
HETATM   19  C   UNL     1      -8.780   9.006  67.041  1.00  0.00    -0.124 A  
HETATM   20  C   UNL     1      -6.901   8.128  65.715  1.00  0.00    -0.063 A  
HETATM   21  C   UNL     1      -7.852   9.118  65.976  1.00  0.00    -0.102 A  
BRANCH  20  22
HETATM   22  O   UNL     1      -6.093   8.376  64.642  1.00  0.00    -0.062 OA 
HETATM   23  C   UNL     1      -6.457   9.463  63.798  1.00  0.00    -0.095 C  
ENDBRANCH  20  22
ENDBRANCH   9  12
ENDBRANCH   1   9
BRANCH   6  24
HETATM   24  C   UNL     1     -12.342  14.605  69.766  1.00  0.00    -0.306 C  
HETATM   25  C   UNL     1     -12.001  14.787  71.047  1.00  0.00    -0.389 C  
ENDBRANCH   6  24
TORSDOF 4
ENDMDL
MODEL      160
REMARK 921   NORMALIZED FREE ENERGY PREDICTED BY IDOCK:   -4.12 KCAL/MOL
REMARK 922        TOTAL FREE ENERGY PREDICTED BY IDOCK:   -5.86 KCAL/MOL
REMARK 923 INTER-LIGAND FREE ENERGY PREDICTED BY IDOCK:   -5.06 KCAL/MOL
REMARK 924 INTRA-LIGAND FREE ENERGY PREDICTED BY IDOCK:   -0.81 KCAL/MOL
REMARK 927      BINDING AFFINITY PREDICTED BY RF-SCORE:    0.00 PKD
ROOT
HETATM    1  C   UNL     1      -8.807   6.259  69.953  1.00  0.00    -0.141 C  
HETATM    2  N   UNL     1      -9.662   5.812  68.803  1.00  0.00    -0.126 NA 
HETATM    3  C   UNL     1      -7.419   5.572  69.887  1.00  0.00    -0.070 C  
HETATM    4  C   UNL     1      -8.994   6.007  67.501  1.00  0.00    -0.111 C  
HETATM    5  C   UNL     1      -7.404   4.526  68.758  1.00  0.00    -0.056 C  
HETATM    6  C   UNL     1      -8.584   3.534  68.913  1.00  0.00    -0.121 C  
HETATM    7  C   UNL     1      -7.625   5.313  67.451  1.00  0.00    -0.088 C  
HETATM    8  C   UNL     1      -9.904   4.350  68.964  1.00  0.00    -0.111 C  
ENDROOT
BRANCH   1   9
HETATM    9  C   UNL     1      -8.747   7.818  70.166  1.00  0.00    -0.140 C  
HETATM   10  O   UNL     1      -7.592   8.276  70.879  1.00  0.00    -0.067 OA 
HETATM   11  H   UNL     1      -7.555   9.216  71.008  1.00  0.00     0.000 HD 
BRANCH   9  12
HETATM   12  C   UNL     1      -9.987   8.338  70.890  1.00  0.00    -0.223 A  
HETATM   13  N   UNL     1     -12.339   9.127  72.209  1.00  0.00    -0.342 NA 
HETATM   14  C   UNL     1     -10.519   7.589  71.952  1.00  0.00    -0.235 A  
HETATM   15  C   UNL     1     -11.831   9.874  71.216  1.00  0.00    -0.395 A  
HETATM   16  C   UNL     1     -12.513  11.034  70.881  1.00  0.00    -0.509 A  
HETATM   17  C   UNL     1     -11.677   8.014  72.563  1.00  0.00    -0.387 A  
HETATM   18  C   UNL     1     -12.072  11.889  69.867  1.00  0.00    -0.344 A  
HETATM   19  C   UNL     1     -10.658   9.533  70.504  1.00  0.00    -0.358 A  
HETATM   20  C   UNL     1     -10.924  11.574  69.154  1.00  0.00    -0.224 A  
HETATM   21  C   UNL     1     -10.231  10.402  69.469  1.00  0.00    -0.258 A  
BRANCH  20  22
HETATM   22  O   UNL     1     -10.375  12.313  68.145  1.00  0.00    -0.203 OA 
HETATM   23  C   UNL     1     -10.750  13.684  68.073  1.00  0.00    -0.247 C  
ENDBRANCH  20  22
ENDBRANCH   9  12
ENDBRANCH   1   9
BRANCH   6  24
HETATM   24  C   UNL     1      -8.437   2.633  70.117  1.00  0.00    -0.087 C  
HETATM   25  C   UNL     1      -9.323   2.565  71.118  1.00  0.00    -0.212 C  
ENDBRANCH   6  24
TORSDOF 4
ENDMDL
MODEL      161
REMARK 921   NORMALIZED FREE ENERGY PREDICTED BY IDOCK:   -4.11 KCAL/MOL
REMARK 922        TOTAL FREE ENERGY PREDICTED BY IDOCK:   -5.85 KCAL/MOL
REMARK 923 INTER-LIGAND FREE ENERGY PREDICTED BY IDOCK:   -5.75 KCAL/MOL
REMARK 924 INTRA-LIGAND FREE ENERGY PREDICTED BY IDOCK:   -0.10 KCAL/MOL
REMARK 927      BINDING AFFINITY PREDICTED BY RF-SCORE:    0.00 PKD
ROOT
HETATM    1  C   UNL     1      -9.124   8.981  69.636  1.00  0.00    -0.154 C  
HETATM    2  N   UNL     1      -8.474   7.779  69.013  1.00  0.00    -0.131 NA 
HETATM    3  C   UNL     1      -8.181  10.208  69.546  1.00  0.00    -0.176 C  
HETATM    4  C   UNL     1      -8.018   8.043  67.634  1.00  0.00    -0.123 C  
HETATM    5  C   UNL     1      -6.811   9.777  68.991  1.00  0.00    -0.050 C  
HETATM    6  C   UNL     1      -6.229   8.602  69.818  1.00  0.00    -0.035 C  
HETATM    7  C   UNL     1      -7.078   9.256  67.566  1.00  0.00    -0.079 C  
HETATM    8  C   UNL     1      -7.269   7.449  69.825  1.00  0.00    -0.081 C  
ENDROOT
BRANCH   1   9
HETATM    9  C   UNL     1     -10.597   9.261  69.154  1.00  0.00    -0.212 C  
HETATM   10  O   UNL     1     -10.714  10.307  68.180  1.00  0.00    -0.210 OA 
HETATM   11  H   UNL     1     -11.602  10.476  67.889  1.00  0.00     0.000 HD 
BRANCH   9  12
HETATM   12  C   UNL     1     -11.521   9.598  70.322  1.00  0.00    -0.288 A  
HETATM   13  N   UNL     1     -13.328  10.080  72.418  1.00  0.00    -0.290 NA 
HETATM   14  C   UNL     1     -11.979   8.560  71.148  1.00  0.00    -0.306 A  
HETATM   15  C   UNL     1     -12.879  11.093  71.659  1.00  0.00    -0.419 A  
HETATM   16  C   UNL     1     -13.343  12.364  71.958  1.00  0.00    -0.511 A  
HETATM   17  C   UNL     1     -12.869   8.845  72.160  1.00  0.00    -0.409 A  
HETATM   18  C   UNL     1     -12.938  13.492  71.237  1.00  0.00    -0.384 A  
HETATM   19  C   UNL     1     -11.976  10.921  70.584  1.00  0.00    -0.467 A  
HETATM   20  C   UNL     1     -12.055  13.348  70.177  1.00  0.00    -0.344 A  
HETATM   21  C   UNL     1     -11.587  12.071  69.854  1.00  0.00    -0.315 A  
BRANCH  20  22
HETATM   22  O   UNL     1     -11.572  14.354  69.389  1.00  0.00    -0.268 OA 
HETATM   23  C   UNL     1     -11.724  15.683  69.876  1.00  0.00    -0.362 C  
ENDBRANCH  20  22
ENDBRANCH   9  12
ENDBRANCH   1   9
BRANCH   6  24
HETATM   24  C   UNL     1      -5.837   9.009  71.219  1.00  0.00    -0.055 C  
HETATM   25  C   UNL     1      -6.394   8.513  72.330  1.00  0.00    -0.083 C  
ENDBRANCH   6  24
TORSDOF 4
ENDMDL
MODEL      162
REMARK 921   NORMALIZED FREE ENERGY PREDICTED BY IDOCK:   -4.09 KCAL/MOL
REMARK 922        TOTAL FREE ENERGY PREDICTED BY IDOCK:   -5.83 KCAL/MOL
REMARK 923 INTER-LIGAND FREE ENERGY PREDICTED BY IDOCK:   -5.34 KCAL/MOL
REMARK 924 INTRA-LIGAND FREE ENERGY PREDICTED BY IDOCK:   -0.49 KCAL/MOL
REMARK 927      BINDING AFFINITY PREDICTED BY RF-SCORE:    0.00 PKD
ROOT
HETATM    1  C   UNL     1      -9.215  10.385  66.363  1.00  0.00    -0.161 C  
HETATM    2  N   UNL     1     -10.161   9.686  67.295  1.00  0.00    -0.217 NA 
HETATM    3  C   UNL     1      -7.943   9.527  66.146  1.00  0.00    -0.107 C  
HETATM    4  C   UNL     1     -10.473   8.314  66.849  1.00  0.00    -0.295 C  
HETATM    5  C   UNL     1      -7.973   8.301  67.078  1.00  0.00    -0.100 C  
HETATM    6  C   UNL     1      -8.190   8.735  68.549  1.00  0.00    -0.117 C  
HETATM    7  C   UNL     1      -9.202   7.475  66.650  1.00  0.00    -0.201 C  
HETATM    8  C   UNL     1      -9.489   9.582  68.622  1.00  0.00    -0.142 C  
ENDROOT
BRANCH   1   9
HETATM    9  C   UNL     1      -9.869  10.916  65.032  1.00  0.00    -0.281 C  
HETATM   10  O   UNL     1      -8.932  11.254  64.002  1.00  0.00    -0.391 OA 
HETATM   11  H   UNL     1      -9.326  11.574  63.200  1.00  0.00     0.000 HD 
BRANCH   9  12
HETATM   12  C   UNL     1     -10.754  12.136  65.284  1.00  0.00    -0.328 A  
HETATM   13  N   UNL     1     -12.418  14.381  65.568  1.00  0.00    -0.385 NA 
HETATM   14  C   UNL     1     -12.044  12.167  64.731  1.00  0.00    -0.368 A  
HETATM   15  C   UNL     1     -11.199  14.361  66.131  1.00  0.00    -0.336 A  
HETATM   16  C   UNL     1     -10.812  15.483  66.847  1.00  0.00    -0.301 A  
HETATM   17  C   UNL     1     -12.820  13.292  64.893  1.00  0.00    -0.253 A  
HETATM   18  C   UNL     1      -9.568  15.569  67.477  1.00  0.00    -0.212 A  
HETATM   19  C   UNL     1     -10.307  13.269  66.021  1.00  0.00    -0.290 A  
HETATM   20  C   UNL     1      -8.675  14.511  67.382  1.00  0.00    -0.199 A  
HETATM   21  C   UNL     1      -9.044  13.377  66.653  1.00  0.00    -0.180 A  
BRANCH  20  22
HETATM   22  O   UNL     1      -7.432  14.453  67.946  1.00  0.00    -0.120 OA 
HETATM   23  C   UNL     1      -7.231  15.200  69.141  1.00  0.00    -0.163 C  
ENDBRANCH  20  22
ENDBRANCH   9  12
ENDBRANCH   1   9
BRANCH   6  24
HETATM   24  C   UNL     1      -7.006   9.480  69.121  1.00  0.00    -0.057 C  
HETATM   25  C   UNL     1      -7.033  10.766  69.491  1.00  0.00    -0.130 C  
ENDBRANCH   6  24
TORSDOF 4
ENDMDL
MODEL      163
REMARK 921   NORMALIZED FREE ENERGY PREDICTED BY IDOCK:   -4.08 KCAL/MOL
REMARK 922        TOTAL FREE ENERGY PREDICTED BY IDOCK:   -5.82 KCAL/MOL
REMARK 923 INTER-LIGAND FREE ENERGY PREDICTED BY IDOCK:   -5.96 KCAL/MOL
REMARK 924 INTRA-LIGAND FREE ENERGY PREDICTED BY IDOCK:    0.14 KCAL/MOL
REMARK 927      BINDING AFFINITY PREDICTED BY RF-SCORE:    0.00 PKD
ROOT
HETATM    1  C   UNL     1      -9.951  11.357  68.041  1.00  0.00    -0.182 C  
HETATM    2  N   UNL     1      -8.984  11.900  67.029  1.00  0.00    -0.184 NA 
HETATM    3  C   UNL     1     -11.098  10.594  67.331  1.00  0.00    -0.341 C  
HETATM    4  C   UNL     1      -8.487  10.854  66.114  1.00  0.00    -0.171 C  
HETATM    5  C   UNL     1     -10.977  10.766  65.806  1.00  0.00     0.021 C  
HETATM    6  C   UNL     1     -10.899  12.267  65.428  1.00  0.00    -0.324 C  
HETATM    7  C   UNL     1      -9.637  10.115  65.413  1.00  0.00    -0.325 C  
HETATM    8  C   UNL     1      -9.714  12.904  66.204  1.00  0.00    -0.248 C  
ENDROOT
BRANCH   1   9
HETATM    9  C   UNL     1      -9.288  10.565  69.231  1.00  0.00    -0.160 C  
HETATM   10  O   UNL     1      -8.122   9.816  68.869  1.00  0.00    -0.093 OA 
HETATM   11  H   UNL     1      -7.722   9.338  69.586  1.00  0.00     0.000 HD 
BRANCH   9  12
HETATM   12  C   UNL     1     -10.277   9.609  69.894  1.00  0.00    -0.279 A  
HETATM   13  N   UNL     1     -12.050   7.924  71.276  1.00  0.00    -0.299 NA 
HETATM   14  C   UNL     1     -11.180  10.115  70.843  1.00  0.00    -0.383 A  
HETATM   15  C   UNL     1     -11.216   7.424  70.351  1.00  0.00    -0.262 A  
HETATM   16  C   UNL     1     -11.274   6.059  70.116  1.00  0.00    -0.412 A  
HETATM   17  C   UNL     1     -12.026   9.248  71.498  1.00  0.00    -0.368 A  
HETATM   18  C   UNL     1     -10.455   5.432  69.172  1.00  0.00    -0.277 A  
HETATM   19  C   UNL     1     -10.293   8.211  69.625  1.00  0.00    -0.221 A  
HETATM   20  C   UNL     1      -9.541   6.184  68.449  1.00  0.00    -0.118 A  
HETATM   21  C   UNL     1      -9.460   7.559  68.682  1.00  0.00    -0.146 A  
BRANCH  20  22
HETATM   22  O   UNL     1      -8.683   5.711  67.496  1.00  0.00    -0.109 OA 
HETATM   23  C   UNL     1      -9.003   4.455  66.907  1.00  0.00    -0.118 C  
ENDBRANCH  20  22
ENDBRANCH   9  12
ENDBRANCH   1   9
BRANCH   6  24
HETATM   24  C   UNL     1     -12.193  13.004  65.681  1.00  0.00    -0.521 C  
HETATM   25  C   UNL     1     -12.315  14.049  66.509  1.00  0.00    -0.442 C  
ENDBRANCH   6  24
TORSDOF 4
ENDMDL
MODEL      164
REMARK 921   NORMALIZED FREE ENERGY PREDICTED BY IDOCK:   -4.07 KCAL/MOL
REMARK 922        TOTAL FREE ENERGY PREDICTED BY IDOCK:   -5.81 KCAL/MOL
REMARK 923 INTER-LIGAND FREE ENERGY PREDICTED BY IDOCK:   -5.34 KCAL/MOL
REMARK 924 INTRA-LIGAND FREE ENERGY PREDICTED BY IDOCK:   -0.47 KCAL/MOL
REMARK 927      BINDING AFFINITY PREDICTED BY RF-SCORE:    0.00 PKD
ROOT
HETATM    1  C   UNL     1      -9.860   7.625  70.567  1.00  0.00    -0.183 C  
HETATM    2  N   UNL     1     -10.694   6.410  70.852  1.00  0.00    -0.239 NA 
HETATM    3  C   UNL     1     -10.014   8.662  71.709  1.00  0.00    -0.371 C  
HETATM    4  C   UNL     1     -10.408   5.836  72.182  1.00  0.00    -0.205 C  
HETATM    5  C   UNL     1     -11.096   8.195  72.699  1.00  0.00    -0.450 C  
HETATM    6  C   UNL     1     -12.420   7.882  71.958  1.00  0.00    -0.338 C  
HETATM    7  C   UNL     1     -10.575   6.875  73.301  1.00  0.00    -0.353 C  
HETATM    8  C   UNL     1     -12.123   6.836  70.849  1.00  0.00    -0.367 C  
ENDROOT
BRANCH   1   9
HETATM    9  C   UNL     1      -8.366   7.323  70.167  1.00  0.00    -0.137 C  
HETATM   10  O   UNL     1      -7.443   8.373  70.478  1.00  0.00    -0.059 OA 
HETATM   11  H   UNL     1      -6.543   8.191  70.237  1.00  0.00     0.000 HD 
BRANCH   9  12
HETATM   12  C   UNL     1      -8.233   7.002  68.679  1.00  0.00    -0.122 A  
HETATM   13  N   UNL     1      -7.816   6.361  65.976  1.00  0.00    -0.100 NA 
HETATM   14  C   UNL     1      -7.676   5.772  68.296  1.00  0.00    -0.093 A  
HETATM   15  C   UNL     1      -8.378   7.531  66.320  1.00  0.00    -0.134 A  
HETATM   16  C   UNL     1      -8.736   8.389  65.292  1.00  0.00    -0.148 A  
HETATM   17  C   UNL     1      -7.487   5.506  66.958  1.00  0.00    -0.088 A  
HETATM   18  C   UNL     1      -9.332   9.630  65.534  1.00  0.00    -0.309 A  
HETATM   19  C   UNL     1      -8.609   7.922  67.659  1.00  0.00    -0.127 A  
HETATM   20  C   UNL     1      -9.567  10.036  66.840  1.00  0.00    -0.175 A  
HETATM   21  C   UNL     1      -9.201   9.189  67.889  1.00  0.00    -0.144 A  
BRANCH  20  22
HETATM   22  O   UNL     1     -10.142  11.213  67.226  1.00  0.00    -0.181 OA 
HETATM   23  C   UNL     1     -10.976  11.175  68.380  1.00  0.00    -0.227 C  
ENDBRANCH  20  22
ENDBRANCH   9  12
ENDBRANCH   1   9
BRANCH   6  24
HETATM   24  C   UNL     1     -13.084   9.117  71.396  1.00  0.00    -0.363 C  
HETATM   25  C   UNL     1     -13.374  10.208  72.115  1.00  0.00    -0.431 C  
ENDBRANCH   6  24
TORSDOF 4
ENDMDL
MODEL      165
REMARK 921   NORMALIZED FREE ENERGY PREDICTED BY IDOCK:   -4.05 KCAL/MOL
REMARK 922        TOTAL FREE ENERGY PREDICTED BY IDOCK:   -5.78 KCAL/MOL
REMARK 923 INTER-LIGAND FREE ENERGY PREDICTED BY IDOCK:   -5.14 KCAL/MOL
REMARK 924 INTRA-LIGAND FREE ENERGY PREDICTED BY IDOCK:   -0.64 KCAL/MOL
REMARK 927      BINDING AFFINITY PREDICTED BY RF-SCORE:    0.00 PKD
ROOT
HETATM    1  C   UNL     1      -8.467  11.704  67.729  1.00  0.00    -0.144 C  
HETATM    2  N   UNL     1      -9.106  10.767  66.746  1.00  0.00    -0.152 NA 
HETATM    3  C   UNL     1      -7.815  10.905  68.887  1.00  0.00    -0.142 C  
HETATM    4  C   UNL     1      -8.165   9.737  66.264  1.00  0.00    -0.116 C  
HETATM    5  C   UNL     1      -8.163   9.411  68.754  1.00  0.00    -0.108 C  
HETATM    6  C   UNL     1      -9.696   9.213  68.644  1.00  0.00    -0.164 C  
HETATM    7  C   UNL     1      -7.537   8.949  67.424  1.00  0.00    -0.089 C  
HETATM    8  C   UNL     1     -10.214  10.063  67.452  1.00  0.00    -0.219 C  
ENDROOT
BRANCH   1   9
HETATM    9  C   UNL     1      -7.527  12.795  67.089  1.00  0.00    -0.029 C  
HETATM   10  O   UNL     1      -6.128  12.494  67.168  1.00  0.00    -0.252 OA 
HETATM   11  H   UNL     1      -5.562  13.152  66.782  1.00  0.00     0.000 HD 
BRANCH   9  12
HETATM   12  C   UNL     1      -7.750  14.171  67.714  1.00  0.00    -0.175 A  
HETATM   13  N   UNL     1      -8.059  16.646  69.006  1.00  0.00    -0.229 NA 
HETATM   14  C   UNL     1      -6.650  14.865  68.242  1.00  0.00    -0.117 A  
HETATM   15  C   UNL     1      -9.121  16.014  68.482  1.00  0.00    -0.203 A  
HETATM   16  C   UNL     1     -10.355  16.634  68.607  1.00  0.00    -0.304 A  
HETATM   17  C   UNL     1      -6.853  16.073  68.871  1.00  0.00    -0.143 A  
HETATM   18  C   UNL     1     -11.526  16.069  68.095  1.00  0.00    -0.250 A  
HETATM   19  C   UNL     1      -9.040  14.763  67.827  1.00  0.00    -0.186 A  
HETATM   20  C   UNL     1     -11.471  14.842  67.450  1.00  0.00    -0.363 A  
HETATM   21  C   UNL     1     -10.238  14.196  67.326  1.00  0.00    -0.256 A  
BRANCH  20  22
HETATM   22  O   UNL     1     -12.528  14.173  66.900  1.00  0.00    -0.359 OA 
HETATM   23  C   UNL     1     -12.329  13.605  65.609  1.00  0.00    -0.478 C  
ENDBRANCH  20  22
ENDBRANCH   9  12
ENDBRANCH   1   9
BRANCH   6  24
HETATM   24  C   UNL     1     -10.424   9.546  69.925  1.00  0.00    -0.269 C  
HETATM   25  C   UNL     1     -11.389  10.469  70.025  1.00  0.00    -0.392 C  
ENDBRANCH   6  24
TORSDOF 4
ENDMDL
MODEL      166
REMARK 921   NORMALIZED FREE ENERGY PREDICTED BY IDOCK:   -4.01 KCAL/MOL
REMARK 922        TOTAL FREE ENERGY PREDICTED BY IDOCK:   -5.74 KCAL/MOL
REMARK 923 INTER-LIGAND FREE ENERGY PREDICTED BY IDOCK:   -4.94 KCAL/MOL
REMARK 924 INTRA-LIGAND FREE ENERGY PREDICTED BY IDOCK:   -0.79 KCAL/MOL
REMARK 927      BINDING AFFINITY PREDICTED BY RF-SCORE:    0.00 PKD
ROOT
HETATM    1  C   UNL     1     -10.309   7.840  69.169  1.00  0.00    -0.215 C  
HETATM    2  N   UNL     1     -10.749   9.013  69.998  1.00  0.00    -0.226 NA 
HETATM    3  C   UNL     1      -8.798   7.569  69.384  1.00  0.00    -0.136 C  
HETATM    4  C   UNL     1     -10.398   8.853  71.423  1.00  0.00    -0.307 C  
HETATM    5  C   UNL     1      -8.183   8.681  70.253  1.00  0.00    -0.119 C  
HETATM    6  C   UNL     1      -8.487  10.077  69.653  1.00  0.00    -0.193 C  
HETATM    7  C   UNL     1      -8.896   8.594  71.616  1.00  0.00    -0.292 C  
HETATM    8  C   UNL     1     -10.026  10.215  69.494  1.00  0.00    -0.235 C  
ENDROOT
BRANCH   1   9
HETATM    9  C   UNL     1     -11.219   6.561  69.297  1.00  0.00    -0.328 C  
HETATM   10  O   UNL     1     -12.418   6.759  70.057  1.00  0.00    -0.546 OA 
HETATM   11  H   UNL     1     -12.967   5.988  70.135  1.00  0.00     0.000 HD 
BRANCH   9  12
HETATM   12  C   UNL     1     -10.460   5.386  69.910  1.00  0.00    -0.378 A  
HETATM   13  N   UNL     1      -8.979   3.344  71.147  1.00  0.00    -0.090 NA 
HETATM   14  C   UNL     1     -10.369   5.290  71.308  1.00  0.00    -0.292 A  
HETATM   15  C   UNL     1      -9.078   3.400  69.808  1.00  0.00    -0.129 A  
HETATM   16  C   UNL     1      -8.425   2.416  69.082  1.00  0.00    -0.097 A  
HETATM   17  C   UNL     1      -9.626   4.274  71.867  1.00  0.00    -0.150 A  
HETATM   18  C   UNL     1      -8.464   2.374  67.685  1.00  0.00    -0.105 A  
HETATM   19  C   UNL     1      -9.799   4.403  69.121  1.00  0.00    -0.198 A  
HETATM   20  C   UNL     1      -9.164   3.349  66.989  1.00  0.00    -0.184 A  
HETATM   21  C   UNL     1      -9.817   4.356  67.705  1.00  0.00    -0.168 A  
BRANCH  20  22
HETATM   22  O   UNL     1      -9.292   3.433  65.631  1.00  0.00    -0.155 OA 
HETATM   23  C   UNL     1     -10.372   4.216  65.134  1.00  0.00    -0.181 C  
ENDBRANCH  20  22
ENDBRANCH   9  12
ENDBRANCH   1   9
BRANCH   6  24
HETATM   24  C   UNL     1      -7.766  10.325  68.349  1.00  0.00    -0.093 C  
HETATM   25  C   UNL     1      -8.344  10.837  67.255  1.00  0.00    -0.124 C  
ENDBRANCH   6  24
TORSDOF 4
ENDMDL
MODEL      167
REMARK 921   NORMALIZED FREE ENERGY PREDICTED BY IDOCK:   -3.96 KCAL/MOL
REMARK 922        TOTAL FREE ENERGY PREDICTED BY IDOCK:   -5.67 KCAL/MOL
REMARK 923 INTER-LIGAND FREE ENERGY PREDICTED BY IDOCK:   -5.85 KCAL/MOL
REMARK 924 INTRA-LIGAND FREE ENERGY PREDICTED BY IDOCK:    0.18 KCAL/MOL
REMARK 927      BINDING AFFINITY PREDICTED BY RF-SCORE:    0.00 PKD
ROOT
HETATM    1  C   UNL     1      -9.308  10.265  68.387  1.00  0.00    -0.143 C  
HETATM    2  N   UNL     1      -8.450   9.217  67.739  1.00  0.00    -0.116 NA 
HETATM    3  C   UNL     1     -10.700  10.315  67.708  1.00  0.00    -0.324 C  
HETATM    4  C   UNL     1      -9.112   7.897  67.704  1.00  0.00    -0.133 C  
HETATM    5  C   UNL     1     -10.717   9.388  66.478  1.00  0.00    -0.012 C  
HETATM    6  C   UNL     1      -9.544   9.724  65.523  1.00  0.00    -0.348 C  
HETATM    7  C   UNL     1     -10.485   7.964  67.019  1.00  0.00    -0.419 C  
HETATM    8  C   UNL     1      -8.219   9.636  66.328  1.00  0.00    -0.116 C  
ENDROOT
BRANCH   1   9
HETATM    9  C   UNL     1      -9.360  10.198  69.960  1.00  0.00    -0.013 C  
HETATM   10  O   UNL     1      -8.437   9.270  70.546  1.00  0.00    -0.182 OA 
HETATM   11  H   UNL     1      -8.468   9.229  71.494  1.00  0.00     0.000 HD 
BRANCH   9  12
HETATM   12  C   UNL     1     -10.760   9.854  70.466  1.00  0.00    -0.382 A  
HETATM   13  N   UNL     1     -13.324   9.370  71.506  1.00  0.00    -0.378 NA 
HETATM   14  C   UNL     1     -11.722  10.873  70.547  1.00  0.00    -0.441 A  
HETATM   15  C   UNL     1     -12.428   8.374  71.410  1.00  0.00    -0.288 A  
HETATM   16  C   UNL     1     -12.827   7.118  71.840  1.00  0.00    -0.297 A  
HETATM   17  C   UNL     1     -12.964  10.587  71.069  1.00  0.00    -0.383 A  
HETATM   18  C   UNL     1     -11.978   6.009  71.781  1.00  0.00    -0.120 A  
HETATM   19  C   UNL     1     -11.119   8.548  70.905  1.00  0.00    -0.295 A  
HETATM   20  C   UNL     1     -10.689   6.156  71.291  1.00  0.00    -0.256 A  
HETATM   21  C   UNL     1     -10.266   7.418  70.865  1.00  0.00    -0.195 A  
BRANCH  20  22
HETATM   22  O   UNL     1      -9.754   5.166  71.173  1.00  0.00    -0.158 OA 
HETATM   23  C   UNL     1      -9.393   4.476  72.364  1.00  0.00    -0.126 C  
ENDBRANCH  20  22
ENDBRANCH   9  12
ENDBRANCH   1   9
BRANCH   6  24
HETATM   24  C   UNL     1      -9.701  11.068  64.850  1.00  0.00    -0.303 C  
HETATM   25  C   UNL     1     -10.830  11.492  64.270  1.00  0.00    -0.421 C  
ENDBRANCH   6  24
TORSDOF 4
ENDMDL
MODEL      168
REMARK 921   NORMALIZED FREE ENERGY PREDICTED BY IDOCK:   -3.94 KCAL/MOL
REMARK 922        TOTAL FREE ENERGY PREDICTED BY IDOCK:   -5.65 KCAL/MOL
REMARK 923 INTER-LIGAND FREE ENERGY PREDICTED BY IDOCK:   -5.23 KCAL/MOL
REMARK 924 INTRA-LIGAND FREE ENERGY PREDICTED BY IDOCK:   -0.42 KCAL/MOL
REMARK 927      BINDING AFFINITY PREDICTED BY RF-SCORE:    0.00 PKD
ROOT
HETATM    1  C   UNL     1      -8.890   8.544  67.971  1.00  0.00    -0.142 C  
HETATM    2  N   UNL     1      -7.866   9.346  68.720  1.00  0.00    -0.083 NA 
HETATM    3  C   UNL     1      -8.246   7.258  67.393  1.00  0.00    -0.116 C  
HETATM    4  C   UNL     1      -7.174   8.546  69.751  1.00  0.00    -0.052 C  
HETATM    5  C   UNL     1      -6.725   7.281  67.629  1.00  0.00    -0.065 C  
HETATM    6  C   UNL     1      -6.104   8.591  67.079  1.00  0.00    -0.055 C  
HETATM    7  C   UNL     1      -6.535   7.282  69.158  1.00  0.00    -0.036 C  
HETATM    8  C   UNL     1      -6.837   9.791  67.738  1.00  0.00    -0.081 C  
ENDROOT
BRANCH   1   9
HETATM    9  C   UNL     1     -10.236   8.298  68.750  1.00  0.00    -0.210 C  
HETATM   10  O   UNL     1     -11.226   7.572  68.010  1.00  0.00    -0.449 OA 
HETATM   11  H   UNL     1     -12.038   7.423  68.479  1.00  0.00     0.000 HD 
BRANCH   9  12
HETATM   12  C   UNL     1     -10.865   9.608  69.221  1.00  0.00    -0.227 A  
HETATM   13  N   UNL     1     -12.159  11.918  70.159  1.00  0.00    -0.319 NA 
HETATM   14  C   UNL     1     -11.327   9.703  70.543  1.00  0.00    -0.360 A  
HETATM   15  C   UNL     1     -11.697  11.859  68.899  1.00  0.00    -0.323 A  
HETATM   16  C   UNL     1     -11.888  12.976  68.101  1.00  0.00    -0.381 A  
HETATM   17  C   UNL     1     -11.960  10.855  70.954  1.00  0.00    -0.311 A  
HETATM   18  C   UNL     1     -11.444  13.027  66.776  1.00  0.00    -0.392 A  
HETATM   19  C   UNL     1     -11.046  10.726  68.359  1.00  0.00    -0.323 A  
HETATM   20  C   UNL     1     -10.804  11.927  66.224  1.00  0.00    -0.282 A  
HETATM   21  C   UNL     1     -10.615  10.787  67.011  1.00  0.00    -0.312 A  
BRANCH  20  22
HETATM   22  O   UNL     1     -10.316  11.833  64.951  1.00  0.00    -0.264 OA 
HETATM   23  C   UNL     1     -10.180  13.049  64.223  1.00  0.00    -0.292 C  
ENDBRANCH  20  22
ENDBRANCH   9  12
ENDBRANCH   1   9
BRANCH   6  24
HETATM   24  C   UNL     1      -6.145   8.671  65.571  1.00  0.00    -0.052 C  
HETATM   25  C   UNL     1      -6.668   9.695  64.885  1.00  0.00    -0.104 C  
ENDBRANCH   6  24
TORSDOF 4
ENDMDL
MODEL      169
REMARK 921   NORMALIZED FREE ENERGY PREDICTED BY IDOCK:   -3.93 KCAL/MOL
REMARK 922        TOTAL FREE ENERGY PREDICTED BY IDOCK:   -5.64 KCAL/MOL
REMARK 923 INTER-LIGAND FREE ENERGY PREDICTED BY IDOCK:   -4.97 KCAL/MOL
REMARK 924 INTRA-LIGAND FREE ENERGY PREDICTED BY IDOCK:   -0.67 KCAL/MOL
REMARK 927      BINDING AFFINITY PREDICTED BY RF-SCORE:    0.00 PKD
ROOT
HETATM    1  C   UNL     1      -9.988  11.638  67.002  1.00  0.00    -0.204 C  
HETATM    2  N   UNL     1     -11.325  11.437  66.348  1.00  0.00    -0.319 NA 
HETATM    3  C   UNL     1      -9.164  12.694  66.223  1.00  0.00    -0.114 C  
HETATM    4  C   UNL     1     -12.056  12.707  66.170  1.00  0.00    -0.333 C  
HETATM    5  C   UNL     1      -9.904  13.092  64.933  1.00  0.00    -0.048 C  
HETATM    6  C   UNL     1     -10.260  11.837  64.096  1.00  0.00    -0.363 C  
HETATM    7  C   UNL     1     -11.227  13.738  65.388  1.00  0.00    -0.306 C  
HETATM    8  C   UNL     1     -11.080  10.869  64.992  1.00  0.00     0.160 C  
ENDROOT
BRANCH   1   9
HETATM    9  C   UNL     1     -10.042  11.879  68.557  1.00  0.00    -0.206 C  
HETATM   10  O   UNL     1      -9.500  13.136  68.983  1.00  0.00    -0.378 OA 
HETATM   11  H   UNL     1      -9.532  13.281  69.921  1.00  0.00     0.000 HD 
BRANCH   9  12
HETATM   12  C   UNL     1      -9.326  10.771  69.327  1.00  0.00    -0.087 A  
HETATM   13  N   UNL     1      -7.930   8.683  70.585  1.00  0.00    -0.098 NA 
HETATM   14  C   UNL     1      -7.946  10.595  69.139  1.00  0.00    -0.139 A  
HETATM   15  C   UNL     1      -9.244   8.852  70.802  1.00  0.00    -0.223 A  
HETATM   16  C   UNL     1      -9.865   7.961  71.664  1.00  0.00    -0.212 A  
HETATM   17  C   UNL     1      -7.307   9.553  69.774  1.00  0.00    -0.092 A  
HETATM   18  C   UNL     1     -11.227   8.045  71.966  1.00  0.00    -0.356 A  
HETATM   19  C   UNL     1     -10.010   9.874  70.196  1.00  0.00    -0.291 A  
HETATM   20  C   UNL     1     -11.999   9.039  71.382  1.00  0.00    -0.332 A  
HETATM   21  C   UNL     1     -11.393   9.938  70.501  1.00  0.00    -0.399 A  
BRANCH  20  22
HETATM   22  O   UNL     1     -13.335   9.245  71.584  1.00  0.00    -0.357 OA 
HETATM   23  C   UNL     1     -13.757  10.591  71.780  1.00  0.00     0.030 C  
ENDBRANCH  20  22
ENDBRANCH   9  12
ENDBRANCH   1   9
BRANCH   6  24
HETATM   24  C   UNL     1      -9.043  11.159  63.511  1.00  0.00    -0.132 C  
HETATM   25  C   UNL     1      -8.353  10.189  64.125  1.00  0.00    -0.168 C  
ENDBRANCH   6  24
TORSDOF 4
ENDMDL
MODEL      170
REMARK 921   NORMALIZED FREE ENERGY PREDICTED BY IDOCK:   -3.93 KCAL/MOL
REMARK 922        TOTAL FREE ENERGY PREDICTED BY IDOCK:   -5.63 KCAL/MOL
REMARK 923 INTER-LIGAND FREE ENERGY PREDICTED BY IDOCK:   -4.92 KCAL/MOL
REMARK 924 INTRA-LIGAND FREE ENERGY PREDICTED BY IDOCK:   -0.72 KCAL/MOL
REMARK 927      BINDING AFFINITY PREDICTED BY RF-SCORE:    0.00 PKD
ROOT
HETATM    1  C   UNL     1     -10.444   7.329  69.307  1.00  0.00    -0.216 C  
HETATM    2  N   UNL     1     -10.764   8.792  69.205  1.00  0.00    -0.195 NA 
HETATM    3  C   UNL     1      -8.951   7.131  69.672  1.00  0.00    -0.141 C  
HETATM    4  C   UNL     1     -10.374   9.536  70.420  1.00  0.00    -0.276 C  
HETATM    5  C   UNL     1      -8.223   8.488  69.660  1.00  0.00    -0.115 C  
HETATM    6  C   UNL     1      -8.444   9.216  68.310  1.00  0.00    -0.125 C  
HETATM    7  C   UNL     1      -8.890   9.335  70.761  1.00  0.00    -0.282 C  
HETATM    8  C   UNL     1      -9.972   9.347  68.071  1.00  0.00    -0.176 C  
ENDROOT
BRANCH   1   9
HETATM    9  C   UNL     1     -11.442   6.494  70.195  1.00  0.00    -0.415 C  
HETATM   10  O   UNL     1     -12.691   7.146  70.459  1.00  0.00    -0.611 OA 
HETATM   11  H   UNL     1     -13.292   6.643  70.994  1.00  0.00     0.000 HD 
BRANCH   9  12
HETATM   12  C   UNL     1     -10.819   6.106  71.534  1.00  0.00    -0.313 A  
HETATM   13  N   UNL     1      -9.601   5.561  74.006  1.00  0.00    -0.137 NA 
HETATM   14  C   UNL     1     -10.937   6.988  72.620  1.00  0.00    -0.313 A  
HETATM   15  C   UNL     1      -9.501   4.689  72.990  1.00  0.00    -0.129 A  
HETATM   16  C   UNL     1      -8.780   3.528  73.219  1.00  0.00    -0.089 A  
HETATM   17  C   UNL     1     -10.318   6.679  73.810  1.00  0.00    -0.349 A  
HETATM   18  C   UNL     1      -8.614   2.549  72.235  1.00  0.00    -0.081 A  
HETATM   19  C   UNL     1     -10.080   4.903  71.718  1.00  0.00    -0.267 A  
HETATM   20  C   UNL     1      -9.173   2.738  70.979  1.00  0.00    -0.130 A  
HETATM   21  C   UNL     1      -9.892   3.909  70.726  1.00  0.00    -0.211 A  
BRANCH  20  22
HETATM   22  O   UNL     1      -9.097   1.872  69.925  1.00  0.00    -0.079 OA 
HETATM   23  C   UNL     1      -7.811   1.668  69.350  1.00  0.00    -0.042 C  
ENDBRANCH  20  22
ENDBRANCH   9  12
ENDBRANCH   1   9
BRANCH   6  24
HETATM   24  C   UNL     1      -7.755   8.529  67.154  1.00  0.00    -0.097 C  
HETATM   25  C   UNL     1      -8.397   7.924  66.147  1.00  0.00    -0.127 C  
ENDBRANCH   6  24
TORSDOF 4
ENDMDL
MODEL      171
REMARK 921   NORMALIZED FREE ENERGY PREDICTED BY IDOCK:   -3.93 KCAL/MOL
REMARK 922        TOTAL FREE ENERGY PREDICTED BY IDOCK:   -5.63 KCAL/MOL
REMARK 923 INTER-LIGAND FREE ENERGY PREDICTED BY IDOCK:   -4.78 KCAL/MOL
REMARK 924 INTRA-LIGAND FREE ENERGY PREDICTED BY IDOCK:   -0.85 KCAL/MOL
REMARK 927      BINDING AFFINITY PREDICTED BY RF-SCORE:    0.00 PKD
ROOT
HETATM    1  C   UNL     1     -10.559   7.591  68.906  1.00  0.00    -0.169 C  
HETATM    2  N   UNL     1      -9.063   7.691  68.995  1.00  0.00    -0.144 NA 
HETATM    3  C   UNL     1     -10.991   7.312  67.444  1.00  0.00    -0.257 C  
HETATM    4  C   UNL     1      -8.389   6.510  68.421  1.00  0.00    -0.117 C  
HETATM    5  C   UNL     1      -9.767   7.383  66.512  1.00  0.00    -0.225 C  
HETATM    6  C   UNL     1      -9.016   8.725  66.695  1.00  0.00    -0.168 C  
HETATM    7  C   UNL     1      -8.823   6.254  66.969  1.00  0.00    -0.108 C  
HETATM    8  C   UNL     1      -8.644   8.876  68.195  1.00  0.00    -0.130 C  
ENDROOT
BRANCH   1   9
HETATM    9  C   UNL     1     -11.223   6.637  69.969  1.00  0.00    -0.369 C  
HETATM   10  O   UNL     1     -12.607   6.904  70.223  1.00  0.00    -0.581 OA 
HETATM   11  H   UNL     1     -13.008   6.329  70.864  1.00  0.00     0.000 HD 
BRANCH   9  12
HETATM   12  C   UNL     1     -10.481   6.674  71.304  1.00  0.00    -0.244 A  
HETATM   13  N   UNL     1      -9.041   6.901  73.705  1.00  0.00    -0.144 NA 
HETATM   14  C   UNL     1     -10.470   7.868  72.042  1.00  0.00    -0.289 A  
HETATM   15  C   UNL     1      -9.062   5.740  73.029  1.00  0.00    -0.124 A  
HETATM   16  C   UNL     1      -8.351   4.679  73.568  1.00  0.00    -0.102 A  
HETATM   17  C   UNL     1      -9.745   7.931  73.211  1.00  0.00    -0.285 A  
HETATM   18  C   UNL     1      -8.308   3.424  72.953  1.00  0.00    -0.081 A  
HETATM   19  C   UNL     1      -9.758   5.558  71.812  1.00  0.00    -0.202 A  
HETATM   20  C   UNL     1      -8.982   3.223  71.757  1.00  0.00    -0.097 A  
HETATM   21  C   UNL     1      -9.693   4.286  71.193  1.00  0.00    -0.259 A  
BRANCH  20  22
HETATM   22  O   UNL     1      -9.032   2.057  71.047  1.00  0.00    -0.062 OA 
HETATM   23  C   UNL     1      -7.806   1.585  70.497  1.00  0.00    -0.038 C  
ENDBRANCH  20  22
ENDBRANCH   9  12
ENDBRANCH   1   9
BRANCH   6  24
HETATM   24  C   UNL     1      -9.806   9.912  66.194  1.00  0.00    -0.324 C  
HETATM   25  C   UNL     1     -10.193  10.937  66.962  1.00  0.00    -0.256 C  
ENDBRANCH   6  24
TORSDOF 4
ENDMDL
MODEL      172
REMARK 921   NORMALIZED FREE ENERGY PREDICTED BY IDOCK:   -3.93 KCAL/MOL
REMARK 922        TOTAL FREE ENERGY PREDICTED BY IDOCK:   -5.63 KCAL/MOL
REMARK 923 INTER-LIGAND FREE ENERGY PREDICTED BY IDOCK:   -5.65 KCAL/MOL
REMARK 924 INTRA-LIGAND FREE ENERGY PREDICTED BY IDOCK:    0.03 KCAL/MOL
REMARK 927      BINDING AFFINITY PREDICTED BY RF-SCORE:    0.00 PKD
ROOT
HETATM    1  C   UNL     1     -10.616   8.405  72.313  1.00  0.00    -0.342 C  
HETATM    2  N   UNL     1     -10.832   7.099  73.022  1.00  0.00    -0.306 NA 
HETATM    3  C   UNL     1      -9.173   8.478  71.751  1.00  0.00    -0.316 C  
HETATM    4  C   UNL     1     -10.494   5.940  72.173  1.00  0.00    -0.207 C  
HETATM    5  C   UNL     1      -8.361   7.262  72.233  1.00  0.00    -0.117 C  
HETATM    6  C   UNL     1      -8.424   7.135  73.776  1.00  0.00    -0.176 C  
HETATM    7  C   UNL     1      -9.058   6.025  71.634  1.00  0.00    -0.147 C  
HETATM    8  C   UNL     1      -9.917   7.071  74.199  1.00  0.00    -0.268 C  
ENDROOT
BRANCH   1   9
HETATM    9  C   UNL     1     -11.734   8.784  71.270  1.00  0.00    -0.298 C  
HETATM   10  O   UNL     1     -12.567   7.689  70.867  1.00  0.00    -0.517 OA 
HETATM   11  H   UNL     1     -13.241   7.917  70.238  1.00  0.00     0.000 HD 
BRANCH   9  12
HETATM   12  C   UNL     1     -11.143   9.415  70.011  1.00  0.00    -0.248 A  
HETATM   13  N   UNL     1     -10.199  10.692  67.694  1.00  0.00    -0.186 NA 
HETATM   14  C   UNL     1     -11.059  10.814  69.928  1.00  0.00    -0.339 A  
HETATM   15  C   UNL     1     -10.243   9.352  67.764  1.00  0.00    -0.222 A  
HETATM   16  C   UNL     1      -9.806   8.644  66.655  1.00  0.00    -0.336 A  
HETATM   17  C   UNL     1     -10.594  11.394  68.768  1.00  0.00    -0.204 A  
HETATM   18  C   UNL     1      -9.803   7.247  66.619  1.00  0.00    -0.257 A  
HETATM   19  C   UNL     1     -10.714   8.645  68.894  1.00  0.00    -0.109 A  
HETATM   20  C   UNL     1     -10.262   6.531  67.716  1.00  0.00    -0.167 A  
HETATM   21  C   UNL     1     -10.719   7.229  68.837  1.00  0.00    -0.173 A  
BRANCH  20  22
HETATM   22  O   UNL     1     -10.315   5.170  67.825  1.00  0.00    -0.159 OA 
HETATM   23  C   UNL     1      -9.128   4.512  68.256  1.00  0.00    -0.124 C  
ENDBRANCH  20  22
ENDBRANCH   9  12
ENDBRANCH   1   9
BRANCH   6  24
HETATM   24  C   UNL     1      -7.690   8.249  74.486  1.00  0.00    -0.298 C  
HETATM   25  C   UNL     1      -6.434   8.619  74.209  1.00  0.00    -0.139 C  
ENDBRANCH   6  24
TORSDOF 4
ENDMDL
MODEL      173
REMARK 921   NORMALIZED FREE ENERGY PREDICTED BY IDOCK:   -3.92 KCAL/MOL
REMARK 922        TOTAL FREE ENERGY PREDICTED BY IDOCK:   -5.62 KCAL/MOL
REMARK 923 INTER-LIGAND FREE ENERGY PREDICTED BY IDOCK:   -5.05 KCAL/MOL
REMARK 924 INTRA-LIGAND FREE ENERGY PREDICTED BY IDOCK:   -0.57 KCAL/MOL
REMARK 927      BINDING AFFINITY PREDICTED BY RF-SCORE:    0.00 PKD
ROOT
HETATM    1  C   UNL     1      -8.766   6.682  71.662  1.00  0.00    -0.130 C  
HETATM    2  N   UNL     1      -9.133   6.496  73.106  1.00  0.00    -0.128 NA 
HETATM    3  C   UNL     1      -9.869   6.092  70.747  1.00  0.00    -0.221 C  
HETATM    4  C   UNL     1     -10.473   7.035  73.414  1.00  0.00    -0.347 C  
HETATM    5  C   UNL     1     -10.921   5.358  71.600  1.00  0.00    -0.184 C  
HETATM    6  C   UNL     1     -10.246   4.309  72.520  1.00  0.00    -0.238 C  
HETATM    7  C   UNL     1     -11.554   6.432  72.505  1.00  0.00    -0.259 C  
HETATM    8  C   UNL     1      -9.170   5.031  73.375  1.00  0.00    -0.123 C  
ENDROOT
BRANCH   1   9
HETATM    9  C   UNL     1      -8.319   8.142  71.275  1.00  0.00    -0.121 C  
HETATM   10  O   UNL     1      -7.911   8.952  72.384  1.00  0.00    -0.374 OA 
HETATM   11  H   UNL     1      -7.642   9.832  72.151  1.00  0.00     0.000 HD 
BRANCH   9  12
HETATM   12  C   UNL     1      -9.419   8.889  70.523  1.00  0.00    -0.243 A  
HETATM   13  N   UNL     1     -11.564  10.175  69.244  1.00  0.00    -0.118 NA 
HETATM   14  C   UNL     1     -10.451   9.497  71.256  1.00  0.00    -0.320 A  
HETATM   15  C   UNL     1     -10.572   9.627  68.525  1.00  0.00    -0.220 A  
HETATM   16  C   UNL     1     -10.658   9.727  67.145  1.00  0.00    -0.298 A  
HETATM   17  C   UNL     1     -11.483  10.111  70.583  1.00  0.00    -0.349 A  
HETATM   18  C   UNL     1      -9.680   9.196  66.299  1.00  0.00    -0.344 A  
HETATM   19  C   UNL     1      -9.468   8.957  69.102  1.00  0.00    -0.157 A  
HETATM   20  C   UNL     1      -8.588   8.533  66.843  1.00  0.00    -0.117 A  
HETATM   21  C   UNL     1      -8.492   8.412  68.231  1.00  0.00    -0.135 A  
BRANCH  20  22
HETATM   22  O   UNL     1      -7.559   7.970  66.144  1.00  0.00    -0.082 OA 
HETATM   23  C   UNL     1      -7.644   6.572  65.886  1.00  0.00    -0.087 C  
ENDBRANCH  20  22
ENDBRANCH   9  12
ENDBRANCH   1   9
BRANCH   6  24
HETATM   24  C   UNL     1      -9.661   3.146  71.752  1.00  0.00    -0.234 C  
HETATM   25  C   UNL     1      -9.951   1.862  71.996  1.00  0.00    -0.220 C  
ENDBRANCH   6  24
TORSDOF 4
ENDMDL
MODEL      174
REMARK 921   NORMALIZED FREE ENERGY PREDICTED BY IDOCK:   -3.92 KCAL/MOL
REMARK 922        TOTAL FREE ENERGY PREDICTED BY IDOCK:   -5.62 KCAL/MOL
REMARK 923 INTER-LIGAND FREE ENERGY PREDICTED BY IDOCK:   -5.48 KCAL/MOL
REMARK 924 INTRA-LIGAND FREE ENERGY PREDICTED BY IDOCK:   -0.14 KCAL/MOL
REMARK 927      BINDING AFFINITY PREDICTED BY RF-SCORE:    0.00 PKD
ROOT
HETATM    1  C   UNL     1      -8.901  13.057  67.005  1.00  0.00    -0.212 C  
HETATM    2  N   UNL     1      -8.523  11.885  66.147  1.00  0.00     0.023 NA 
HETATM    3  C   UNL     1     -10.210  12.756  67.779  1.00  0.00    -0.223 C  
HETATM    4  C   UNL     1      -8.449  10.629  66.920  1.00  0.00    -0.127 C  
HETATM    5  C   UNL     1     -10.801  11.415  67.308  1.00  0.00    -0.311 C  
HETATM    6  C   UNL     1     -10.970  11.401  65.767  1.00  0.00    -0.256 C  
HETATM    7  C   UNL     1      -9.757  10.342  67.672  1.00  0.00    -0.191 C  
HETATM    8  C   UNL     1      -9.593  11.715  65.123  1.00  0.00    -0.183 C  
ENDROOT
BRANCH   1   9
HETATM    9  C   UNL     1      -7.737  13.623  67.902  1.00  0.00    -0.157 C  
HETATM   10  O   UNL     1      -7.896  13.381  69.305  1.00  0.00    -0.319 OA 
HETATM   11  H   UNL     1      -7.194  13.722  69.846  1.00  0.00     0.000 HD 
BRANCH   9  12
HETATM   12  C   UNL     1      -7.547  15.126  67.701  1.00  0.00    -0.194 A  
HETATM   13  N   UNL     1      -7.038  17.874  67.419  1.00  0.00    -0.185 NA 
HETATM   14  C   UNL     1      -6.317  15.597  67.216  1.00  0.00    -0.056 A  
HETATM   15  C   UNL     1      -8.232  17.444  67.857  1.00  0.00    -0.225 A  
HETATM   16  C   UNL     1      -9.183  18.407  68.155  1.00  0.00    -0.327 A  
HETATM   17  C   UNL     1      -6.113  16.954  67.100  1.00  0.00    -0.173 A  
HETATM   18  C   UNL     1     -10.461  18.072  68.614  1.00  0.00    -0.236 A  
HETATM   19  C   UNL     1      -8.554  16.078  68.031  1.00  0.00    -0.165 A  
HETATM   20  C   UNL     1     -10.798  16.738  68.793  1.00  0.00    -0.318 A  
HETATM   21  C   UNL     1      -9.847  15.755  68.510  1.00  0.00    -0.209 A  
BRANCH  20  22
HETATM   22  O   UNL     1     -12.003  16.264  69.230  1.00  0.00    -0.191 OA 
HETATM   23  C   UNL     1     -12.000  14.995  69.875  1.00  0.00    -0.334 C  
ENDBRANCH  20  22
ENDBRANCH   9  12
ENDBRANCH   1   9
BRANCH   6  24
HETATM   24  C   UNL     1     -12.041  12.353  65.286  1.00  0.00    -0.451 C  
HETATM   25  C   UNL     1     -11.894  13.190  64.252  1.00  0.00    -0.462 C  
ENDBRANCH   6  24
TORSDOF 4
ENDMDL
MODEL      175
REMARK 921   NORMALIZED FREE ENERGY PREDICTED BY IDOCK:   -3.90 KCAL/MOL
REMARK 922        TOTAL FREE ENERGY PREDICTED BY IDOCK:   -5.60 KCAL/MOL
REMARK 923 INTER-LIGAND FREE ENERGY PREDICTED BY IDOCK:   -5.20 KCAL/MOL
REMARK 924 INTRA-LIGAND FREE ENERGY PREDICTED BY IDOCK:   -0.40 KCAL/MOL
REMARK 927      BINDING AFFINITY PREDICTED BY RF-SCORE:    0.00 PKD
ROOT
HETATM    1  C   UNL     1     -10.453  11.900  66.575  1.00  0.00    -0.221 C  
HETATM    2  N   UNL     1     -11.538  12.870  66.944  1.00  0.00    -0.348 NA 
HETATM    3  C   UNL     1      -9.563  12.492  65.452  1.00  0.00    -0.015 C  
HETATM    4  C   UNL     1     -11.003  14.203  67.287  1.00  0.00    -0.297 C  
HETATM    5  C   UNL     1     -10.163  13.819  64.952  1.00  0.00    -0.374 C  
HETATM    6  C   UNL     1     -11.645  13.631  64.540  1.00  0.00    -0.415 C  
HETATM    7  C   UNL     1     -10.133  14.777  66.159  1.00  0.00    -0.312 C  
HETATM    8  C   UNL     1     -12.416  13.037  65.750  1.00  0.00    -0.329 C  
ENDROOT
BRANCH   1   9
HETATM    9  C   UNL     1      -9.647  11.314  67.795  1.00  0.00    -0.174 C  
HETATM   10  O   UNL     1      -8.431  12.010  68.093  1.00  0.00    -0.157 OA 
HETATM   11  H   UNL     1      -7.945  11.656  68.829  1.00  0.00     0.000 HD 
BRANCH   9  12
HETATM   12  C   UNL     1      -9.309   9.838  67.592  1.00  0.00    -0.157 A  
HETATM   13  N   UNL     1      -8.860   7.098  67.164  1.00  0.00    -0.120 NA 
HETATM   14  C   UNL     1      -9.688   9.211  66.394  1.00  0.00    -0.330 A  
HETATM   15  C   UNL     1      -8.463   7.684  68.305  1.00  0.00    -0.125 A  
HETATM   16  C   UNL     1      -7.830   6.882  69.243  1.00  0.00    -0.114 A  
HETATM   17  C   UNL     1      -9.451   7.865  66.234  1.00  0.00    -0.151 A  
HETATM   18  C   UNL     1      -7.370   7.387  70.463  1.00  0.00    -0.076 A  
HETATM   19  C   UNL     1      -8.664   9.054  68.590  1.00  0.00    -0.133 A  
HETATM   20  C   UNL     1      -7.558   8.728  70.765  1.00  0.00    -0.094 A  
HETATM   21  C   UNL     1      -8.206   9.548  69.837  1.00  0.00    -0.169 A  
BRANCH  20  22
HETATM   22  O   UNL     1      -7.162   9.359  71.910  1.00  0.00    -0.300 OA 
HETATM   23  C   UNL     1      -6.897   8.535  73.041  1.00  0.00    -0.031 C  
ENDBRANCH  20  22
ENDBRANCH   9  12
ENDBRANCH   1   9
BRANCH   6  24
HETATM   24  C   UNL     1     -11.806  12.779  63.303  1.00  0.00    -0.493 C  
HETATM   25  C   UNL     1     -12.486  11.627  63.266  1.00  0.00    -0.262 C  
ENDBRANCH   6  24
TORSDOF 4
ENDMDL
MODEL      176
REMARK 921   NORMALIZED FREE ENERGY PREDICTED BY IDOCK:   -3.89 KCAL/MOL
REMARK 922        TOTAL FREE ENERGY PREDICTED BY IDOCK:   -5.59 KCAL/MOL
REMARK 923 INTER-LIGAND FREE ENERGY PREDICTED BY IDOCK:   -5.18 KCAL/MOL
REMARK 924 INTRA-LIGAND FREE ENERGY PREDICTED BY IDOCK:   -0.41 KCAL/MOL
REMARK 927      BINDING AFFINITY PREDICTED BY RF-SCORE:    0.00 PKD
ROOT
HETATM    1  C   UNL     1     -10.556   8.660  69.945  1.00  0.00    -0.224 C  
HETATM    2  N   UNL     1     -10.834   9.268  71.289  1.00  0.00    -0.320 NA 
HETATM    3  C   UNL     1     -10.849   7.138  69.973  1.00  0.00    -0.276 C  
HETATM    4  C   UNL     1     -12.196   8.961  71.770  1.00  0.00    -0.359 C  
HETATM    5  C   UNL     1     -11.179   6.694  71.410  1.00  0.00    -0.318 C  
HETATM    6  C   UNL     1     -10.062   7.133  72.390  1.00  0.00    -0.207 C  
HETATM    7  C   UNL     1     -12.464   7.449  71.800  1.00  0.00    -0.367 C  
HETATM    8  C   UNL     1      -9.874   8.669  72.260  1.00  0.00    -0.289 C  
ENDROOT
BRANCH   1   9
HETATM    9  C   UNL     1     -11.207   9.420  68.728  1.00  0.00     0.159 C  
HETATM   10  O   UNL     1     -10.787   8.950  67.441  1.00  0.00    -0.435 OA 
HETATM   11  H   UNL     1     -11.180   9.408  66.707  1.00  0.00     0.000 HD 
BRANCH   9  12
HETATM   12  C   UNL     1     -10.942  10.923  68.792  1.00  0.00    -0.285 A  
HETATM   13  N   UNL     1     -10.612  13.712  68.822  1.00  0.00    -0.249 NA 
HETATM   14  C   UNL     1     -11.972  11.778  69.215  1.00  0.00    -0.354 A  
HETATM   15  C   UNL     1      -9.604  12.911  68.443  1.00  0.00    -0.176 A  
HETATM   16  C   UNL     1      -8.414  13.519  68.075  1.00  0.00    -0.176 A  
HETATM   17  C   UNL     1     -11.763  13.139  69.207  1.00  0.00    -0.321 A  
HETATM   18  C   UNL     1      -7.297  12.783  67.668  1.00  0.00    -0.144 A  
HETATM   19  C   UNL     1      -9.703  11.501  68.396  1.00  0.00    -0.202 A  
HETATM   20  C   UNL     1      -7.372  11.398  67.612  1.00  0.00    -0.102 A  
HETATM   21  C   UNL     1      -8.568  10.769  67.967  1.00  0.00    -0.128 A  
BRANCH  20  22
HETATM   22  O   UNL     1      -6.366  10.552  67.238  1.00  0.00    -0.060 OA 
HETATM   23  C   UNL     1      -5.986  10.571  65.866  1.00  0.00    -0.121 C  
ENDBRANCH  20  22
ENDBRANCH   9  12
ENDBRANCH   1   9
BRANCH   6  24
HETATM   24  C   UNL     1      -8.763   6.392  72.170  1.00  0.00    -0.132 C  
HETATM   25  C   UNL     1      -7.588   6.986  71.935  1.00  0.00    -0.092 C  
ENDBRANCH   6  24
TORSDOF 4
ENDMDL
MODEL      177
REMARK 921   NORMALIZED FREE ENERGY PREDICTED BY IDOCK:   -3.89 KCAL/MOL
REMARK 922        TOTAL FREE ENERGY PREDICTED BY IDOCK:   -5.59 KCAL/MOL
REMARK 923 INTER-LIGAND FREE ENERGY PREDICTED BY IDOCK:   -5.70 KCAL/MOL
REMARK 924 INTRA-LIGAND FREE ENERGY PREDICTED BY IDOCK:    0.12 KCAL/MOL
REMARK 927      BINDING AFFINITY PREDICTED BY RF-SCORE:    0.00 PKD
ROOT
HETATM    1  C   UNL     1      -9.166   8.145  70.830  1.00  0.00    -0.150 C  
HETATM    2  N   UNL     1      -9.833   8.868  71.965  1.00  0.00    -0.313 NA 
HETATM    3  C   UNL     1     -10.210   7.330  70.026  1.00  0.00    -0.206 C  
HETATM    4  C   UNL     1     -10.969   9.694  71.510  1.00  0.00    -0.196 C  
HETATM    5  C   UNL     1     -11.577   7.385  70.733  1.00  0.00    -0.317 C  
HETATM    6  C   UNL     1     -11.447   6.944  72.213  1.00  0.00    -0.313 C  
HETATM    7  C   UNL     1     -11.997   8.868  70.723  1.00  0.00    -0.184 C  
HETATM    8  C   UNL     1     -10.376   7.838  72.895  1.00  0.00    -0.334 C  
ENDROOT
BRANCH   1   9
HETATM    9  C   UNL     1      -8.221   9.039  69.941  1.00  0.00    -0.124 C  
HETATM   10  O   UNL     1      -8.189  10.422  70.313  1.00  0.00    -0.375 OA 
HETATM   11  H   UNL     1      -7.619  10.961  69.777  1.00  0.00     0.000 HD 
BRANCH   9  12
HETATM   12  C   UNL     1      -8.591   8.955  68.462  1.00  0.00    -0.133 A  
HETATM   13  N   UNL     1      -9.093   8.774  65.704  1.00  0.00    -0.206 NA 
HETATM   14  C   UNL     1      -8.080   7.899  67.691  1.00  0.00    -0.124 A  
HETATM   15  C   UNL     1      -9.617   9.777  66.428  1.00  0.00    -0.200 A  
HETATM   16  C   UNL     1     -10.405  10.699  65.757  1.00  0.00    -0.287 A  
HETATM   17  C   UNL     1      -8.350   7.856  66.342  1.00  0.00    -0.129 A  
HETATM   18  C   UNL     1     -11.004  11.780  66.411  1.00  0.00    -0.341 A  
HETATM   19  C   UNL     1      -9.398   9.934  67.816  1.00  0.00    -0.154 A  
HETATM   20  C   UNL     1     -10.802  11.955  67.773  1.00  0.00    -0.211 A  
HETATM   21  C   UNL     1     -10.000  11.042  68.462  1.00  0.00    -0.198 A  
BRANCH  20  22
HETATM   22  O   UNL     1     -11.323  12.957  68.542  1.00  0.00    -0.249 OA 
HETATM   23  C   UNL     1     -10.707  14.236  68.437  1.00  0.00    -0.251 C  
ENDBRANCH  20  22
ENDBRANCH   9  12
ENDBRANCH   1   9
BRANCH   6  24
HETATM   24  C   UNL     1     -11.125   5.475  72.361  1.00  0.00    -0.312 C  
HETATM   25  C   UNL     1     -11.029   4.841  73.536  1.00  0.00    -0.398 C  
ENDBRANCH   6  24
TORSDOF 4
ENDMDL
MODEL      178
REMARK 921   NORMALIZED FREE ENERGY PREDICTED BY IDOCK:   -3.87 KCAL/MOL
REMARK 922        TOTAL FREE ENERGY PREDICTED BY IDOCK:   -5.56 KCAL/MOL
REMARK 923 INTER-LIGAND FREE ENERGY PREDICTED BY IDOCK:   -4.87 KCAL/MOL
REMARK 924 INTRA-LIGAND FREE ENERGY PREDICTED BY IDOCK:   -0.69 KCAL/MOL
REMARK 927      BINDING AFFINITY PREDICTED BY RF-SCORE:    0.00 PKD
ROOT
HETATM    1  C   UNL     1      -9.371   7.714  71.120  1.00  0.00    -0.154 C  
HETATM    2  N   UNL     1     -10.068   8.351  72.286  1.00  0.00    -0.292 NA 
HETATM    3  C   UNL     1     -10.361   6.828  70.321  1.00  0.00    -0.224 C  
HETATM    4  C   UNL     1     -11.283   9.085  71.878  1.00  0.00    -0.368 C  
HETATM    5  C   UNL     1     -11.709   6.750  71.062  1.00  0.00    -0.406 C  
HETATM    6  C   UNL     1     -11.504   6.290  72.527  1.00  0.00    -0.300 C  
HETATM    7  C   UNL     1     -12.256   8.190  71.097  1.00  0.00    -0.257 C  
HETATM    8  C   UNL     1     -10.497   7.259  73.205  1.00  0.00    -0.370 C  
ENDROOT
BRANCH   1   9
HETATM    9  C   UNL     1      -8.529   8.705  70.231  1.00  0.00    -0.132 C  
HETATM   10  O   UNL     1      -8.479  10.049  70.723  1.00  0.00    -0.340 OA 
HETATM   11  H   UNL     1      -7.972  10.647  70.187  1.00  0.00     0.000 HD 
BRANCH   9  12
HETATM   12  C   UNL     1      -9.041   8.748  68.792  1.00  0.00    -0.138 A  
HETATM   13  N   UNL     1     -10.153   8.824  66.213  1.00  0.00    -0.261 NA 
HETATM   14  C   UNL     1     -10.058   9.657  68.459  1.00  0.00    -0.195 A  
HETATM   15  C   UNL     1      -9.161   7.967  66.502  1.00  0.00    -0.173 A  
HETATM   16  C   UNL     1      -8.720   7.139  65.482  1.00  0.00    -0.042 A  
HETATM   17  C   UNL     1     -10.575   9.652  67.183  1.00  0.00    -0.228 A  
HETATM   18  C   UNL     1      -7.690   6.212  65.669  1.00  0.00    -0.092 A  
HETATM   19  C   UNL     1      -8.562   7.869  67.779  1.00  0.00    -0.128 A  
HETATM   20  C   UNL     1      -7.089   6.097  66.914  1.00  0.00    -0.073 A  
HETATM   21  C   UNL     1      -7.529   6.915  67.958  1.00  0.00    -0.099 A  
BRANCH  20  22
HETATM   22  O   UNL     1      -6.074   5.243  67.242  1.00  0.00    -0.028 OA 
HETATM   23  C   UNL     1      -6.445   3.941  67.681  1.00  0.00    -0.038 C  
ENDBRANCH  20  22
ENDBRANCH   9  12
ENDBRANCH   1   9
BRANCH   6  24
HETATM   24  C   UNL     1     -11.053   4.852  72.633  1.00  0.00    -0.227 C  
HETATM   25  C   UNL     1     -11.127   4.121  73.752  1.00  0.00    -0.305 C  
ENDBRANCH   6  24
TORSDOF 4
ENDMDL
MODEL      179
REMARK 921   NORMALIZED FREE ENERGY PREDICTED BY IDOCK:   -3.87 KCAL/MOL
REMARK 922        TOTAL FREE ENERGY PREDICTED BY IDOCK:   -5.56 KCAL/MOL
REMARK 923 INTER-LIGAND FREE ENERGY PREDICTED BY IDOCK:   -5.06 KCAL/MOL
REMARK 924 INTRA-LIGAND FREE ENERGY PREDICTED BY IDOCK:   -0.50 KCAL/MOL
REMARK 927      BINDING AFFINITY PREDICTED BY RF-SCORE:    0.00 PKD
ROOT
HETATM    1  C   UNL     1      -8.250  16.159  68.112  1.00  0.00    -0.157 C  
HETATM    2  N   UNL     1      -9.109  16.112  66.882  1.00  0.00    -0.207 NA 
HETATM    3  C   UNL     1      -8.383  17.538  68.807  1.00  0.00    -0.219 C  
HETATM    4  C   UNL     1     -10.513  16.472  67.166  1.00  0.00    -0.300 C  
HETATM    5  C   UNL     1      -9.226  18.486  67.935  1.00  0.00    -0.306 C  
HETATM    6  C   UNL     1      -8.654  18.564  66.497  1.00  0.00    -0.289 C  
HETATM    7  C   UNL     1     -10.625  17.845  67.846  1.00  0.00    -0.387 C  
HETATM    8  C   UNL     1      -8.577  17.123  65.924  1.00  0.00     0.032 C  
ENDROOT
BRANCH   1   9
HETATM    9  C   UNL     1      -8.417  14.929  69.082  1.00  0.00    -0.152 C  
HETATM   10  O   UNL     1      -7.252  14.622  69.858  1.00  0.00    -0.338 OA 
HETATM   11  H   UNL     1      -7.352  13.881  70.443  1.00  0.00     0.000 HD 
BRANCH   9  12
HETATM   12  C   UNL     1      -8.828  13.665  68.328  1.00  0.00    -0.179 A  
HETATM   13  N   UNL     1      -9.564  11.436  66.785  1.00  0.00    -0.185 NA 
HETATM   14  C   UNL     1      -8.065  13.254  67.223  1.00  0.00    -0.150 A  
HETATM   15  C   UNL     1     -10.291  11.795  67.855  1.00  0.00    -0.193 A  
HETATM   16  C   UNL     1     -11.403  11.022  68.154  1.00  0.00    -0.374 A  
HETATM   17  C   UNL     1      -8.469  12.158  66.495  1.00  0.00    -0.026 A  
HETATM   18  C   UNL     1     -12.229  11.300  69.248  1.00  0.00    -0.290 A  
HETATM   19  C   UNL     1      -9.984  12.909  68.670  1.00  0.00    -0.099 A  
HETATM   20  C   UNL     1     -11.947  12.389  70.060  1.00  0.00    -0.299 A  
HETATM   21  C   UNL     1     -10.839  13.187  69.765  1.00  0.00     0.379 A  
BRANCH  20  22
HETATM   22  O   UNL     1     -12.660  12.779  71.159  1.00  0.00    -0.371 OA 
HETATM   23  C   UNL     1     -12.928  14.171  71.292  1.00  0.00    -0.356 C  
ENDBRANCH  20  22
ENDBRANCH   9  12
ENDBRANCH   1   9
BRANCH   6  24
HETATM   24  C   UNL     1      -7.315  19.262  66.436  1.00  0.00    -0.264 C  
HETATM   25  C   UNL     1      -7.041  20.420  67.048  1.00  0.00    -0.331 C  
ENDBRANCH   6  24
TORSDOF 4
ENDMDL
MODEL      180
REMARK 921   NORMALIZED FREE ENERGY PREDICTED BY IDOCK:   -3.85 KCAL/MOL
REMARK 922        TOTAL FREE ENERGY PREDICTED BY IDOCK:   -5.54 KCAL/MOL
REMARK 923 INTER-LIGAND FREE ENERGY PREDICTED BY IDOCK:   -4.83 KCAL/MOL
REMARK 924 INTRA-LIGAND FREE ENERGY PREDICTED BY IDOCK:   -0.71 KCAL/MOL
REMARK 927      BINDING AFFINITY PREDICTED BY RF-SCORE:    0.00 PKD
ROOT
HETATM    1  C   UNL     1      -9.429   7.913  67.788  1.00  0.00    -0.144 C  
HETATM    2  N   UNL     1      -8.051   8.273  68.262  1.00  0.00    -0.122 NA 
HETATM    3  C   UNL     1      -9.394   7.512  66.291  1.00  0.00    -0.176 C  
HETATM    4  C   UNL     1      -7.068   7.206  67.984  1.00  0.00    -0.085 C  
HETATM    5  C   UNL     1      -7.988   7.761  65.714  1.00  0.00    -0.114 C  
HETATM    6  C   UNL     1      -7.536   9.219  65.981  1.00  0.00    -0.095 C  
HETATM    7  C   UNL     1      -7.041   6.829  66.495  1.00  0.00    -0.071 C  
HETATM    8  C   UNL     1      -7.619   9.484  67.508  1.00  0.00    -0.095 C  
ENDROOT
BRANCH   1   9
HETATM    9  C   UNL     1     -10.202   6.896  68.710  1.00  0.00    -0.174 C  
HETATM   10  O   UNL     1     -11.428   6.405  68.156  1.00  0.00    -0.558 OA 
HETATM   11  H   UNL     1     -11.894   5.792  68.712  1.00  0.00     0.000 HD 
BRANCH   9  12
HETATM   12  C   UNL     1     -10.510   7.498  70.080  1.00  0.00    -0.226 A  
HETATM   13  N   UNL     1     -10.966   8.742  72.557  1.00  0.00    -0.163 NA 
HETATM   14  C   UNL     1     -10.841   8.859  70.167  1.00  0.00    -0.251 A  
HETATM   15  C   UNL     1     -10.680   7.431  72.495  1.00  0.00    -0.272 A  
HETATM   16  C   UNL     1     -10.624   6.737  73.694  1.00  0.00    -0.347 A  
HETATM   17  C   UNL     1     -11.050   9.425  71.404  1.00  0.00    -0.380 A  
HETATM   18  C   UNL     1     -10.340   5.369  73.747  1.00  0.00    -0.277 A  
HETATM   19  C   UNL     1     -10.431   6.744  71.285  1.00  0.00    -0.237 A  
HETATM   20  C   UNL     1     -10.091   4.674  72.573  1.00  0.00    -0.174 A  
HETATM   21  C   UNL     1     -10.130   5.361  71.357  1.00  0.00    -0.262 A  
BRANCH  20  22
HETATM   22  O   UNL     1      -9.804   3.342  72.471  1.00  0.00    -0.132 OA 
HETATM   23  C   UNL     1      -9.777   2.787  71.160  1.00  0.00    -0.113 C  
ENDBRANCH  20  22
ENDBRANCH   9  12
ENDBRANCH   1   9
BRANCH   6  24
HETATM   24  C   UNL     1      -8.334  10.233  65.194  1.00  0.00    -0.162 C  
HETATM   25  C   UNL     1      -8.616  10.122  63.891  1.00  0.00    -0.197 C  
ENDBRANCH   6  24
TORSDOF 4
ENDMDL
MODEL      181
REMARK 921   NORMALIZED FREE ENERGY PREDICTED BY IDOCK:   -3.85 KCAL/MOL
REMARK 922        TOTAL FREE ENERGY PREDICTED BY IDOCK:   -5.54 KCAL/MOL
REMARK 923 INTER-LIGAND FREE ENERGY PREDICTED BY IDOCK:   -5.62 KCAL/MOL
REMARK 924 INTRA-LIGAND FREE ENERGY PREDICTED BY IDOCK:    0.08 KCAL/MOL
REMARK 927      BINDING AFFINITY PREDICTED BY RF-SCORE:    0.00 PKD
ROOT
HETATM    1  C   UNL     1      -9.579   8.081  67.218  1.00  0.00    -0.162 C  
HETATM    2  N   UNL     1     -10.544   9.223  67.352  1.00  0.00    -0.278 NA 
HETATM    3  C   UNL     1      -8.331   8.326  68.105  1.00  0.00    -0.129 C  
HETATM    4  C   UNL     1     -10.894   9.497  68.760  1.00  0.00    -0.142 C  
HETATM    5  C   UNL     1      -8.395   9.735  68.722  1.00  0.00    -0.113 C  
HETATM    6  C   UNL     1      -8.599  10.808  67.622  1.00  0.00    -0.123 C  
HETATM    7  C   UNL     1      -9.647   9.746  69.621  1.00  0.00    -0.239 C  
HETATM    8  C   UNL     1      -9.874  10.442  66.815  1.00  0.00    -0.195 C  
ENDROOT
BRANCH   1   9
HETATM    9  C   UNL     1     -10.218   6.652  67.384  1.00  0.00    -0.190 C  
HETATM   10  O   UNL     1     -11.650   6.645  67.446  1.00  0.00    -0.727 OA 
HETATM   11  H   UNL     1     -12.036   5.783  67.547  1.00  0.00     0.000 HD 
BRANCH   9  12
HETATM   12  C   UNL     1      -9.689   5.936  68.626  1.00  0.00    -0.155 A  
HETATM   13  N   UNL     1      -8.688   4.471  70.804  1.00  0.00    -0.091 NA 
HETATM   14  C   UNL     1      -8.487   5.215  68.534  1.00  0.00    -0.088 A  
HETATM   15  C   UNL     1      -9.823   5.179  70.922  1.00  0.00    -0.199 A  
HETATM   16  C   UNL     1     -10.463   5.151  72.151  1.00  0.00    -0.281 A  
HETATM   17  C   UNL     1      -8.041   4.508  69.628  1.00  0.00    -0.060 A  
HETATM   18  C   UNL     1     -11.649   5.853  72.388  1.00  0.00    -0.341 A  
HETATM   19  C   UNL     1     -10.388   5.930  69.866  1.00  0.00    -0.307 A  
HETATM   20  C   UNL     1     -12.222   6.596  71.366  1.00  0.00    -0.324 A  
HETATM   21  C   UNL     1     -11.597   6.625  70.117  1.00  0.00    -0.446 A  
BRANCH  20  22
HETATM   22  O   UNL     1     -13.370   7.332  71.452  1.00  0.00    -0.383 OA 
HETATM   23  C   UNL     1     -13.244   8.670  71.921  1.00  0.00    -0.375 C  
ENDBRANCH  20  22
ENDBRANCH   9  12
ENDBRANCH   1   9
BRANCH   6  24
HETATM   24  C   UNL     1      -7.394  10.961  66.723  1.00  0.00    -0.134 C  
HETATM   25  C   UNL     1      -6.265  11.587  67.077  1.00  0.00    -0.134 C  
ENDBRANCH   6  24
TORSDOF 4
ENDMDL
MODEL      182
REMARK 921   NORMALIZED FREE ENERGY PREDICTED BY IDOCK:   -3.84 KCAL/MOL
REMARK 922        TOTAL FREE ENERGY PREDICTED BY IDOCK:   -5.53 KCAL/MOL
REMARK 923 INTER-LIGAND FREE ENERGY PREDICTED BY IDOCK:   -6.22 KCAL/MOL
REMARK 924 INTRA-LIGAND FREE ENERGY PREDICTED BY IDOCK:    0.69 KCAL/MOL
REMARK 927      BINDING AFFINITY PREDICTED BY RF-SCORE:    0.00 PKD
ROOT
HETATM    1  C   UNL     1     -10.686  12.158  68.469  1.00  0.00    -0.232 C  
HETATM    2  N   UNL     1      -9.380  12.776  68.060  1.00  0.00    -0.207 NA 
HETATM    3  C   UNL     1     -11.725  12.296  67.327  1.00  0.00    -0.394 C  
HETATM    4  C   UNL     1      -8.886  12.239  66.776  1.00  0.00    -0.195 C  
HETATM    5  C   UNL     1     -11.147  13.162  66.193  1.00  0.00    -0.301 C  
HETATM    6  C   UNL     1     -10.641  14.519  66.743  1.00  0.00    -0.276 C  
HETATM    7  C   UNL     1      -9.925  12.392  65.655  1.00  0.00    -0.261 C  
HETATM    8  C   UNL     1      -9.613  14.236  67.871  1.00  0.00    -0.221 C  
ENDROOT
BRANCH   1   9
HETATM    9  C   UNL     1     -10.572  10.706  69.067  1.00  0.00    -0.219 C  
HETATM   10  O   UNL     1     -10.661   9.655  68.097  1.00  0.00    -0.241 OA 
HETATM   11  H   UNL     1     -10.593   8.779  68.457  1.00  0.00     0.000 HD 
BRANCH   9  12
HETATM   12  C   UNL     1     -11.630  10.450  70.138  1.00  0.00    -0.392 A  
HETATM   13  N   UNL     1     -13.656   9.861  71.994  1.00  0.00    -0.359 NA 
HETATM   14  C   UNL     1     -11.971   9.126  70.456  1.00  0.00    -0.081 A  
HETATM   15  C   UNL     1     -13.325  11.135  71.727  1.00  0.00    -0.274 A  
HETATM   16  C   UNL     1     -14.020  12.126  72.403  1.00  0.00     0.289 A  
HETATM   17  C   UNL     1     -12.974   8.888  71.368  1.00  0.00    -0.278 A  
HETATM   18  C   UNL     1     -13.756  13.485  72.207  1.00  0.00    -0.700 A  
HETATM   19  C   UNL     1     -12.323  11.504  70.800  1.00  0.00    -0.472 A  
HETATM   20  C   UNL     1     -12.778  13.870  71.301  1.00  0.00    -0.367 A  
HETATM   21  C   UNL     1     -12.077  12.885  70.601  1.00  0.00    -0.321 A  
BRANCH  20  22
HETATM   22  O   UNL     1     -12.411  15.153  71.009  1.00  0.00    -0.302 OA 
HETATM   23  C   UNL     1     -11.348  15.709  71.776  1.00  0.00    -0.353 C  
ENDBRANCH  20  22
ENDBRANCH   9  12
ENDBRANCH   1   9
BRANCH   6  24
HETATM   24  C   UNL     1     -11.762  15.413  67.220  1.00  0.00     0.006 C  
HETATM   25  C   UNL     1     -11.796  16.001  68.423  1.00  0.00    -0.068 C  
ENDBRANCH   6  24
TORSDOF 4
ENDMDL
MODEL      183
REMARK 921   NORMALIZED FREE ENERGY PREDICTED BY IDOCK:   -3.84 KCAL/MOL
REMARK 922        TOTAL FREE ENERGY PREDICTED BY IDOCK:   -5.52 KCAL/MOL
REMARK 923 INTER-LIGAND FREE ENERGY PREDICTED BY IDOCK:   -4.65 KCAL/MOL
REMARK 924 INTRA-LIGAND FREE ENERGY PREDICTED BY IDOCK:   -0.87 KCAL/MOL
REMARK 927      BINDING AFFINITY PREDICTED BY RF-SCORE:    0.00 PKD
ROOT
HETATM    1  C   UNL     1      -8.454   8.248  68.633  1.00  0.00    -0.125 C  
HETATM    2  N   UNL     1      -7.833   8.436  67.279  1.00  0.00    -0.097 NA 
HETATM    3  C   UNL     1      -7.998   6.900  69.249  1.00  0.00    -0.116 C  
HETATM    4  C   UNL     1      -6.364   8.297  67.314  1.00  0.00    -0.057 C  
HETATM    5  C   UNL     1      -7.181   6.102  68.218  1.00  0.00    -0.084 C  
HETATM    6  C   UNL     1      -7.970   5.947  66.893  1.00  0.00    -0.102 C  
HETATM    7  C   UNL     1      -5.931   6.953  67.919  1.00  0.00    -0.032 C  
HETATM    8  C   UNL     1      -8.361   7.363  66.390  1.00  0.00    -0.127 C  
ENDROOT
BRANCH   1   9
HETATM    9  C   UNL     1      -8.314   9.481  69.603  1.00  0.00    -0.152 C  
HETATM   10  O   UNL     1      -7.668   9.187  70.848  1.00  0.00    -0.122 OA 
HETATM   11  H   UNL     1      -7.584   9.931  71.433  1.00  0.00     0.000 HD 
BRANCH   9  12
HETATM   12  C   UNL     1      -9.669  10.115  69.911  1.00  0.00    -0.195 A  
HETATM   13  N   UNL     1     -12.237  11.115  70.456  1.00  0.00    -0.357 NA 
HETATM   14  C   UNL     1     -10.522   9.483  70.831  1.00  0.00    -0.382 A  
HETATM   15  C   UNL     1     -11.426  11.752  69.596  1.00  0.00    -0.270 A  
HETATM   16  C   UNL     1     -11.911  12.907  69.003  1.00  0.00    -0.352 A  
HETATM   17  C   UNL     1     -11.773  10.009  71.060  1.00  0.00    -0.392 A  
HETATM   18  C   UNL     1     -11.151  13.652  68.096  1.00  0.00    -0.281 A  
HETATM   19  C   UNL     1     -10.126  11.300  69.269  1.00  0.00    -0.018 A  
HETATM   20  C   UNL     1      -9.874  13.227  67.759  1.00  0.00    -0.224 A  
HETATM   21  C   UNL     1      -9.374  12.058  68.338  1.00  0.00    -0.175 A  
BRANCH  20  22
HETATM   22  O   UNL     1      -9.020  13.852  66.895  1.00  0.00    -0.234 OA 
HETATM   23  C   UNL     1      -9.532  14.970  66.178  1.00  0.00    -0.313 C  
ENDBRANCH  20  22
ENDBRANCH   9  12
ENDBRANCH   1   9
BRANCH   6  24
HETATM   24  C   UNL     1      -9.179   5.050  67.032  1.00  0.00    -0.122 C  
HETATM   25  C   UNL     1     -10.407   5.372  66.607  1.00  0.00    -0.325 C  
ENDBRANCH   6  24
TORSDOF 4
ENDMDL
MODEL      184
REMARK 921   NORMALIZED FREE ENERGY PREDICTED BY IDOCK:   -3.82 KCAL/MOL
REMARK 922        TOTAL FREE ENERGY PREDICTED BY IDOCK:   -5.50 KCAL/MOL
REMARK 923 INTER-LIGAND FREE ENERGY PREDICTED BY IDOCK:   -4.89 KCAL/MOL
REMARK 924 INTRA-LIGAND FREE ENERGY PREDICTED BY IDOCK:   -0.62 KCAL/MOL
REMARK 927      BINDING AFFINITY PREDICTED BY RF-SCORE:    0.00 PKD
ROOT
HETATM    1  C   UNL     1      -8.529  15.505  67.686  1.00  0.00    -0.166 C  
HETATM    2  N   UNL     1      -9.633  16.181  68.445  1.00  0.00    -0.205 NA 
HETATM    3  C   UNL     1      -8.009  16.431  66.556  1.00  0.00    -0.342 C  
HETATM    4  C   UNL     1      -9.235  17.513  68.943  1.00  0.00    -0.153 C  
HETATM    5  C   UNL     1      -8.892  17.689  66.462  1.00  0.00    -0.287 C  
HETATM    6  C   UNL     1     -10.385  17.301  66.313  1.00  0.00    -0.323 C  
HETATM    7  C   UNL     1      -8.732  18.419  67.809  1.00  0.00    -0.278 C  
HETATM    8  C   UNL     1     -10.771  16.380  67.502  1.00  0.00    -0.298 C  
ENDROOT
BRANCH   1   9
HETATM    9  C   UNL     1      -7.395  14.881  68.583  1.00  0.00    -0.120 C  
HETATM   10  O   UNL     1      -6.196  15.664  68.655  1.00  0.00    -0.097 OA 
HETATM   11  H   UNL     1      -5.512  15.289  69.195  1.00  0.00     0.000 HD 
BRANCH   9  12
HETATM   12  C   UNL     1      -7.014  13.477  68.119  1.00  0.00    -0.118 A  
HETATM   13  N   UNL     1      -6.214  10.971  67.132  1.00  0.00    -0.067 NA 
HETATM   14  C   UNL     1      -5.667  13.194  67.842  1.00  0.00    -0.129 A  
HETATM   15  C   UNL     1      -7.504  11.211  67.418  1.00  0.00    -0.109 A  
HETATM   16  C   UNL     1      -8.404  10.178  67.207  1.00  0.00    -0.121 A  
HETATM   17  C   UNL     1      -5.325  11.952  67.355  1.00  0.00    -0.104 A  
HETATM   18  C   UNL     1      -9.769  10.314  67.475  1.00  0.00    -0.196 A  
HETATM   19  C   UNL     1      -7.977  12.450  67.909  1.00  0.00    -0.155 A  
HETATM   20  C   UNL     1     -10.256  11.521  67.956  1.00  0.00    -0.191 A  
HETATM   21  C   UNL     1      -9.365  12.578  68.162  1.00  0.00    -0.210 A  
BRANCH  20  22
HETATM   22  O   UNL     1     -11.558  11.799  68.264  1.00  0.00    -0.269 OA 
HETATM   23  C   UNL     1     -12.022  11.373  69.541  1.00  0.00    -0.341 C  
ENDBRANCH  20  22
ENDBRANCH   9  12
ENDBRANCH   1   9
BRANCH   6  24
HETATM   24  C   UNL     1     -10.694  16.654  64.983  1.00  0.00    -0.171 C  
HETATM   25  C   UNL     1     -11.086  15.383  64.838  1.00  0.00    -0.435 C  
ENDBRANCH   6  24
TORSDOF 4
ENDMDL
MODEL      185
REMARK 921   NORMALIZED FREE ENERGY PREDICTED BY IDOCK:   -3.82 KCAL/MOL
REMARK 922        TOTAL FREE ENERGY PREDICTED BY IDOCK:   -5.49 KCAL/MOL
REMARK 923 INTER-LIGAND FREE ENERGY PREDICTED BY IDOCK:   -6.35 KCAL/MOL
REMARK 924 INTRA-LIGAND FREE ENERGY PREDICTED BY IDOCK:    0.86 KCAL/MOL
REMARK 927      BINDING AFFINITY PREDICTED BY RF-SCORE:    0.00 PKD
ROOT
HETATM    1  C   UNL     1      -9.439  12.409  66.728  1.00  0.00    -0.228 C  
HETATM    2  N   UNL     1     -10.686  11.587  66.578  1.00  0.00    -0.263 NA 
HETATM    3  C   UNL     1      -9.427  13.561  65.691  1.00  0.00     0.099 C  
HETATM    4  C   UNL     1     -11.909  12.412  66.633  1.00  0.00    -0.325 C  
HETATM    5  C   UNL     1     -10.617  13.409  64.725  1.00  0.00    -0.420 C  
HETATM    6  C   UNL     1     -10.631  11.997  64.089  1.00  0.00    -0.398 C  
HETATM    7  C   UNL     1     -11.884  13.542  65.593  1.00  0.00    -0.397 C  
HETATM    8  C   UNL     1     -10.642  10.946  65.233  1.00  0.00    -0.189 C  
ENDROOT
BRANCH   1   9
HETATM    9  C   UNL     1      -9.120  12.865  68.202  1.00  0.00    -0.207 C  
HETATM   10  O   UNL     1      -8.528  11.850  69.022  1.00  0.00    -0.366 OA 
HETATM   11  H   UNL     1      -8.336  12.124  69.911  1.00  0.00     0.000 HD 
BRANCH   9  12
HETATM   12  C   UNL     1     -10.367  13.382  68.916  1.00  0.00    -0.089 A  
HETATM   13  N   UNL     1     -12.560  14.471  70.294  1.00  0.00    -0.343 NA 
HETATM   14  C   UNL     1     -10.698  14.742  68.809  1.00  0.00    -0.253 A  
HETATM   15  C   UNL     1     -12.279  13.161  70.386  1.00  0.00    -0.316 A  
HETATM   16  C   UNL     1     -13.112  12.388  71.180  1.00  0.00    -0.122 A  
HETATM   17  C   UNL     1     -11.779  15.230  69.508  1.00  0.00    -0.339 A  
HETATM   18  C   UNL     1     -12.918  11.014  71.344  1.00  0.00    -0.517 A  
HETATM   19  C   UNL     1     -11.188  12.549  69.728  1.00  0.00    -0.011 A  
HETATM   20  C   UNL     1     -11.852  10.391  70.709  1.00  0.00    -0.368 A  
HETATM   21  C   UNL     1     -10.995  11.158  69.915  1.00  0.00    -0.162 A  
BRANCH  20  22
HETATM   22  O   UNL     1     -11.541   9.063  70.774  1.00  0.00    -0.276 OA 
HETATM   23  C   UNL     1     -11.267   8.528  72.065  1.00  0.00    -0.348 C  
ENDBRANCH  20  22
ENDBRANCH   9  12
ENDBRANCH   1   9
BRANCH   6  24
HETATM   24  C   UNL     1      -9.479  11.772  63.136  1.00  0.00    -0.185 C  
HETATM   25  C   UNL     1      -9.166  10.586  62.601  1.00  0.00    -0.329 C  
ENDBRANCH   6  24
TORSDOF 4
ENDMDL
MODEL      186
REMARK 921   NORMALIZED FREE ENERGY PREDICTED BY IDOCK:   -3.81 KCAL/MOL
REMARK 922        TOTAL FREE ENERGY PREDICTED BY IDOCK:   -5.48 KCAL/MOL
REMARK 923 INTER-LIGAND FREE ENERGY PREDICTED BY IDOCK:   -5.69 KCAL/MOL
REMARK 924 INTRA-LIGAND FREE ENERGY PREDICTED BY IDOCK:    0.21 KCAL/MOL
REMARK 927      BINDING AFFINITY PREDICTED BY RF-SCORE:    0.00 PKD
ROOT
HETATM    1  C   UNL     1      -8.393   9.084  68.037  1.00  0.00    -0.117 C  
HETATM    2  N   UNL     1      -8.208   7.643  68.419  1.00  0.00    -0.124 NA 
HETATM    3  C   UNL     1      -9.476   9.212  66.935  1.00  0.00    -0.222 C  
HETATM    4  C   UNL     1      -9.481   6.998  68.797  1.00  0.00    -0.136 C  
HETATM    5  C   UNL     1      -9.910   7.813  66.461  1.00  0.00    -0.255 C  
HETATM    6  C   UNL     1      -8.680   6.973  66.033  1.00  0.00    -0.156 C  
HETATM    7  C   UNL     1     -10.538   7.127  67.689  1.00  0.00    -0.318 C  
HETATM    8  C   UNL     1      -7.684   6.926  67.222  1.00  0.00    -0.109 C  
ENDROOT
BRANCH   1   9
HETATM    9  C   UNL     1      -8.586  10.070  69.250  1.00  0.00    -0.168 C  
HETATM   10  O   UNL     1      -8.261   9.510  70.528  1.00  0.00    -0.181 OA 
HETATM   11  H   UNL     1      -8.377  10.104  71.260  1.00  0.00     0.000 HD 
BRANCH   9  12
HETATM   12  C   UNL     1     -10.015  10.607  69.320  1.00  0.00    -0.215 A  
HETATM   13  N   UNL     1     -12.571  11.766  69.441  1.00  0.00     0.089 NA 
HETATM   14  C   UNL     1     -10.409  11.609  68.419  1.00  0.00    -0.215 A  
HETATM   15  C   UNL     1     -12.225  10.787  70.294  1.00  0.00    -0.348 A  
HETATM   16  C   UNL     1     -13.176  10.385  71.218  1.00  0.00    -0.431 A  
HETATM   17  C   UNL     1     -11.671  12.150  68.522  1.00  0.00    -0.330 A  
HETATM   18  C   UNL     1     -12.926   9.373  72.150  1.00  0.00    -0.503 A  
HETATM   19  C   UNL     1     -10.954  10.167  70.295  1.00  0.00    -0.380 A  
HETATM   20  C   UNL     1     -11.686   8.751  72.170  1.00  0.00    -0.363 A  
HETATM   21  C   UNL     1     -10.711   9.153  71.254  1.00  0.00    -0.401 A  
BRANCH  20  22
HETATM   22  O   UNL     1     -11.301   7.750  73.017  1.00  0.00    -0.399 OA 
HETATM   23  C   UNL     1     -10.706   6.600  72.426  1.00  0.00    -0.223 C  
ENDBRANCH  20  22
ENDBRANCH   9  12
ENDBRANCH   1   9
BRANCH   6  24
HETATM   24  C   UNL     1      -8.024   7.493  64.775  1.00  0.00    -0.132 C  
HETATM   25  C   UNL     1      -6.765   7.942  64.713  1.00  0.00    -0.051 C  
ENDBRANCH   6  24
TORSDOF 4
ENDMDL
MODEL      187
REMARK 921   NORMALIZED FREE ENERGY PREDICTED BY IDOCK:   -3.78 KCAL/MOL
REMARK 922        TOTAL FREE ENERGY PREDICTED BY IDOCK:   -5.45 KCAL/MOL
REMARK 923 INTER-LIGAND FREE ENERGY PREDICTED BY IDOCK:   -5.04 KCAL/MOL
REMARK 924 INTRA-LIGAND FREE ENERGY PREDICTED BY IDOCK:   -0.41 KCAL/MOL
REMARK 927      BINDING AFFINITY PREDICTED BY RF-SCORE:    0.00 PKD
ROOT
HETATM    1  C   UNL     1      -9.727  11.970  67.831  1.00  0.00    -0.194 C  
HETATM    2  N   UNL     1     -11.160  11.564  68.016  1.00  0.00    -0.234 NA 
HETATM    3  C   UNL     1      -9.611  13.514  67.764  1.00  0.00    -0.219 C  
HETATM    4  C   UNL     1     -11.784  12.231  69.177  1.00  0.00    -0.323 C  
HETATM    5  C   UNL     1     -11.015  14.146  67.746  1.00  0.00    -0.274 C  
HETATM    6  C   UNL     1     -11.877  13.535  66.613  1.00  0.00    -0.450 C  
HETATM    7  C   UNL     1     -11.668  13.760  69.088  1.00  0.00    -0.379 C  
HETATM    8  C   UNL     1     -11.909  11.993  66.801  1.00  0.00    -0.164 C  
ENDROOT
BRANCH   1   9
HETATM    9  C   UNL     1      -8.713  11.290  68.826  1.00  0.00    -0.103 C  
HETATM   10  O   UNL     1      -7.352  11.288  68.379  1.00  0.00    -0.084 OA 
HETATM   11  H   UNL     1      -6.740  10.878  68.978  1.00  0.00     0.000 HD 
BRANCH   9  12
HETATM   12  C   UNL     1      -9.109   9.848  69.139  1.00  0.00    -0.175 A  
HETATM   13  N   UNL     1      -9.724   7.203  69.859  1.00  0.00    -0.170 NA 
HETATM   14  C   UNL     1      -9.455   9.508  70.457  1.00  0.00    -0.306 A  
HETATM   15  C   UNL     1      -9.425   7.511  68.586  1.00  0.00    -0.146 A  
HETATM   16  C   UNL     1      -9.437   6.477  67.663  1.00  0.00    -0.126 A  
HETATM   17  C   UNL     1      -9.743   8.197  70.761  1.00  0.00    -0.170 A  
HETATM   18  C   UNL     1      -9.146   6.684  66.312  1.00  0.00    -0.168 A  
HETATM   19  C   UNL     1      -9.098   8.818  68.156  1.00  0.00    -0.142 A  
HETATM   20  C   UNL     1      -8.821   7.958  65.867  1.00  0.00    -0.148 A  
HETATM   21  C   UNL     1      -8.792   9.009  66.786  1.00  0.00    -0.144 A  
BRANCH  20  22
HETATM   22  O   UNL     1      -8.519   8.309  64.582  1.00  0.00    -0.143 OA 
HETATM   23  C   UNL     1      -7.491   7.566  63.936  1.00  0.00    -0.108 C  
ENDBRANCH  20  22
ENDBRANCH   9  12
ENDBRANCH   1   9
BRANCH   6  24
HETATM   24  C   UNL     1     -11.391  13.919  65.234  1.00  0.00    -0.316 C  
HETATM   25  C   UNL     1     -11.553  15.131  64.690  1.00  0.00    -0.357 C  
ENDBRANCH   6  24
TORSDOF 4
ENDMDL
MODEL      188
REMARK 921   NORMALIZED FREE ENERGY PREDICTED BY IDOCK:   -3.76 KCAL/MOL
REMARK 922        TOTAL FREE ENERGY PREDICTED BY IDOCK:   -5.43 KCAL/MOL
REMARK 923 INTER-LIGAND FREE ENERGY PREDICTED BY IDOCK:   -4.94 KCAL/MOL
REMARK 924 INTRA-LIGAND FREE ENERGY PREDICTED BY IDOCK:   -0.49 KCAL/MOL
REMARK 927      BINDING AFFINITY PREDICTED BY RF-SCORE:    0.00 PKD
ROOT
HETATM    1  C   UNL     1      -9.042   5.416  67.156  1.00  0.00    -0.111 C  
HETATM    2  N   UNL     1      -8.487   4.091  67.593  1.00  0.00    -0.097 NA 
HETATM    3  C   UNL     1      -8.730   5.659  65.657  1.00  0.00    -0.151 C  
HETATM    4  C   UNL     1      -8.944   2.982  66.733  1.00  0.00    -0.159 C  
HETATM    5  C   UNL     1      -7.813   4.543  65.124  1.00  0.00    -0.090 C  
HETATM    6  C   UNL     1      -6.548   4.403  66.009  1.00  0.00    -0.041 C  
HETATM    7  C   UNL     1      -8.619   3.236  65.253  1.00  0.00    -0.107 C  
HETATM    8  C   UNL     1      -7.003   4.164  67.475  1.00  0.00    -0.056 C  
ENDROOT
BRANCH   1   9
HETATM    9  C   UNL     1     -10.545   5.667  67.552  1.00  0.00    -0.221 C  
HETATM   10  O   UNL     1     -11.343   6.251  66.515  1.00  0.00    -0.732 OA 
HETATM   11  H   UNL     1     -12.250   6.402  66.753  1.00  0.00     0.000 HD 
BRANCH   9  12
HETATM   12  C   UNL     1     -10.664   6.551  68.792  1.00  0.00    -0.320 A  
HETATM   13  N   UNL     1     -11.044   8.097  71.106  1.00  0.00    -0.240 NA 
HETATM   14  C   UNL     1     -11.056   5.967  70.008  1.00  0.00    -0.451 A  
HETATM   15  C   UNL     1     -10.639   8.671  69.962  1.00  0.00    -0.227 A  
HETATM   16  C   UNL     1     -10.421  10.040  69.980  1.00  0.00    -0.337 A  
HETATM   17  C   UNL     1     -11.235   6.768  71.113  1.00  0.00    -0.283 A  
HETATM   18  C   UNL     1      -9.994  10.740  68.848  1.00  0.00    -0.213 A  
HETATM   19  C   UNL     1     -10.436   7.956  68.759  1.00  0.00    -0.198 A  
HETATM   20  C   UNL     1      -9.790  10.059  67.657  1.00  0.00    -0.162 A  
HETATM   21  C   UNL     1     -10.018   8.681  67.617  1.00  0.00    -0.248 A  
BRANCH  20  22
HETATM   22  O   UNL     1      -9.373  10.608  66.477  1.00  0.00    -0.162 OA 
HETATM   23  C   UNL     1      -9.798   9.963  65.281  1.00  0.00    -0.303 C  
ENDBRANCH  20  22
ENDBRANCH   9  12
ENDBRANCH   1   9
BRANCH   6  24
HETATM   24  C   UNL     1      -5.621   5.591  65.899  1.00  0.00    -0.013 C  
HETATM   25  C   UNL     1      -5.474   6.522  66.850  1.00  0.00    -0.013 C  
ENDBRANCH   6  24
TORSDOF 4
ENDMDL
MODEL      189
REMARK 921   NORMALIZED FREE ENERGY PREDICTED BY IDOCK:   -3.75 KCAL/MOL
REMARK 922        TOTAL FREE ENERGY PREDICTED BY IDOCK:   -5.41 KCAL/MOL
REMARK 923 INTER-LIGAND FREE ENERGY PREDICTED BY IDOCK:   -5.25 KCAL/MOL
REMARK 924 INTRA-LIGAND FREE ENERGY PREDICTED BY IDOCK:   -0.17 KCAL/MOL
REMARK 927      BINDING AFFINITY PREDICTED BY RF-SCORE:    0.00 PKD
ROOT
HETATM    1  C   UNL     1      -8.796   9.200  68.239  1.00  0.00    -0.129 C  
HETATM    2  N   UNL     1      -7.955   9.259  66.997  1.00  0.00    -0.102 NA 
HETATM    3  C   UNL     1      -8.667  10.523  69.038  1.00  0.00    -0.160 C  
HETATM    4  C   UNL     1      -8.254  10.449  66.175  1.00  0.00    -0.144 C  
HETATM    5  C   UNL     1      -7.594  11.421  68.394  1.00  0.00    -0.123 C  
HETATM    6  C   UNL     1      -6.257  10.653  68.238  1.00  0.00    -0.050 C  
HETATM    7  C   UNL     1      -8.112  11.749  66.980  1.00  0.00    -0.169 C  
HETATM    8  C   UNL     1      -6.531   9.359  67.423  1.00  0.00    -0.063 C  
ENDROOT
BRANCH   1   9
HETATM    9  C   UNL     1     -10.281   8.727  68.011  1.00  0.00    -0.213 C  
HETATM   10  O   UNL     1     -11.189   9.774  67.647  1.00  0.00    -0.473 OA 
HETATM   11  H   UNL     1     -12.085   9.489  67.509  1.00  0.00     0.000 HD 
BRANCH   9  12
HETATM   12  C   UNL     1     -10.845   8.020  69.243  1.00  0.00    -0.072 A  
HETATM   13  N   UNL     1     -11.957   6.597  71.394  1.00  0.00    -0.342 NA 
HETATM   14  C   UNL     1     -10.697   6.629  69.355  1.00  0.00    -0.303 A  
HETATM   15  C   UNL     1     -12.084   7.931  71.322  1.00  0.00    -0.296 A  
HETATM   16  C   UNL     1     -12.778   8.559  72.344  1.00  0.00    -0.394 A  
HETATM   17  C   UNL     1     -11.265   5.975  70.426  1.00  0.00    -0.310 A  
HETATM   18  C   UNL     1     -12.967   9.944  72.373  1.00  0.00    -0.263 A  
HETATM   19  C   UNL     1     -11.558   8.709  70.264  1.00  0.00    -0.003 A  
HETATM   20  C   UNL     1     -12.461  10.727  71.346  1.00  0.00    -0.373 A  
HETATM   21  C   UNL     1     -11.770  10.109  70.300  1.00  0.00    -0.361 A  
BRANCH  20  22
HETATM   22  O   UNL     1     -12.565  12.085  71.242  1.00  0.00    -0.347 OA 
HETATM   23  C   UNL     1     -13.461  12.733  72.140  1.00  0.00    -0.492 C  
ENDBRANCH  20  22
ENDBRANCH   9  12
ENDBRANCH   1   9
BRANCH   6  24
HETATM   24  C   UNL     1      -5.596  10.350  69.562  1.00  0.00    -0.038 C  
HETATM   25  C   UNL     1      -5.290   9.118  69.986  1.00  0.00    -0.028 C  
ENDBRANCH   6  24
TORSDOF 4
ENDMDL
MODEL      190
REMARK 921   NORMALIZED FREE ENERGY PREDICTED BY IDOCK:   -3.74 KCAL/MOL
REMARK 922        TOTAL FREE ENERGY PREDICTED BY IDOCK:   -5.39 KCAL/MOL
REMARK 923 INTER-LIGAND FREE ENERGY PREDICTED BY IDOCK:   -4.92 KCAL/MOL
REMARK 924 INTRA-LIGAND FREE ENERGY PREDICTED BY IDOCK:   -0.47 KCAL/MOL
REMARK 927      BINDING AFFINITY PREDICTED BY RF-SCORE:    0.00 PKD
ROOT
HETATM    1  C   UNL     1     -10.603   7.442  71.505  1.00  0.00    -0.206 C  
HETATM    2  N   UNL     1      -9.328   7.008  72.170  1.00  0.00    -0.135 NA 
HETATM    3  C   UNL     1     -11.681   6.337  71.641  1.00  0.00    -0.342 C  
HETATM    4  C   UNL     1      -9.542   6.593  73.571  1.00  0.00    -0.173 C  
HETATM    5  C   UNL     1     -11.064   5.076  72.273  1.00  0.00    -0.116 C  
HETATM    6  C   UNL     1      -9.807   4.627  71.486  1.00  0.00    -0.259 C  
HETATM    7  C   UNL     1     -10.607   5.492  73.684  1.00  0.00    -0.316 C  
HETATM    8  C   UNL     1      -8.816   5.821  71.427  1.00  0.00    -0.140 C  
ENDROOT
BRANCH   1   9
HETATM    9  C   UNL     1     -11.100   8.882  71.904  1.00  0.00    -0.372 C  
HETATM   10  O   UNL     1     -12.434   8.927  72.424  1.00  0.00    -0.375 OA 
HETATM   11  H   UNL     1     -12.735   9.795  72.665  1.00  0.00     0.000 HD 
BRANCH   9  12
HETATM   12  C   UNL     1     -11.018   9.855  70.729  1.00  0.00    -0.407 A  
HETATM   13  N   UNL     1     -11.007  11.553  68.492  1.00  0.00    -0.207 NA 
HETATM   14  C   UNL     1     -12.199  10.445  70.251  1.00  0.00    -0.349 A  
HETATM   15  C   UNL     1      -9.862  11.023  68.951  1.00  0.00    -0.177 A  
HETATM   16  C   UNL     1      -8.696  11.352  68.277  1.00  0.00    -0.160 A  
HETATM   17  C   UNL     1     -12.143  11.267  69.148  1.00  0.00    -0.279 A  
HETATM   18  C   UNL     1      -7.447  10.862  68.671  1.00  0.00    -0.105 A  
HETATM   19  C   UNL     1      -9.795  10.155  70.065  1.00  0.00    -0.179 A  
HETATM   20  C   UNL     1      -7.357  10.007  69.760  1.00  0.00    -0.141 A  
HETATM   21  C   UNL     1      -8.524   9.655  70.442  1.00  0.00    -0.187 A  
BRANCH  20  22
HETATM   22  O   UNL     1      -6.211   9.455  70.258  1.00  0.00    -0.045 OA 
HETATM   23  C   UNL     1      -5.398   8.726  69.345  1.00  0.00    -0.035 C  
ENDBRANCH  20  22
ENDBRANCH   9  12
ENDBRANCH   1   9
BRANCH   6  24
HETATM   24  C   UNL     1     -10.134   4.105  70.106  1.00  0.00     0.004 C  
HETATM   25  C   UNL     1      -9.228   3.913  69.140  1.00  0.00    -0.222 C  
ENDBRANCH   6  24
TORSDOF 4
ENDMDL
MODEL      191
REMARK 921   NORMALIZED FREE ENERGY PREDICTED BY IDOCK:   -3.73 KCAL/MOL
REMARK 922        TOTAL FREE ENERGY PREDICTED BY IDOCK:   -5.39 KCAL/MOL
REMARK 923 INTER-LIGAND FREE ENERGY PREDICTED BY IDOCK:   -5.49 KCAL/MOL
REMARK 924 INTRA-LIGAND FREE ENERGY PREDICTED BY IDOCK:    0.10 KCAL/MOL
REMARK 927      BINDING AFFINITY PREDICTED BY RF-SCORE:    0.00 PKD
ROOT
HETATM    1  C   UNL     1      -8.376  11.173  66.816  1.00  0.00    -0.152 C  
HETATM    2  N   UNL     1      -7.697   9.836  66.744  1.00  0.00    -0.098 NA 
HETATM    3  C   UNL     1      -9.770  11.105  66.142  1.00  0.00    -0.253 C  
HETATM    4  C   UNL     1      -8.539   8.752  67.290  1.00  0.00    -0.121 C  
HETATM    5  C   UNL     1      -9.960   9.734  65.467  1.00  0.00    -0.329 C  
HETATM    6  C   UNL     1      -8.785   9.429  64.504  1.00  0.00    -0.233 C  
HETATM    7  C   UNL     1      -9.912   8.694  66.604  1.00  0.00    -0.357 C  
HETATM    8  C   UNL     1      -7.458   9.531  65.304  1.00  0.00    -0.107 C  
ENDROOT
BRANCH   1   9
HETATM    9  C   UNL     1      -8.382  11.835  68.245  1.00  0.00    -0.159 C  
HETATM   10  O   UNL     1      -7.754  11.050  69.267  1.00  0.00    -0.231 OA 
HETATM   11  H   UNL     1      -7.757  11.449  70.128  1.00  0.00     0.000 HD 
BRANCH   9  12
HETATM   12  C   UNL     1      -9.799  12.167  68.709  1.00  0.00    -0.034 A  
HETATM   13  N   UNL     1     -12.343  12.944  69.611  1.00  0.00    -0.108 NA 
HETATM   14  C   UNL     1     -10.371  13.391  68.326  1.00  0.00    -0.251 A  
HETATM   15  C   UNL     1     -11.828  11.755  69.966  1.00  0.00    -0.342 A  
HETATM   16  C   UNL     1     -12.601  10.946  70.783  1.00  0.00    -0.470 A  
HETATM   17  C   UNL     1     -11.619  13.729  68.799  1.00  0.00    -0.328 A  
HETATM   18  C   UNL     1     -12.167   9.688  71.209  1.00  0.00    -0.452 A  
HETATM   19  C   UNL     1     -10.552  11.305  69.556  1.00  0.00    -0.083 A  
HETATM   20  C   UNL     1     -10.917   9.226  70.821  1.00  0.00    -0.284 A  
HETATM   21  C   UNL     1     -10.119  10.034  70.008  1.00  0.00    -0.289 A  
BRANCH  20  22
HETATM   22  O   UNL     1     -10.364   8.022  71.156  1.00  0.00    -0.195 OA 
HETATM   23  C   UNL     1     -11.109   7.196  72.044  1.00  0.00    -0.245 C  
ENDBRANCH  20  22
ENDBRANCH   9  12
ENDBRANCH   1   9
BRANCH   6  24
HETATM   24  C   UNL     1      -8.774  10.329  63.289  1.00  0.00    -0.207 C  
HETATM   25  C   UNL     1      -7.830  10.303  62.342  1.00  0.00    -0.165 C  
ENDBRANCH   6  24
TORSDOF 4
ENDMDL
MODEL      192
REMARK 921   NORMALIZED FREE ENERGY PREDICTED BY IDOCK:   -3.72 KCAL/MOL
REMARK 922        TOTAL FREE ENERGY PREDICTED BY IDOCK:   -5.38 KCAL/MOL
REMARK 923 INTER-LIGAND FREE ENERGY PREDICTED BY IDOCK:   -4.96 KCAL/MOL
REMARK 924 INTRA-LIGAND FREE ENERGY PREDICTED BY IDOCK:   -0.42 KCAL/MOL
REMARK 927      BINDING AFFINITY PREDICTED BY RF-SCORE:    0.00 PKD
ROOT
HETATM    1  C   UNL     1      -9.082  15.201  67.633  1.00  0.00    -0.180 C  
HETATM    2  N   UNL     1      -9.687  16.263  68.505  1.00  0.00    -0.217 NA 
HETATM    3  C   UNL     1      -8.370  15.847  66.417  1.00  0.00    -0.310 C  
HETATM    4  C   UNL     1      -8.701  17.287  68.904  1.00  0.00    -0.172 C  
HETATM    5  C   UNL     1      -8.640  17.362  66.395  1.00  0.00    -0.282 C  
HETATM    6  C   UNL     1     -10.162  17.649  66.451  1.00  0.00    -0.364 C  
HETATM    7  C   UNL     1      -8.013  17.922  67.686  1.00  0.00    -0.219 C  
HETATM    8  C   UNL     1     -10.744  16.949  67.709  1.00  0.00    -0.315 C  
ENDROOT
BRANCH   1   9
HETATM    9  C   UNL     1      -8.213  14.133  68.398  1.00  0.00    -0.149 C  
HETATM   10  O   UNL     1      -6.806  14.215  68.138  1.00  0.00    -0.100 OA 
HETATM   11  H   UNL     1      -6.282  13.571  68.598  1.00  0.00     0.000 HD 
BRANCH   9  12
HETATM   12  C   UNL     1      -8.668  12.708  68.091  1.00  0.00    -0.190 A  
HETATM   13  N   UNL     1      -9.469  10.120  67.348  1.00  0.00    -0.151 NA 
HETATM   14  C   UNL     1      -7.868  11.902  67.265  1.00  0.00    -0.168 A  
HETATM   15  C   UNL     1     -10.234  10.862  68.164  1.00  0.00    -0.176 A  
HETATM   16  C   UNL     1     -11.417  10.297  68.614  1.00  0.00    -0.178 A  
HETATM   17  C   UNL     1      -8.307  10.642  66.924  1.00  0.00    -0.125 A  
HETATM   18  C   UNL     1     -12.288  10.977  69.470  1.00  0.00    -0.266 A  
HETATM   19  C   UNL     1      -9.897  12.174  68.571  1.00  0.00    -0.167 A  
HETATM   20  C   UNL     1     -11.979  12.266  69.881  1.00  0.00    -0.306 A  
HETATM   21  C   UNL     1     -10.797  12.856  69.427  1.00  0.00     0.049 A  
BRANCH  20  22
HETATM   22  O   UNL     1     -12.729  13.047  70.713  1.00  0.00    -0.262 OA 
HETATM   23  C   UNL     1     -13.153  12.460  71.939  1.00  0.00    -0.366 C  
ENDBRANCH  20  22
ENDBRANCH   9  12
ENDBRANCH   1   9
BRANCH   6  24
HETATM   24  C   UNL     1     -10.885  17.227  65.193  1.00  0.00     0.051 C  
HETATM   25  C   UNL     1     -11.105  15.954  64.843  1.00  0.00    -0.400 C  
ENDBRANCH   6  24
TORSDOF 4
ENDMDL
MODEL      193
REMARK 921   NORMALIZED FREE ENERGY PREDICTED BY IDOCK:   -3.71 KCAL/MOL
REMARK 922        TOTAL FREE ENERGY PREDICTED BY IDOCK:   -5.37 KCAL/MOL
REMARK 923 INTER-LIGAND FREE ENERGY PREDICTED BY IDOCK:   -5.36 KCAL/MOL
REMARK 924 INTRA-LIGAND FREE ENERGY PREDICTED BY IDOCK:   -0.00 KCAL/MOL
REMARK 927      BINDING AFFINITY PREDICTED BY RF-SCORE:    0.00 PKD
ROOT
HETATM    1  C   UNL     1      -7.907  15.858  68.448  1.00  0.00    -0.145 C  
HETATM    2  N   UNL     1      -6.779  16.633  67.831  1.00  0.00    -0.136 NA 
HETATM    3  C   UNL     1      -7.460  15.243  69.799  1.00  0.00    -0.122 C  
HETATM    4  C   UNL     1      -6.222  17.640  68.756  1.00  0.00    -0.197 C  
HETATM    5  C   UNL     1      -5.954  15.482  70.012  1.00  0.00    -0.146 C  
HETATM    6  C   UNL     1      -5.140  14.974  68.795  1.00  0.00    -0.092 C  
HETATM    7  C   UNL     1      -5.776  17.011  70.085  1.00  0.00    -0.212 C  
HETATM    8  C   UNL     1      -5.688  15.666  67.518  1.00  0.00    -0.055 C  
ENDROOT
BRANCH   1   9
HETATM    9  C   UNL     1      -9.280  16.626  68.511  1.00  0.00    -0.234 C  
HETATM   10  O   UNL     1     -10.262  16.019  69.360  1.00  0.00    -0.236 OA 
HETATM   11  H   UNL     1     -11.090  16.483  69.399  1.00  0.00     0.000 HD 
BRANCH   9  12
HETATM   12  C   UNL     1      -9.897  16.798  67.124  1.00  0.00    -0.259 A  
HETATM   13  N   UNL     1     -11.150  17.231  64.648  1.00  0.00    -0.959 NA 
HETATM   14  C   UNL     1     -10.163  18.094  66.654  1.00  0.00    -0.388 A  
HETATM   15  C   UNL     1     -10.877  15.984  65.065  1.00  0.00    -0.404 A  
HETATM   16  C   UNL     1     -11.238  14.941  64.226  1.00  0.00    -0.026 A  
HETATM   17  C   UNL     1     -10.784  18.255  65.436  1.00  0.00     0.229 A  
HETATM   18  C   UNL     1     -10.998  13.604  64.557  1.00  0.00    -0.405 A  
HETATM   19  C   UNL     1     -10.257  15.693  66.302  1.00  0.00    -0.312 A  
HETATM   20  C   UNL     1     -10.392  13.295  65.766  1.00  0.00    -0.288 A  
HETATM   21  C   UNL     1     -10.034  14.333  66.629  1.00  0.00    -0.279 A  
BRANCH  20  22
HETATM   22  O   UNL     1     -10.094  12.041  66.219  1.00  0.00    -0.213 OA 
HETATM   23  C   UNL     1     -11.100  11.372  66.971  1.00  0.00    -0.303 C  
ENDBRANCH  20  22
ENDBRANCH   9  12
ENDBRANCH   1   9
BRANCH   6  24
HETATM   24  C   UNL     1      -5.159  13.468  68.666  1.00  0.00    -0.074 C  
HETATM   25  C   UNL     1      -5.858  12.653  69.465  1.00  0.00    -0.105 C  
ENDBRANCH   6  24
TORSDOF 4
ENDMDL
MODEL      194
REMARK 921   NORMALIZED FREE ENERGY PREDICTED BY IDOCK:   -3.70 KCAL/MOL
REMARK 922        TOTAL FREE ENERGY PREDICTED BY IDOCK:   -5.35 KCAL/MOL
REMARK 923 INTER-LIGAND FREE ENERGY PREDICTED BY IDOCK:   -4.91 KCAL/MOL
REMARK 924 INTRA-LIGAND FREE ENERGY PREDICTED BY IDOCK:   -0.45 KCAL/MOL
REMARK 927      BINDING AFFINITY PREDICTED BY RF-SCORE:    0.00 PKD
ROOT
HETATM    1  C   UNL     1     -10.306   8.765  67.506  1.00  0.00    -0.268 C  
HETATM    2  N   UNL     1      -9.061   9.393  68.063  1.00  0.00    -0.127 NA 
HETATM    3  C   UNL     1     -11.033   9.758  66.565  1.00  0.00     0.199 C  
HETATM    4  C   UNL     1      -8.178   9.918  67.002  1.00  0.00    -0.117 C  
HETATM    5  C   UNL     1     -10.342  11.133  66.618  1.00  0.00    -0.286 C  
HETATM    6  C   UNL     1     -10.223  11.632  68.080  1.00  0.00    -0.206 C  
HETATM    7  C   UNL     1      -8.913  10.907  66.085  1.00  0.00    -0.196 C  
HETATM    8  C   UNL     1      -9.479  10.548  68.907  1.00  0.00    -0.193 C  
ENDROOT
BRANCH   1   9
HETATM    9  C   UNL     1     -10.106   7.326  66.897  1.00  0.00    -0.247 C  
HETATM   10  O   UNL     1     -11.322   6.611  66.651  1.00  0.00    -0.688 OA 
HETATM   11  H   UNL     1     -11.202   5.743  66.283  1.00  0.00     0.000 HD 
BRANCH   9  12
HETATM   12  C   UNL     1      -9.216   6.456  67.782  1.00  0.00    -0.112 A  
HETATM   13  N   UNL     1      -7.552   4.745  69.264  1.00  0.00    -0.056 NA 
HETATM   14  C   UNL     1      -7.963   6.048  67.295  1.00  0.00    -0.102 A  
HETATM   15  C   UNL     1      -8.733   5.147  69.761  1.00  0.00    -0.099 A  
HETATM   16  C   UNL     1      -9.082   4.684  71.020  1.00  0.00    -0.181 A  
HETATM   17  C   UNL     1      -7.186   5.204  68.057  1.00  0.00    -0.067 A  
HETATM   18  C   UNL     1     -10.284   5.042  71.637  1.00  0.00    -0.275 A  
HETATM   19  C   UNL     1      -9.622   5.999  69.067  1.00  0.00    -0.153 A  
HETATM   20  C   UNL     1     -11.174   5.876  70.974  1.00  0.00    -0.210 A  
HETATM   21  C   UNL     1     -10.844   6.341  69.699  1.00  0.00    -0.403 A  
BRANCH  20  22
HETATM   22  O   UNL     1     -12.378   6.310  71.451  1.00  0.00    -0.159 OA 
HETATM   23  C   UNL     1     -12.776   7.628  71.090  1.00  0.00    -0.206 C  
ENDBRANCH  20  22
ENDBRANCH   9  12
ENDBRANCH   1   9
BRANCH   6  24
HETATM   24  C   UNL     1     -11.561  11.979  68.691  1.00  0.00    -0.372 C  
HETATM   25  C   UNL     1     -11.794  13.079  69.418  1.00  0.00    -0.380 C  
ENDBRANCH   6  24
TORSDOF 4
ENDMDL
MODEL      195
REMARK 921   NORMALIZED FREE ENERGY PREDICTED BY IDOCK:   -3.70 KCAL/MOL
REMARK 922        TOTAL FREE ENERGY PREDICTED BY IDOCK:   -5.35 KCAL/MOL
REMARK 923 INTER-LIGAND FREE ENERGY PREDICTED BY IDOCK:   -4.70 KCAL/MOL
REMARK 924 INTRA-LIGAND FREE ENERGY PREDICTED BY IDOCK:   -0.65 KCAL/MOL
REMARK 927      BINDING AFFINITY PREDICTED BY RF-SCORE:    0.00 PKD
ROOT
HETATM    1  C   UNL     1      -9.215   6.791  68.073  1.00  0.00    -0.117 C  
HETATM    2  N   UNL     1      -9.376   7.263  66.657  1.00  0.00    -0.165 NA 
HETATM    3  C   UNL     1      -8.372   7.807  68.885  1.00  0.00    -0.128 C  
HETATM    4  C   UNL     1      -9.917   8.634  66.584  1.00  0.00    -0.287 C  
HETATM    5  C   UNL     1      -7.828   8.902  67.950  1.00  0.00    -0.102 C  
HETATM    6  C   UNL     1      -7.067   8.275  66.754  1.00  0.00    -0.077 C  
HETATM    7  C   UNL     1      -9.064   9.629  67.386  1.00  0.00    -0.144 C  
HETATM    8  C   UNL     1      -8.022   7.284  66.034  1.00  0.00    -0.115 C  
ENDROOT
BRANCH   1   9
HETATM    9  C   UNL     1     -10.552   6.351  68.780  1.00  0.00    -0.251 C  
HETATM   10  O   UNL     1     -11.723   6.469  67.962  1.00  0.00    -0.518 OA 
HETATM   11  H   UNL     1     -12.529   6.204  68.388  1.00  0.00     0.000 HD 
BRANCH   9  12
HETATM   12  C   UNL     1     -10.795   7.134  70.069  1.00  0.00    -0.276 A  
HETATM   13  N   UNL     1     -11.151   8.715  72.363  1.00  0.00    -0.324 NA 
HETATM   14  C   UNL     1     -11.269   8.453  69.984  1.00  0.00    -0.085 A  
HETATM   15  C   UNL     1     -10.726   7.446  72.469  1.00  0.00    -0.272 A  
HETATM   16  C   UNL     1     -10.477   6.964  73.745  1.00  0.00    -0.390 A  
HETATM   17  C   UNL     1     -11.422   9.190  71.137  1.00  0.00    -0.318 A  
HETATM   18  C   UNL     1     -10.036   5.658  73.974  1.00  0.00    -0.242 A  
HETATM   19  C   UNL     1     -10.517   6.597  71.358  1.00  0.00    -0.241 A  
HETATM   20  C   UNL     1      -9.823   4.807  72.898  1.00  0.00    -0.151 A  
HETATM   21  C   UNL     1     -10.056   5.281  71.604  1.00  0.00    -0.259 A  
BRANCH  20  22
HETATM   22  O   UNL     1      -9.398   3.511  72.968  1.00  0.00    -0.097 OA 
HETATM   23  C   UNL     1      -9.139   2.850  71.734  1.00  0.00    -0.096 C  
ENDBRANCH  20  22
ENDBRANCH   9  12
ENDBRANCH   1   9
BRANCH   6  24
HETATM   24  C   UNL     1      -5.776   7.606  67.166  1.00  0.00    -0.032 C  
HETATM   25  C   UNL     1      -5.507   6.309  66.975  1.00  0.00    -0.009 C  
ENDBRANCH   6  24
TORSDOF 4
ENDMDL
MODEL      196
REMARK 921   NORMALIZED FREE ENERGY PREDICTED BY IDOCK:   -3.62 KCAL/MOL
REMARK 922        TOTAL FREE ENERGY PREDICTED BY IDOCK:   -5.25 KCAL/MOL
REMARK 923 INTER-LIGAND FREE ENERGY PREDICTED BY IDOCK:   -4.81 KCAL/MOL
REMARK 924 INTRA-LIGAND FREE ENERGY PREDICTED BY IDOCK:   -0.44 KCAL/MOL
REMARK 927      BINDING AFFINITY PREDICTED BY RF-SCORE:    0.00 PKD
ROOT
HETATM    1  C   UNL     1      -8.341  15.679  67.536  1.00  0.00    -0.169 C  
HETATM    2  N   UNL     1      -9.402  16.085  68.517  1.00  0.00    -0.206 NA 
HETATM    3  C   UNL     1      -8.954  15.506  66.123  1.00  0.00    -0.329 C  
HETATM    4  C   UNL     1     -10.147  17.280  68.072  1.00  0.00    -0.324 C  
HETATM    5  C   UNL     1     -10.485  15.647  66.195  1.00  0.00    -0.327 C  
HETATM    6  C   UNL     1     -11.076  14.682  67.254  1.00  0.00    -0.331 C  
HETATM    7  C   UNL     1     -10.754  17.086  66.674  1.00  0.00    -0.092 C  
HETATM    8  C   UNL     1     -10.378  14.963  68.612  1.00  0.00    -0.237 C  
ENDROOT
BRANCH   1   9
HETATM    9  C   UNL     1      -7.036  16.561  67.570  1.00  0.00    -0.143 C  
HETATM   10  O   UNL     1      -5.998  16.122  66.685  1.00  0.00    -0.245 OA 
HETATM   11  H   UNL     1      -5.212  16.654  66.705  1.00  0.00     0.000 HD 
BRANCH   9  12
HETATM   12  C   UNL     1      -6.450  16.650  68.978  1.00  0.00    -0.190 A  
HETATM   13  N   UNL     1      -5.252  16.937  71.503  1.00  0.00    -0.232 NA 
HETATM   14  C   UNL     1      -6.215  17.916  69.538  1.00  0.00    -0.237 A  
HETATM   15  C   UNL     1      -5.496  15.717  70.999  1.00  0.00    -0.001 A  
HETATM   16  C   UNL     1      -5.134  14.626  71.774  1.00  0.00    -0.166 A  
HETATM   17  C   UNL     1      -5.620  18.005  70.777  1.00  0.00    -0.080 A  
HETATM   18  C   UNL     1      -5.346  13.311  71.351  1.00  0.00    -0.182 A  
HETATM   19  C   UNL     1      -6.087  15.499  69.733  1.00  0.00    -0.153 A  
HETATM   20  C   UNL     1      -5.923  13.073  70.112  1.00  0.00    -0.135 A  
HETATM   21  C   UNL     1      -6.281  14.160  69.311  1.00  0.00    -0.103 A  
BRANCH  20  22
HETATM   22  O   UNL     1      -6.191  11.848  69.570  1.00  0.00    -0.093 OA 
HETATM   23  C   UNL     1      -5.348  10.770  69.965  1.00  0.00    -0.045 C  
ENDBRANCH  20  22
ENDBRANCH   9  12
ENDBRANCH   1   9
BRANCH   6  24
HETATM   24  C   UNL     1     -10.957  13.229  66.855  1.00  0.00    -0.298 C  
HETATM   25  C   UNL     1     -11.823  12.595  66.055  1.00  0.00    -0.492 C  
ENDBRANCH   6  24
TORSDOF 4
ENDMDL
MODEL      197
REMARK 921   NORMALIZED FREE ENERGY PREDICTED BY IDOCK:   -3.60 KCAL/MOL
REMARK 922        TOTAL FREE ENERGY PREDICTED BY IDOCK:   -5.23 KCAL/MOL
REMARK 923 INTER-LIGAND FREE ENERGY PREDICTED BY IDOCK:   -4.72 KCAL/MOL
REMARK 924 INTRA-LIGAND FREE ENERGY PREDICTED BY IDOCK:   -0.51 KCAL/MOL
REMARK 927      BINDING AFFINITY PREDICTED BY RF-SCORE:    0.00 PKD
ROOT
HETATM    1  C   UNL     1      -9.109   8.907  69.037  1.00  0.00    -0.137 C  
HETATM    2  N   UNL     1     -10.500   8.869  68.471  1.00  0.00    -0.202 NA 
HETATM    3  C   UNL     1      -8.211   9.844  68.190  1.00  0.00    -0.109 C  
HETATM    4  C   UNL     1     -11.077  10.219  68.315  1.00  0.00    -0.254 C  
HETATM    5  C   UNL     1      -8.978  10.318  66.941  1.00  0.00    -0.149 C  
HETATM    6  C   UNL     1      -9.539   9.109  66.150  1.00  0.00    -0.333 C  
HETATM    7  C   UNL     1     -10.178  11.130  67.465  1.00  0.00    -0.216 C  
HETATM    8  C   UNL     1     -10.415   8.261  67.112  1.00  0.00    -0.316 C  
ENDROOT
BRANCH   1   9
HETATM    9  C   UNL     1      -9.034   9.169  70.588  1.00  0.00    -0.244 C  
HETATM   10  O   UNL     1      -7.703   9.278  71.108  1.00  0.00    -0.282 OA 
HETATM   11  H   UNL     1      -7.657   9.436  72.043  1.00  0.00     0.000 HD 
BRANCH   9  12
HETATM   12  C   UNL     1      -9.764   8.087  71.381  1.00  0.00    -0.205 A  
HETATM   13  N   UNL     1     -11.079   6.196  72.990  1.00  0.00    -0.245 NA 
HETATM   14  C   UNL     1     -10.758   8.468  72.296  1.00  0.00    -0.411 A  
HETATM   15  C   UNL     1     -10.152   5.807  72.099  1.00  0.00    -0.183 A  
HETATM   16  C   UNL     1      -9.884   4.449  72.015  1.00  0.00    -0.240 A  
HETATM   17  C   UNL     1     -11.370   7.505  73.066  1.00  0.00    -0.263 A  
HETATM   18  C   UNL     1      -8.943   3.932  71.120  1.00  0.00    -0.160 A  
HETATM   19  C   UNL     1      -9.447   6.704  71.264  1.00  0.00    -0.166 A  
HETATM   20  C   UNL     1      -8.237   4.793  70.292  1.00  0.00    -0.079 A  
HETATM   21  C   UNL     1      -8.486   6.166  70.373  1.00  0.00    -0.133 A  
BRANCH  20  22
HETATM   22  O   UNL     1      -7.294   4.433  69.371  1.00  0.00    -0.050 OA 
HETATM   23  C   UNL     1      -7.740   4.248  68.032  1.00  0.00    -0.075 C  
ENDBRANCH  20  22
ENDBRANCH   9  12
ENDBRANCH   1   9
BRANCH   6  24
HETATM   24  C   UNL     1      -8.455   8.278  65.503  1.00  0.00    -0.177 C  
HETATM   25  C   UNL     1      -8.468   6.941  65.441  1.00  0.00    -0.091 C  
ENDBRANCH   6  24
TORSDOF 4
ENDMDL
MODEL      198
REMARK 921   NORMALIZED FREE ENERGY PREDICTED BY IDOCK:   -3.60 KCAL/MOL
REMARK 922        TOTAL FREE ENERGY PREDICTED BY IDOCK:   -5.23 KCAL/MOL
REMARK 923 INTER-LIGAND FREE ENERGY PREDICTED BY IDOCK:   -6.07 KCAL/MOL
REMARK 924 INTRA-LIGAND FREE ENERGY PREDICTED BY IDOCK:    0.84 KCAL/MOL
REMARK 927      BINDING AFFINITY PREDICTED BY RF-SCORE:    0.00 PKD
ROOT
HETATM    1  C   UNL     1      -8.139  16.749  68.317  1.00  0.00    -0.202 C  
HETATM    2  N   UNL     1      -8.222  16.387  66.863  1.00  0.00    -0.194 NA 
HETATM    3  C   UNL     1      -8.666  18.190  68.542  1.00  0.00    -0.309 C  
HETATM    4  C   UNL     1      -9.578  16.587  66.314  1.00  0.00    -0.306 C  
HETATM    5  C   UNL     1      -8.960  18.858  67.187  1.00  0.00    -0.299 C  
HETATM    6  C   UNL     1      -7.721  18.785  66.259  1.00  0.00    -0.295 C  
HETATM    7  C   UNL     1     -10.079  18.022  66.538  1.00  0.00    -0.379 C  
HETATM    8  C   UNL     1      -7.303  17.296  66.121  1.00  0.00    -0.281 C  
ENDROOT
BRANCH   1   9
HETATM    9  C   UNL     1      -8.746  15.679  69.301  1.00  0.00    -0.267 C  
HETATM   10  O   UNL     1      -7.804  14.710  69.778  1.00  0.00    -0.399 OA 
HETATM   11  H   UNL     1      -8.170  14.065  70.372  1.00  0.00     0.000 HD 
BRANCH   9  12
HETATM   12  C   UNL     1      -9.917  14.929  68.670  1.00  0.00    -0.224 A  
HETATM   13  N   UNL     1     -12.158  13.562  67.669  1.00  0.00    -0.325 NA 
HETATM   14  C   UNL     1     -11.219  15.422  68.854  1.00  0.00    -0.296 A  
HETATM   15  C   UNL     1     -10.919  13.089  67.455  1.00  0.00    -0.259 A  
HETATM   16  C   UNL     1     -10.805  11.915  66.728  1.00  0.00    -0.307 A  
HETATM   17  C   UNL     1     -12.286  14.713  68.349  1.00  0.00    -0.094 A  
HETATM   18  C   UNL     1      -9.566  11.335  66.442  1.00  0.00    -0.223 A  
HETATM   19  C   UNL     1      -9.749  13.721  67.937  1.00  0.00    -0.229 A  
HETATM   20  C   UNL     1      -8.404  11.936  66.906  1.00  0.00    -0.169 A  
HETATM   21  C   UNL     1      -8.501  13.113  67.651  1.00  0.00    -0.194 A  
BRANCH  20  22
HETATM   22  O   UNL     1      -7.130  11.488  66.703  1.00  0.00    -0.132 OA 
HETATM   23  C   UNL     1      -6.870  10.122  67.011  1.00  0.00    -0.083 C  
ENDBRANCH  20  22
ENDBRANCH   9  12
ENDBRANCH   1   9
BRANCH   6  24
HETATM   24  C   UNL     1      -6.576  19.644  66.741  1.00  0.00    -0.203 C  
HETATM   25  C   UNL     1      -6.645  20.971  66.899  1.00  0.00    -0.397 C  
ENDBRANCH   6  24
TORSDOF 4
ENDMDL
MODEL      199
REMARK 921   NORMALIZED FREE ENERGY PREDICTED BY IDOCK:   -3.59 KCAL/MOL
REMARK 922        TOTAL FREE ENERGY PREDICTED BY IDOCK:   -5.22 KCAL/MOL
REMARK 923 INTER-LIGAND FREE ENERGY PREDICTED BY IDOCK:   -4.54 KCAL/MOL
REMARK 924 INTRA-LIGAND FREE ENERGY PREDICTED BY IDOCK:   -0.68 KCAL/MOL
REMARK 927      BINDING AFFINITY PREDICTED BY RF-SCORE:    0.00 PKD
ROOT
HETATM    1  C   UNL     1     -10.598   6.230  69.482  1.00  0.00    -0.271 C  
HETATM    2  N   UNL     1      -9.904   4.925  69.221  1.00  0.00    -0.189 NA 
HETATM    3  C   UNL     1      -9.713   7.141  70.370  1.00  0.00    -0.176 C  
HETATM    4  C   UNL     1      -8.549   5.114  68.666  1.00  0.00    -0.087 C  
HETATM    5  C   UNL     1      -8.469   6.365  70.841  1.00  0.00    -0.131 C  
HETATM    6  C   UNL     1      -8.878   5.035  71.524  1.00  0.00    -0.146 C  
HETATM    7  C   UNL     1      -7.684   6.011  69.564  1.00  0.00    -0.098 C  
HETATM    8  C   UNL     1      -9.755   4.227  70.529  1.00  0.00    -0.212 C  
ENDROOT
BRANCH   1   9
HETATM    9  C   UNL     1     -11.173   6.942  68.199  1.00  0.00     0.006 C  
HETATM   10  O   UNL     1     -11.203   6.118  67.026  1.00  0.00    -0.574 OA 
HETATM   11  H   UNL     1     -11.549   6.547  66.253  1.00  0.00     0.000 HD 
BRANCH   9  12
HETATM   12  C   UNL     1     -10.398   8.215  67.863  1.00  0.00    -0.280 A  
HETATM   13  N   UNL     1      -8.819  10.462  67.275  1.00  0.00    -0.132 NA 
HETATM   14  C   UNL     1      -9.314   8.136  66.974  1.00  0.00    -0.197 A  
HETATM   15  C   UNL     1      -9.869  10.565  68.105  1.00  0.00    -0.153 A  
HETATM   16  C   UNL     1     -10.130  11.815  68.645  1.00  0.00    -0.198 A  
HETATM   17  C   UNL     1      -8.567   9.265  66.722  1.00  0.00    -0.127 A  
HETATM   18  C   UNL     1     -11.200  12.039  69.517  1.00  0.00    -0.220 A  
HETATM   19  C   UNL     1     -10.700   9.475  68.451  1.00  0.00    -0.230 A  
HETATM   20  C   UNL     1     -12.028  10.984  69.872  1.00  0.00    -0.351 A  
HETATM   21  C   UNL     1     -11.772   9.715  69.347  1.00  0.00     0.260 A  
BRANCH  20  22
HETATM   22  O   UNL     1     -13.108  11.053  70.706  1.00  0.00    -0.236 OA 
HETATM   23  C   UNL     1     -13.069  12.043  71.729  1.00  0.00    -0.355 C  
ENDBRANCH  20  22
ENDBRANCH   9  12
ENDBRANCH   1   9
BRANCH   6  24
HETATM   24  C   UNL     1      -9.582   5.246  72.844  1.00  0.00    -0.160 C  
HETATM   25  C   UNL     1     -10.649   4.547  73.248  1.00  0.00    -0.284 C  
ENDBRANCH   6  24
TORSDOF 4
ENDMDL
MODEL      200
REMARK 921   NORMALIZED FREE ENERGY PREDICTED BY IDOCK:   -3.58 KCAL/MOL
REMARK 922        TOTAL FREE ENERGY PREDICTED BY IDOCK:   -5.20 KCAL/MOL
REMARK 923 INTER-LIGAND FREE ENERGY PREDICTED BY IDOCK:   -5.28 KCAL/MOL
REMARK 924 INTRA-LIGAND FREE ENERGY PREDICTED BY IDOCK:    0.08 KCAL/MOL
REMARK 927      BINDING AFFINITY PREDICTED BY RF-SCORE:    0.00 PKD
ROOT
HETATM    1  C   UNL     1     -10.188   7.268  72.507  1.00  0.00    -0.200 C  
HETATM    2  N   UNL     1      -9.774   8.234  71.435  1.00  0.00    -0.171 NA 
HETATM    3  C   UNL     1     -11.520   6.576  72.122  1.00  0.00    -0.332 C  
HETATM    4  C   UNL     1      -9.718   7.599  70.103  1.00  0.00    -0.179 C  
HETATM    5  C   UNL     1     -12.087   7.209  70.838  1.00  0.00    -0.368 C  
HETATM    6  C   UNL     1     -12.204   8.747  70.989  1.00  0.00    -0.226 C  
HETATM    7  C   UNL     1     -11.050   6.927  69.734  1.00  0.00    -0.316 C  
HETATM    8  C   UNL     1     -10.808   9.306  71.373  1.00  0.00    -0.364 C  
ENDROOT
BRANCH   1   9
HETATM    9  C   UNL     1      -9.058   6.276  72.976  1.00  0.00    -0.129 C  
HETATM   10  O   UNL     1      -7.897   6.258  72.136  1.00  0.00    -0.102 OA 
HETATM   11  H   UNL     1      -7.216   5.660  72.418  1.00  0.00     0.000 HD 
BRANCH   9  12
HETATM   12  C   UNL     1      -9.576   4.844  73.098  1.00  0.00    -0.154 A  
HETATM   13  N   UNL     1     -10.433   2.196  73.477  1.00  0.00    -0.114 NA 
HETATM   14  C   UNL     1     -10.094   4.411  74.328  1.00  0.00    -0.238 A  
HETATM   15  C   UNL     1      -9.969   2.598  72.282  1.00  0.00    -0.166 A  
HETATM   16  C   UNL     1      -9.937   1.657  71.265  1.00  0.00    -0.125 A  
HETATM   17  C   UNL     1     -10.497   3.101  74.466  1.00  0.00    -0.164 A  
HETATM   18  C   UNL     1      -9.478   1.967  69.981  1.00  0.00    -0.133 A  
HETATM   19  C   UNL     1      -9.514   3.912  72.024  1.00  0.00    -0.198 A  
HETATM   20  C   UNL     1      -9.024   3.249  69.705  1.00  0.00    -0.111 A  
HETATM   21  C   UNL     1      -9.038   4.206  70.722  1.00  0.00    -0.175 A  
BRANCH  20  22
HETATM   22  O   UNL     1      -8.552   3.694  68.503  1.00  0.00    -0.084 OA 
HETATM   23  C   UNL     1      -9.490   3.783  67.436  1.00  0.00    -0.196 C  
ENDBRANCH  20  22
ENDBRANCH   9  12
ENDBRANCH   1   9
BRANCH   6  24
HETATM   24  C   UNL     1     -13.264   9.159  71.984  1.00  0.00    -0.505 C  
HETATM   25  C   UNL     1     -14.399   8.483  72.199  1.00  0.00    -0.529 C  
ENDBRANCH   6  24
TORSDOF 4
ENDMDL
MODEL      201
REMARK 921   NORMALIZED FREE ENERGY PREDICTED BY IDOCK:   -3.52 KCAL/MOL
REMARK 922        TOTAL FREE ENERGY PREDICTED BY IDOCK:   -5.13 KCAL/MOL
REMARK 923 INTER-LIGAND FREE ENERGY PREDICTED BY IDOCK:   -5.03 KCAL/MOL
REMARK 924 INTRA-LIGAND FREE ENERGY PREDICTED BY IDOCK:   -0.11 KCAL/MOL
REMARK 927      BINDING AFFINITY PREDICTED BY RF-SCORE:    0.00 PKD
ROOT
HETATM    1  C   UNL     1     -10.602   8.780  67.652  1.00  0.00    -0.213 C  
HETATM    2  N   UNL     1     -10.815   9.576  68.907  1.00  0.00    -0.190 NA 
HETATM    3  C   UNL     1      -9.399   9.347  66.855  1.00  0.00    -0.188 C  
HETATM    4  C   UNL     1      -9.588   9.672  69.723  1.00  0.00    -0.219 C  
HETATM    5  C   UNL     1      -8.898  10.645  67.514  1.00  0.00    -0.132 C  
HETATM    6  C   UNL     1     -10.060  11.655  67.692  1.00  0.00    -0.204 C  
HETATM    7  C   UNL     1      -8.410  10.244  68.920  1.00  0.00    -0.136 C  
HETATM    8  C   UNL     1     -11.189  10.961  68.502  1.00  0.00    -0.274 C  
ENDROOT
BRANCH   1   9
HETATM    9  C   UNL     1     -10.561   7.219  67.858  1.00  0.00    -0.202 C  
HETATM   10  O   UNL     1     -11.584   6.501  67.156  1.00  0.00    -0.743 OA 
HETATM   11  H   UNL     1     -11.560   5.560  67.280  1.00  0.00     0.000 HD 
BRANCH   9  12
HETATM   12  C   UNL     1     -10.648   6.841  69.335  1.00  0.00    -0.265 A  
HETATM   13  N   UNL     1     -10.907   6.297  72.079  1.00  0.00    -0.235 NA 
HETATM   14  C   UNL     1     -11.895   6.895  69.979  1.00  0.00    -0.207 A  
HETATM   15  C   UNL     1      -9.710   6.210  71.477  1.00  0.00    -0.162 A  
HETATM   16  C   UNL     1      -8.629   5.844  72.263  1.00  0.00    -0.124 A  
HETATM   17  C   UNL     1     -11.969   6.625  71.327  1.00  0.00    -0.355 A  
HETATM   18  C   UNL     1      -7.338   5.718  71.741  1.00  0.00    -0.093 A  
HETATM   19  C   UNL     1      -9.506   6.478  70.103  1.00  0.00    -0.164 A  
HETATM   20  C   UNL     1      -7.114   5.977  70.396  1.00  0.00    -0.070 A  
HETATM   21  C   UNL     1      -8.190   6.360  69.592  1.00  0.00    -0.126 A  
BRANCH  20  22
HETATM   22  O   UNL     1      -5.914   5.892  69.749  1.00  0.00    -0.023 OA 
HETATM   23  C   UNL     1      -5.795   4.896  68.739  1.00  0.00    -0.021 C  
ENDBRANCH  20  22
ENDBRANCH   9  12
ENDBRANCH   1   9
BRANCH   6  24
HETATM   24  C   UNL     1     -10.571  12.199  66.378  1.00  0.00    -0.275 C  
HETATM   25  C   UNL     1     -11.866  12.296  66.056  1.00  0.00    -0.409 C  
ENDBRANCH   6  24
TORSDOF 4
ENDMDL
MODEL      202
REMARK 921   NORMALIZED FREE ENERGY PREDICTED BY IDOCK:   -3.51 KCAL/MOL
REMARK 922        TOTAL FREE ENERGY PREDICTED BY IDOCK:   -5.12 KCAL/MOL
REMARK 923 INTER-LIGAND FREE ENERGY PREDICTED BY IDOCK:   -4.63 KCAL/MOL
REMARK 924 INTRA-LIGAND FREE ENERGY PREDICTED BY IDOCK:   -0.49 KCAL/MOL
REMARK 927      BINDING AFFINITY PREDICTED BY RF-SCORE:    0.00 PKD
ROOT
HETATM    1  C   UNL     1     -10.805   7.874  69.912  1.00  0.00    -0.221 C  
HETATM    2  N   UNL     1     -11.195   8.863  70.973  1.00  0.00    -0.264 NA 
HETATM    3  C   UNL     1     -11.348   6.466  70.266  1.00  0.00    -0.468 C  
HETATM    4  C   UNL     1     -12.649   8.864  71.228  1.00  0.00    -0.262 C  
HETATM    5  C   UNL     1     -11.979   6.485  71.670  1.00  0.00    -0.387 C  
HETATM    6  C   UNL     1     -10.981   7.049  72.713  1.00  0.00    -0.329 C  
HETATM    7  C   UNL     1     -13.167   7.463  71.586  1.00  0.00    -0.416 C  
HETATM    8  C   UNL     1     -10.521   8.454  72.238  1.00  0.00    -0.337 C  
ENDROOT
BRANCH   1   9
HETATM    9  C   UNL     1     -11.111   8.332  68.437  1.00  0.00     0.397 C  
HETATM   10  O   UNL     1     -11.179   7.263  67.485  1.00  0.00    -0.548 OA 
HETATM   11  H   UNL     1     -11.363   7.539  66.595  1.00  0.00     0.000 HD 
BRANCH   9  12
HETATM   12  C   UNL     1     -10.085   9.347  67.935  1.00  0.00    -0.239 A  
HETATM   13  N   UNL     1      -8.326  11.274  66.894  1.00  0.00    -0.149 NA 
HETATM   14  C   UNL     1     -10.474  10.687  67.781  1.00  0.00    -0.258 A  
HETATM   15  C   UNL     1      -7.924  10.003  67.062  1.00  0.00    -0.106 A  
HETATM   16  C   UNL     1      -6.620   9.698  66.703  1.00  0.00    -0.071 A  
HETATM   17  C   UNL     1      -9.577  11.593  67.261  1.00  0.00    -0.174 A  
HETATM   18  C   UNL     1      -6.095   8.409  66.839  1.00  0.00    -0.054 A  
HETATM   19  C   UNL     1      -8.758   8.982  67.571  1.00  0.00    -0.121 A  
HETATM   20  C   UNL     1      -6.895   7.390  67.336  1.00  0.00    -0.078 A  
HETATM   21  C   UNL     1      -8.216   7.678  67.690  1.00  0.00    -0.121 A  
BRANCH  20  22
HETATM   22  O   UNL     1      -6.519   6.091  67.526  1.00  0.00    -0.043 OA 
HETATM   23  C   UNL     1      -7.379   5.087  66.996  1.00  0.00    -0.082 C  
ENDBRANCH  20  22
ENDBRANCH   9  12
ENDBRANCH   1   9
BRANCH   6  24
HETATM   24  C   UNL     1      -9.806   6.130  72.957  1.00  0.00    -0.173 C  
HETATM   25  C   UNL     1      -8.543   6.416  72.619  1.00  0.00    -0.122 C  
ENDBRANCH   6  24
TORSDOF 4
ENDMDL
MODEL      203
REMARK 921   NORMALIZED FREE ENERGY PREDICTED BY IDOCK:   -3.49 KCAL/MOL
REMARK 922        TOTAL FREE ENERGY PREDICTED BY IDOCK:   -5.10 KCAL/MOL
REMARK 923 INTER-LIGAND FREE ENERGY PREDICTED BY IDOCK:   -4.69 KCAL/MOL
REMARK 924 INTRA-LIGAND FREE ENERGY PREDICTED BY IDOCK:   -0.40 KCAL/MOL
REMARK 927      BINDING AFFINITY PREDICTED BY RF-SCORE:    0.00 PKD
ROOT
HETATM    1  C   UNL     1      -7.236  10.614  66.556  1.00  0.00    -0.134 C  
HETATM    2  N   UNL     1      -6.564   9.286  66.364  1.00  0.00    -0.066 NA 
HETATM    3  C   UNL     1      -8.571  10.660  65.768  1.00  0.00    -0.186 C  
HETATM    4  C   UNL     1      -7.456   8.156  66.694  1.00  0.00    -0.089 C  
HETATM    5  C   UNL     1      -8.715   9.391  64.907  1.00  0.00    -0.220 C  
HETATM    6  C   UNL     1      -7.467   9.193  64.009  1.00  0.00    -0.110 C  
HETATM    7  C   UNL     1      -8.768   8.212  65.898  1.00  0.00    -0.184 C  
HETATM    8  C   UNL     1      -6.210   9.166  64.921  1.00  0.00    -0.066 C  
ENDROOT
BRANCH   1   9
HETATM    9  C   UNL     1      -7.354  11.086  68.054  1.00  0.00    -0.088 C  
HETATM   10  O   UNL     1      -6.612  10.291  68.987  1.00  0.00    -0.050 OA 
HETATM   11  H   UNL     1      -6.683  10.574  69.890  1.00  0.00     0.000 HD 
BRANCH   9  12
HETATM   12  C   UNL     1      -8.808  11.127  68.521  1.00  0.00    -0.161 A  
HETATM   13  N   UNL     1     -11.501  11.033  69.315  1.00  0.00    -0.272 NA 
HETATM   14  C   UNL     1      -9.321  10.041  69.248  1.00  0.00    -0.224 A  
HETATM   15  C   UNL     1     -11.024  12.096  68.647  1.00  0.00    -0.245 A  
HETATM   16  C   UNL     1     -11.912  13.125  68.376  1.00  0.00    -0.324 A  
HETATM   17  C   UNL     1     -10.649  10.039  69.610  1.00  0.00    -0.252 A  
HETATM   18  C   UNL     1     -11.524  14.280  67.691  1.00  0.00    -0.370 A  
HETATM   19  C   UNL     1      -9.684  12.206  68.210  1.00  0.00    -0.216 A  
HETATM   20  C   UNL     1     -10.214  14.409  67.250  1.00  0.00    -0.252 A  
HETATM   21  C   UNL     1      -9.309  13.376  67.504  1.00  0.00    -0.218 A  
BRANCH  20  22
HETATM   22  O   UNL     1      -9.693  15.476  66.575  1.00  0.00    -0.243 OA 
HETATM   23  C   UNL     1     -10.614  16.311  65.880  1.00  0.00    -0.297 C  
ENDBRANCH  20  22
ENDBRANCH   9  12
ENDBRANCH   1   9
BRANCH   6  24
HETATM   24  C   UNL     1      -7.350  10.242  62.928  1.00  0.00    -0.136 C  
HETATM   25  C   UNL     1      -8.395  10.852  62.355  1.00  0.00    -0.293 C  
ENDBRANCH   6  24
TORSDOF 4
ENDMDL
MODEL      204
REMARK 921   NORMALIZED FREE ENERGY PREDICTED BY IDOCK:   -3.49 KCAL/MOL
REMARK 922        TOTAL FREE ENERGY PREDICTED BY IDOCK:   -5.09 KCAL/MOL
REMARK 923 INTER-LIGAND FREE ENERGY PREDICTED BY IDOCK:   -4.24 KCAL/MOL
REMARK 924 INTRA-LIGAND FREE ENERGY PREDICTED BY IDOCK:   -0.84 KCAL/MOL
REMARK 927      BINDING AFFINITY PREDICTED BY RF-SCORE:    0.00 PKD
ROOT
HETATM    1  C   UNL     1      -9.513   7.388  70.232  1.00  0.00    -0.165 C  
HETATM    2  N   UNL     1      -9.573   8.554  71.176  1.00  0.00    -0.177 NA 
HETATM    3  C   UNL     1      -9.734   6.062  71.003  1.00  0.00    -0.208 C  
HETATM    4  C   UNL     1     -10.814   8.563  71.975  1.00  0.00    -0.335 C  
HETATM    5  C   UNL     1      -9.786   6.337  72.517  1.00  0.00    -0.177 C  
HETATM    6  C   UNL     1      -8.532   7.124  72.975  1.00  0.00    -0.142 C  
HETATM    7  C   UNL     1     -11.012   7.245  72.739  1.00  0.00    -0.366 C  
HETATM    8  C   UNL     1      -8.433   8.421  72.127  1.00  0.00    -0.181 C  
ENDROOT
BRANCH   1   9
HETATM    9  C   UNL     1     -10.399   7.538  68.939  1.00  0.00    -0.211 C  
HETATM   10  O   UNL     1     -11.619   6.786  68.963  1.00  0.00    -0.587 OA 
HETATM   11  H   UNL     1     -12.153   6.876  68.183  1.00  0.00     0.000 HD 
BRANCH   9  12
HETATM   12  C   UNL     1      -9.630   7.150  67.678  1.00  0.00    -0.152 A  
HETATM   13  N   UNL     1      -8.172   6.277  65.441  1.00  0.00    -0.138 NA 
HETATM   14  C   UNL     1      -9.823   5.872  67.129  1.00  0.00    -0.162 A  
HETATM   15  C   UNL     1      -7.993   7.515  65.930  1.00  0.00    -0.117 A  
HETATM   16  C   UNL     1      -7.070   8.325  65.287  1.00  0.00    -0.074 A  
HETATM   17  C   UNL     1      -9.081   5.488  66.035  1.00  0.00    -0.156 A  
HETATM   18  C   UNL     1      -6.807   9.632  65.708  1.00  0.00    -0.093 A  
HETATM   19  C   UNL     1      -8.685   8.016  67.057  1.00  0.00    -0.132 A  
HETATM   20  C   UNL     1      -7.474  10.144  66.812  1.00  0.00    -0.104 A  
HETATM   21  C   UNL     1      -8.397   9.337  67.480  1.00  0.00    -0.119 A  
BRANCH  20  22
HETATM   22  O   UNL     1      -7.322  11.398  67.334  1.00  0.00    -0.104 OA 
HETATM   23  C   UNL     1      -8.406  12.304  67.158  1.00  0.00    -0.183 C  
ENDBRANCH  20  22
ENDBRANCH   9  12
ENDBRANCH   1   9
BRANCH   6  24
HETATM   24  C   UNL     1      -7.265   6.305  72.893  1.00  0.00    -0.080 C  
HETATM   25  C   UNL     1      -6.846   5.467  73.850  1.00  0.00    -0.081 C  
ENDBRANCH   6  24
TORSDOF 4
ENDMDL
MODEL      205
REMARK 921   NORMALIZED FREE ENERGY PREDICTED BY IDOCK:   -3.44 KCAL/MOL
REMARK 922        TOTAL FREE ENERGY PREDICTED BY IDOCK:   -5.03 KCAL/MOL
REMARK 923 INTER-LIGAND FREE ENERGY PREDICTED BY IDOCK:   -5.67 KCAL/MOL
REMARK 924 INTRA-LIGAND FREE ENERGY PREDICTED BY IDOCK:    0.64 KCAL/MOL
REMARK 927      BINDING AFFINITY PREDICTED BY RF-SCORE:    0.00 PKD
ROOT
HETATM    1  C   UNL     1      -9.015   7.922  68.891  1.00  0.00    -0.141 C  
HETATM    2  N   UNL     1     -10.502   7.804  68.717  1.00  0.00    -0.202 NA 
HETATM    3  C   UNL     1      -8.317   6.612  68.444  1.00  0.00    -0.122 C  
HETATM    4  C   UNL     1     -10.874   7.403  67.346  1.00  0.00    -0.229 C  
HETATM    5  C   UNL     1      -9.373   5.542  68.112  1.00  0.00    -0.123 C  
HETATM    6  C   UNL     1     -10.354   5.353  69.297  1.00  0.00    -0.322 C  
HETATM    7  C   UNL     1     -10.181   6.099  66.924  1.00  0.00    -0.263 C  
HETATM    8  C   UNL     1     -10.978   6.734  69.638  1.00  0.00    -0.288 C  
ENDROOT
BRANCH   1   9
HETATM    9  C   UNL     1      -8.380   9.230  68.286  1.00  0.00    -0.120 C  
HETATM   10  O   UNL     1      -8.968  10.449  68.758  1.00  0.00    -0.141 OA 
HETATM   11  H   UNL     1      -8.586  11.238  68.393  1.00  0.00     0.000 HD 
BRANCH   9  12
HETATM   12  C   UNL     1      -8.441   9.236  66.760  1.00  0.00    -0.129 A  
HETATM   13  N   UNL     1      -8.372   9.267  63.952  1.00  0.00    -0.169 NA 
HETATM   14  C   UNL     1      -7.535   8.441  66.040  1.00  0.00    -0.084 A  
HETATM   15  C   UNL     1      -9.267  10.013  64.620  1.00  0.00    -0.258 A  
HETATM   16  C   UNL     1     -10.140  10.783  63.867  1.00  0.00    -0.397 A  
HETATM   17  C   UNL     1      -7.536   8.495  64.664  1.00  0.00    -0.102 A  
HETATM   18  C   UNL     1     -11.115  11.593  64.457  1.00  0.00    -0.365 A  
HETATM   19  C   UNL     1      -9.352  10.051  66.031  1.00  0.00    -0.224 A  
HETATM   20  C   UNL     1     -11.216  11.648  65.840  1.00  0.00    -0.238 A  
HETATM   21  C   UNL     1     -10.336  10.888  66.614  1.00  0.00    -0.289 A  
BRANCH  20  22
HETATM   22  O   UNL     1     -12.117  12.388  66.553  1.00  0.00    -0.599 OA 
HETATM   23  C   UNL     1     -11.588  13.385  67.420  1.00  0.00    -0.354 C  
ENDBRANCH  20  22
ENDBRANCH   9  12
ENDBRANCH   1   9
BRANCH   6  24
HETATM   24  C   UNL     1      -9.700   4.722  70.505  1.00  0.00    -0.281 C  
HETATM   25  C   UNL     1      -9.404   3.421  70.606  1.00  0.00    -0.232 C  
ENDBRANCH   6  24
TORSDOF 4
ENDMDL
MODEL      206
REMARK 921   NORMALIZED FREE ENERGY PREDICTED BY IDOCK:   -3.42 KCAL/MOL
REMARK 922        TOTAL FREE ENERGY PREDICTED BY IDOCK:   -5.01 KCAL/MOL
REMARK 923 INTER-LIGAND FREE ENERGY PREDICTED BY IDOCK:   -4.48 KCAL/MOL
REMARK 924 INTRA-LIGAND FREE ENERGY PREDICTED BY IDOCK:   -0.53 KCAL/MOL
REMARK 927      BINDING AFFINITY PREDICTED BY RF-SCORE:    0.00 PKD
ROOT
HETATM    1  C   UNL     1      -9.920   5.997  68.484  1.00  0.00    -0.142 C  
HETATM    2  N   UNL     1      -8.720   5.096  68.453  1.00  0.00    -0.101 NA 
HETATM    3  C   UNL     1     -10.608   6.023  67.096  1.00  0.00    -0.374 C  
HETATM    4  C   UNL     1      -9.050   3.744  67.960  1.00  0.00    -0.144 C  
HETATM    5  C   UNL     1      -9.759   5.244  66.075  1.00  0.00    -0.159 C  
HETATM    6  C   UNL     1      -8.301   5.770  66.059  1.00  0.00    -0.126 C  
HETATM    7  C   UNL     1      -9.722   3.788  66.579  1.00  0.00    -0.147 C  
HETATM    8  C   UNL     1      -7.737   5.689  67.503  1.00  0.00    -0.097 C  
ENDROOT
BRANCH   1   9
HETATM    9  C   UNL     1     -10.905   5.748  69.688  1.00  0.00    -0.348 C  
HETATM   10  O   UNL     1     -11.869   6.787  69.893  1.00  0.00    -0.622 OA 
HETATM   11  H   UNL     1     -12.463   6.637  70.618  1.00  0.00     0.000 HD 
BRANCH   9  12
HETATM   12  C   UNL     1     -10.151   5.538  71.001  1.00  0.00    -0.271 A  
HETATM   13  N   UNL     1      -8.926   5.102  73.491  1.00  0.00    -0.118 NA 
HETATM   14  C   UNL     1     -10.372   4.358  71.730  1.00  0.00    -0.141 A  
HETATM   15  C   UNL     1      -8.678   6.224  72.795  1.00  0.00    -0.126 A  
HETATM   16  C   UNL     1      -7.801   7.139  73.358  1.00  0.00    -0.112 A  
HETATM   17  C   UNL     1      -9.752   4.194  72.948  1.00  0.00    -0.132 A  
HETATM   18  C   UNL     1      -7.467   8.337  72.721  1.00  0.00    -0.152 A  
HETATM   19  C   UNL     1      -9.266   6.512  71.542  1.00  0.00    -0.144 A  
HETATM   20  C   UNL     1      -8.033   8.641  71.491  1.00  0.00    -0.136 A  
HETATM   21  C   UNL     1      -8.928   7.737  70.915  1.00  0.00    -0.148 A  
BRANCH  20  22
HETATM   22  O   UNL     1      -7.799   9.767  70.754  1.00  0.00    -0.304 OA 
HETATM   23  C   UNL     1      -8.598   9.953  69.590  1.00  0.00    -0.194 C  
ENDBRANCH  20  22
ENDBRANCH   9  12
ENDBRANCH   1   9
BRANCH   6  24
HETATM   24  C   UNL     1      -8.189   7.167  65.494  1.00  0.00    -0.139 C  
HETATM   25  C   UNL     1      -7.792   8.234  66.198  1.00  0.00    -0.098 C  
ENDBRANCH   6  24
TORSDOF 4
ENDMDL
MODEL      207
REMARK 921   NORMALIZED FREE ENERGY PREDICTED BY IDOCK:   -3.41 KCAL/MOL
REMARK 922        TOTAL FREE ENERGY PREDICTED BY IDOCK:   -4.99 KCAL/MOL
REMARK 923 INTER-LIGAND FREE ENERGY PREDICTED BY IDOCK:   -4.51 KCAL/MOL
REMARK 924 INTRA-LIGAND FREE ENERGY PREDICTED BY IDOCK:   -0.49 KCAL/MOL
REMARK 927      BINDING AFFINITY PREDICTED BY RF-SCORE:    0.00 PKD
ROOT
HETATM    1  C   UNL     1      -9.870  10.026  67.399  1.00  0.00    -0.185 C  
HETATM    2  N   UNL     1      -8.923  10.721  66.464  1.00  0.00    -0.153 NA 
HETATM    3  C   UNL     1     -11.255  10.722  67.375  1.00  0.00    -0.315 C  
HETATM    4  C   UNL     1      -9.472  10.841  65.099  1.00  0.00    -0.226 C  
HETATM    5  C   UNL     1     -11.183  12.002  66.523  1.00  0.00    -0.387 C  
HETATM    6  C   UNL     1     -10.033  12.920  67.008  1.00  0.00    -0.244 C  
HETATM    7  C   UNL     1     -10.840  11.541  65.094  1.00  0.00    -0.326 C  
HETATM    8  C   UNL     1      -8.713  12.102  66.983  1.00  0.00    -0.190 C  
ENDROOT
BRANCH   1   9
HETATM    9  C   UNL     1      -9.931   8.460  67.236  1.00  0.00    -0.227 C  
HETATM   10  O   UNL     1     -11.255   7.913  67.251  1.00  0.00    -0.421 OA 
HETATM   11  H   UNL     1     -11.292   6.969  67.153  1.00  0.00     0.000 HD 
BRANCH   9  12
HETATM   12  C   UNL     1      -9.112   7.747  68.311  1.00  0.00    -0.130 A  
HETATM   13  N   UNL     1      -7.480   6.567  70.269  1.00  0.00    -0.092 NA 
HETATM   14  C   UNL     1      -8.570   8.501  69.364  1.00  0.00    -0.128 A  
HETATM   15  C   UNL     1      -8.014   5.823  69.287  1.00  0.00    -0.101 A  
HETATM   16  C   UNL     1      -7.724   4.467  69.290  1.00  0.00    -0.055 A  
HETATM   17  C   UNL     1      -7.771   7.878  70.297  1.00  0.00    -0.088 A  
HETATM   18  C   UNL     1      -8.229   3.597  68.319  1.00  0.00    -0.091 A  
HETATM   19  C   UNL     1      -8.836   6.352  68.266  1.00  0.00    -0.115 A  
HETATM   20  C   UNL     1      -9.036   4.094  67.306  1.00  0.00    -0.144 A  
HETATM   21  C   UNL     1      -9.328   5.460  67.280  1.00  0.00    -0.118 A  
BRANCH  20  22
HETATM   22  O   UNL     1      -9.601   3.367  66.297  1.00  0.00    -0.150 OA 
HETATM   23  C   UNL     1      -9.120   3.612  64.979  1.00  0.00    -0.142 C  
ENDBRANCH  20  22
ENDBRANCH   9  12
ENDBRANCH   1   9
BRANCH   6  24
HETATM   24  C   UNL     1     -10.294  13.516  68.372  1.00  0.00    -0.249 C  
HETATM   25  C   UNL     1      -9.996  14.776  68.712  1.00  0.00    -0.234 C  
ENDBRANCH   6  24
TORSDOF 4
ENDMDL
MODEL      208
REMARK 921   NORMALIZED FREE ENERGY PREDICTED BY IDOCK:   -3.33 KCAL/MOL
REMARK 922        TOTAL FREE ENERGY PREDICTED BY IDOCK:   -4.90 KCAL/MOL
REMARK 923 INTER-LIGAND FREE ENERGY PREDICTED BY IDOCK:   -4.43 KCAL/MOL
REMARK 924 INTRA-LIGAND FREE ENERGY PREDICTED BY IDOCK:   -0.47 KCAL/MOL
REMARK 927      BINDING AFFINITY PREDICTED BY RF-SCORE:    0.00 PKD
ROOT
HETATM    1  C   UNL     1      -9.472  11.781  66.976  1.00  0.00    -0.185 C  
HETATM    2  N   UNL     1     -10.787  11.098  66.733  1.00  0.00    -0.274 NA 
HETATM    3  C   UNL     1      -9.665  12.998  67.916  1.00  0.00    -0.218 C  
HETATM    4  C   UNL     1     -11.471  10.739  67.991  1.00  0.00    -0.256 C  
HETATM    5  C   UNL     1     -11.165  13.224  68.180  1.00  0.00    -0.302 C  
HETATM    6  C   UNL     1     -11.946  13.336  66.846  1.00  0.00    -0.430 C  
HETATM    7  C   UNL     1     -11.662  11.959  68.905  1.00  0.00    -0.381 C  
HETATM    8  C   UNL     1     -11.665  12.060  66.008  1.00  0.00    -0.241 C  
ENDROOT
BRANCH   1   9
HETATM    9  C   UNL     1      -8.296  10.821  67.395  1.00  0.00    -0.119 C  
HETATM   10  O   UNL     1      -7.209  11.471  68.065  1.00  0.00    -0.078 OA 
HETATM   11  H   UNL     1      -6.499  10.893  68.318  1.00  0.00     0.000 HD 
BRANCH   9  12
HETATM   12  C   UNL     1      -7.728  10.065  66.196  1.00  0.00    -0.108 A  
HETATM   13  N   UNL     1      -6.739   8.812  63.884  1.00  0.00    -0.086 NA 
HETATM   14  C   UNL     1      -6.928  10.757  65.272  1.00  0.00     0.116 A  
HETATM   15  C   UNL     1      -7.477   8.124  64.770  1.00  0.00    -0.094 A  
HETATM   16  C   UNL     1      -7.721   6.788  64.490  1.00  0.00    -0.113 A  
HETATM   17  C   UNL     1      -6.472  10.101  64.151  1.00  0.00    -0.119 A  
HETATM   18  C   UNL     1      -8.472   5.975  65.344  1.00  0.00    -0.145 A  
HETATM   19  C   UNL     1      -8.013   8.692  65.948  1.00  0.00    -0.105 A  
HETATM   20  C   UNL     1      -9.010   6.512  66.506  1.00  0.00    -0.143 A  
HETATM   21  C   UNL     1      -8.785   7.860  66.796  1.00  0.00    -0.143 A  
BRANCH  20  22
HETATM   22  O   UNL     1      -9.758   5.841  67.431  1.00  0.00    -0.115 OA 
HETATM   23  C   UNL     1      -9.826   4.425  67.301  1.00  0.00    -0.162 C  
ENDBRANCH  20  22
ENDBRANCH   9  12
ENDBRANCH   1   9
BRANCH   6  24
HETATM   24  C   UNL     1     -11.615  14.594  66.077  1.00  0.00    -0.328 C  
HETATM   25  C   UNL     1     -10.456  14.804  65.441  1.00  0.00    -0.401 C  
ENDBRANCH   6  24
TORSDOF 4
ENDMDL
MODEL      209
REMARK 921   NORMALIZED FREE ENERGY PREDICTED BY IDOCK:   -3.33 KCAL/MOL
REMARK 922        TOTAL FREE ENERGY PREDICTED BY IDOCK:   -4.90 KCAL/MOL
REMARK 923 INTER-LIGAND FREE ENERGY PREDICTED BY IDOCK:   -4.23 KCAL/MOL
REMARK 924 INTRA-LIGAND FREE ENERGY PREDICTED BY IDOCK:   -0.67 KCAL/MOL
REMARK 927      BINDING AFFINITY PREDICTED BY RF-SCORE:    0.00 PKD
ROOT
HETATM    1  C   UNL     1     -10.449   7.500  66.884  1.00  0.00    -0.315 C  
HETATM    2  N   UNL     1     -10.504   8.752  67.710  1.00  0.00    -0.241 NA 
HETATM    3  C   UNL     1      -9.113   7.432  66.101  1.00  0.00    -0.167 C  
HETATM    4  C   UNL     1      -9.325   8.895  68.587  1.00  0.00    -0.140 C  
HETATM    5  C   UNL     1      -8.329   8.744  66.287  1.00  0.00    -0.120 C  
HETATM    6  C   UNL     1      -9.208   9.966  65.919  1.00  0.00    -0.223 C  
HETATM    7  C   UNL     1      -8.012   8.835  67.793  1.00  0.00    -0.106 C  
HETATM    8  C   UNL     1     -10.504   9.910  66.772  1.00  0.00    -0.191 C  
ENDROOT
BRANCH   1   9
HETATM    9  C   UNL     1     -10.809   6.178  67.661  1.00  0.00    -0.332 C  
HETATM   10  O   UNL     1     -11.538   6.384  68.878  1.00  0.00    -0.576 OA 
HETATM   11  H   UNL     1     -11.755   5.587  69.347  1.00  0.00     0.000 HD 
BRANCH   9  12
HETATM   12  C   UNL     1      -9.562   5.358  67.991  1.00  0.00    -0.153 A  
HETATM   13  N   UNL     1      -7.184   4.009  68.632  1.00  0.00    -0.054 NA 
HETATM   14  C   UNL     1      -8.849   5.647  69.165  1.00  0.00    -0.111 A  
HETATM   15  C   UNL     1      -7.866   3.696  67.518  1.00  0.00    -0.078 A  
HETATM   16  C   UNL     1      -7.347   2.690  66.717  1.00  0.00    -0.069 A  
HETATM   17  C   UNL     1      -7.686   4.962  69.433  1.00  0.00    -0.067 A  
HETATM   18  C   UNL     1      -7.976   2.280  65.538  1.00  0.00    -0.078 A  
HETATM   19  C   UNL     1      -9.064   4.339  67.131  1.00  0.00    -0.150 A  
HETATM   20  C   UNL     1      -9.152   2.898  65.137  1.00  0.00    -0.148 A  
HETATM   21  C   UNL     1      -9.682   3.922  65.926  1.00  0.00    -0.168 A  
BRANCH  20  22
HETATM   22  O   UNL     1      -9.876   2.602  64.017  1.00  0.00    -0.145 OA 
HETATM   23  C   UNL     1     -11.019   3.410  63.756  1.00  0.00    -0.059 C  
ENDBRANCH  20  22
ENDBRANCH   9  12
ENDBRANCH   1   9
BRANCH   6  24
HETATM   24  C   UNL     1      -9.515  10.043  64.441  1.00  0.00    -0.349 C  
HETATM   25  C   UNL     1      -8.675  10.536  63.523  1.00  0.00    -0.187 C  
ENDBRANCH   6  24
TORSDOF 4
ENDMDL
MODEL      210
REMARK 921   NORMALIZED FREE ENERGY PREDICTED BY IDOCK:   -3.30 KCAL/MOL
REMARK 922        TOTAL FREE ENERGY PREDICTED BY IDOCK:   -4.86 KCAL/MOL
REMARK 923 INTER-LIGAND FREE ENERGY PREDICTED BY IDOCK:   -4.46 KCAL/MOL
REMARK 924 INTRA-LIGAND FREE ENERGY PREDICTED BY IDOCK:   -0.41 KCAL/MOL
REMARK 927      BINDING AFFINITY PREDICTED BY RF-SCORE:    0.00 PKD
ROOT
HETATM    1  C   UNL     1     -10.207   7.615  69.148  1.00  0.00    -0.203 C  
HETATM    2  N   UNL     1     -10.796   8.480  70.224  1.00  0.00    -0.238 NA 
HETATM    3  C   UNL     1      -9.962   6.182  69.684  1.00  0.00    -0.210 C  
HETATM    4  C   UNL     1     -12.009   7.882  70.818  1.00  0.00    -0.131 C  
HETATM    5  C   UNL     1     -10.250   6.131  71.196  1.00  0.00    -0.245 C  
HETATM    6  C   UNL     1      -9.444   7.223  71.944  1.00  0.00    -0.163 C  
HETATM    7  C   UNL     1     -11.746   6.466  71.353  1.00  0.00    -0.364 C  
HETATM    8  C   UNL     1      -9.782   8.600  71.310  1.00  0.00    -0.237 C  
ENDROOT
BRANCH   1   9
HETATM    9  C   UNL     1     -10.965   7.668  67.768  1.00  0.00     0.049 C  
HETATM   10  O   UNL     1     -11.494   6.409  67.333  1.00  0.00    -0.705 OA 
HETATM   11  H   UNL     1     -11.951   6.441  66.501  1.00  0.00     0.000 HD 
BRANCH   9  12
HETATM   12  C   UNL     1     -10.074   8.216  66.654  1.00  0.00    -0.344 A  
HETATM   13  N   UNL     1      -8.583   9.318  64.544  1.00  0.00    -0.189 NA 
HETATM   14  C   UNL     1     -10.093   9.594  66.385  1.00  0.00    -0.317 A  
HETATM   15  C   UNL     1      -8.527   8.002  64.803  1.00  0.00    -0.019 A  
HETATM   16  C   UNL     1      -7.711   7.229  63.992  1.00  0.00    -0.120 A  
HETATM   17  C   UNL     1      -9.348  10.086  65.337  1.00  0.00    -0.229 A  
HETATM   18  C   UNL     1      -7.574   5.850  64.174  1.00  0.00    -0.085 A  
HETATM   19  C   UNL     1      -9.257   7.379  65.842  1.00  0.00    -0.022 A  
HETATM   20  C   UNL     1      -8.282   5.217  65.186  1.00  0.00    -0.135 A  
HETATM   21  C   UNL     1      -9.119   5.979  66.004  1.00  0.00    -0.143 A  
BRANCH  20  22
HETATM   22  O   UNL     1      -8.245   3.884  65.482  1.00  0.00    -0.103 OA 
HETATM   23  C   UNL     1      -9.343   3.358  66.220  1.00  0.00    -0.145 C  
ENDBRANCH  20  22
ENDBRANCH   9  12
ENDBRANCH   1   9
BRANCH   6  24
HETATM   24  C   UNL     1      -7.956   6.958  71.943  1.00  0.00    -0.099 C  
HETATM   25  C   UNL     1      -7.035   7.844  71.545  1.00  0.00    -0.060 C  
ENDBRANCH   6  24
TORSDOF 4
ENDMDL
MODEL      211
REMARK 921   NORMALIZED FREE ENERGY PREDICTED BY IDOCK:   -3.29 KCAL/MOL
REMARK 922        TOTAL FREE ENERGY PREDICTED BY IDOCK:   -4.85 KCAL/MOL
REMARK 923 INTER-LIGAND FREE ENERGY PREDICTED BY IDOCK:   -3.98 KCAL/MOL
REMARK 924 INTRA-LIGAND FREE ENERGY PREDICTED BY IDOCK:   -0.87 KCAL/MOL
REMARK 927      BINDING AFFINITY PREDICTED BY RF-SCORE:    0.00 PKD
ROOT
HETATM    1  C   UNL     1      -8.809   9.060  66.976  1.00  0.00    -0.119 C  
HETATM    2  N   UNL     1      -9.738   9.883  67.821  1.00  0.00    -0.148 NA 
HETATM    3  C   UNL     1      -7.775   9.974  66.271  1.00  0.00    -0.105 C  
HETATM    4  C   UNL     1      -9.011  10.752  68.768  1.00  0.00    -0.170 C  
HETATM    5  C   UNL     1      -8.120  11.452  66.527  1.00  0.00    -0.141 C  
HETATM    6  C   UNL     1      -9.588  11.750  66.131  1.00  0.00    -0.250 C  
HETATM    7  C   UNL     1      -7.997  11.656  68.050  1.00  0.00    -0.132 C  
HETATM    8  C   UNL     1     -10.510  10.770  66.906  1.00  0.00    -0.252 C  
ENDROOT
BRANCH   1   9
HETATM    9  C   UNL     1      -8.179   7.815  67.706  1.00  0.00    -0.126 C  
HETATM   10  O   UNL     1      -7.698   6.791  66.827  1.00  0.00    -0.101 OA 
HETATM   11  H   UNL     1      -7.318   6.040  67.267  1.00  0.00     0.000 HD 
BRANCH   9  12
HETATM   12  C   UNL     1      -9.162   7.175  68.684  1.00  0.00    -0.135 A  
HETATM   13  N   UNL     1     -11.106   6.083  70.393  1.00  0.00    -0.334 NA 
HETATM   14  C   UNL     1     -10.316   6.554  68.180  1.00  0.00    -0.223 A  
HETATM   15  C   UNL     1      -9.995   6.645  70.896  1.00  0.00    -0.187 A  
HETATM   16  C   UNL     1      -9.859   6.657  72.275  1.00  0.00    -0.162 A  
HETATM   17  C   UNL     1     -11.243   6.038  69.058  1.00  0.00    -0.228 A  
HETATM   18  C   UNL     1      -8.742   7.212  72.906  1.00  0.00    -0.144 A  
HETATM   19  C   UNL     1      -8.982   7.221  70.096  1.00  0.00    -0.148 A  
HETATM   20  C   UNL     1      -7.735   7.784  72.142  1.00  0.00    -0.094 A  
HETATM   21  C   UNL     1      -7.863   7.792  70.751  1.00  0.00    -0.099 A  
BRANCH  20  22
HETATM   22  O   UNL     1      -6.591   8.358  72.618  1.00  0.00    -0.090 OA 
HETATM   23  C   UNL     1      -6.393   8.329  74.027  1.00  0.00    -0.123 C  
ENDBRANCH  20  22
ENDBRANCH   9  12
ENDBRANCH   1   9
BRANCH   6  24
HETATM   24  C   UNL     1      -9.820  11.674  64.640  1.00  0.00    -0.259 C  
HETATM   25  C   UNL     1     -10.736  10.889  64.060  1.00  0.00    -0.208 C  
ENDBRANCH   6  24
TORSDOF 4
ENDMDL
MODEL      212
REMARK 921   NORMALIZED FREE ENERGY PREDICTED BY IDOCK:   -3.29 KCAL/MOL
REMARK 922        TOTAL FREE ENERGY PREDICTED BY IDOCK:   -4.85 KCAL/MOL
REMARK 923 INTER-LIGAND FREE ENERGY PREDICTED BY IDOCK:   -5.65 KCAL/MOL
REMARK 924 INTRA-LIGAND FREE ENERGY PREDICTED BY IDOCK:    0.80 KCAL/MOL
REMARK 927      BINDING AFFINITY PREDICTED BY RF-SCORE:    0.00 PKD
ROOT
HETATM    1  C   UNL     1     -10.373   8.870  66.662  1.00  0.00    -0.223 C  
HETATM    2  N   UNL     1     -10.380  10.070  67.563  1.00  0.00    -0.215 NA 
HETATM    3  C   UNL     1      -9.340   9.061  65.522  1.00  0.00    -0.255 C  
HETATM    4  C   UNL     1      -9.032  10.398  68.069  1.00  0.00    -0.129 C  
HETATM    5  C   UNL     1      -8.758  10.485  65.575  1.00  0.00    -0.197 C  
HETATM    6  C   UNL     1      -9.892  11.541  65.572  1.00  0.00    -0.269 C  
HETATM    7  C   UNL     1      -8.024  10.592  66.925  1.00  0.00    -0.124 C  
HETATM    8  C   UNL     1     -10.847  11.234  66.757  1.00  0.00    -0.282 C  
ENDROOT
BRANCH   1   9
HETATM    9  C   UNL     1     -10.265   7.485  67.406  1.00  0.00    -0.249 C  
HETATM   10  O   UNL     1     -11.518   6.952  67.852  1.00  0.00    -0.538 OA 
HETATM   11  H   UNL     1     -11.453   6.117  68.301  1.00  0.00     0.000 HD 
BRANCH   9  12
HETATM   12  C   UNL     1      -9.328   7.561  68.610  1.00  0.00    -0.143 A  
HETATM   13  N   UNL     1      -7.537   7.538  70.774  1.00  0.00    -0.080 NA 
HETATM   14  C   UNL     1      -7.967   7.267  68.432  1.00  0.00    -0.124 A  
HETATM   15  C   UNL     1      -8.829   7.851  70.962  1.00  0.00    -0.141 A  
HETATM   16  C   UNL     1      -9.227   8.158  72.254  1.00  0.00    -0.266 A  
HETATM   17  C   UNL     1      -7.129   7.263  69.524  1.00  0.00    -0.074 A  
HETATM   18  C   UNL     1     -10.545   8.502  72.564  1.00  0.00    -0.308 A  
HETATM   19  C   UNL     1      -9.786   7.874  69.921  1.00  0.00    -0.176 A  
HETATM   20  C   UNL     1     -11.502   8.530  71.559  1.00  0.00    -0.287 A  
HETATM   21  C   UNL     1     -11.121   8.211  70.253  1.00  0.00    -0.221 A  
BRANCH  20  22
HETATM   22  O   UNL     1     -12.821   8.850  71.712  1.00  0.00    -0.324 OA 
HETATM   23  C   UNL     1     -13.175  10.219  71.546  1.00  0.00    -0.386 C  
ENDBRANCH  20  22
ENDBRANCH   9  12
ENDBRANCH   1   9
BRANCH   6  24
HETATM   24  C   UNL     1     -10.635  11.601  64.258  1.00  0.00    -0.394 C  
HETATM   25  C   UNL     1     -11.967  11.669  64.149  1.00  0.00    -0.238 C  
ENDBRANCH   6  24
TORSDOF 4
ENDMDL
MODEL      213
REMARK 921   NORMALIZED FREE ENERGY PREDICTED BY IDOCK:   -3.27 KCAL/MOL
REMARK 922        TOTAL FREE ENERGY PREDICTED BY IDOCK:   -4.82 KCAL/MOL
REMARK 923 INTER-LIGAND FREE ENERGY PREDICTED BY IDOCK:   -4.20 KCAL/MOL
REMARK 924 INTRA-LIGAND FREE ENERGY PREDICTED BY IDOCK:   -0.61 KCAL/MOL
REMARK 927      BINDING AFFINITY PREDICTED BY RF-SCORE:    0.00 PKD
ROOT
HETATM    1  C   UNL     1      -8.532   5.002  68.583  1.00  0.00    -0.087 C  
HETATM    2  N   UNL     1      -8.962   6.304  67.972  1.00  0.00    -0.115 NA 
HETATM    3  C   UNL     1      -7.634   4.216  67.594  1.00  0.00    -0.069 C  
HETATM    4  C   UNL     1      -7.816   7.101  67.491  1.00  0.00    -0.112 C  
HETATM    5  C   UNL     1      -7.593   4.939  66.235  1.00  0.00    -0.087 C  
HETATM    6  C   UNL     1      -9.026   5.196  65.706  1.00  0.00    -0.152 C  
HETATM    7  C   UNL     1      -6.943   6.310  66.506  1.00  0.00    -0.067 C  
HETATM    8  C   UNL     1      -9.811   5.986  66.789  1.00  0.00    -0.163 C  
ENDROOT
BRANCH   1   9
HETATM    9  C   UNL     1      -7.942   5.117  70.039  1.00  0.00    -0.082 C  
HETATM   10  O   UNL     1      -6.981   4.108  70.372  1.00  0.00    -0.033 OA 
HETATM   11  H   UNL     1      -6.625   4.177  71.250  1.00  0.00     0.000 HD 
BRANCH   9  12
HETATM   12  C   UNL     1      -9.042   5.090  71.098  1.00  0.00    -0.177 A  
HETATM   13  N   UNL     1     -11.134   4.893  72.963  1.00  0.00    -0.284 NA 
HETATM   14  C   UNL     1      -9.357   3.872  71.721  1.00  0.00    -0.197 A  
HETATM   15  C   UNL     1     -10.830   6.075  72.402  1.00  0.00    -0.247 A  
HETATM   16  C   UNL     1     -11.586   7.172  72.784  1.00  0.00    -0.180 A  
HETATM   17  C   UNL     1     -10.394   3.825  72.625  1.00  0.00    -0.151 A  
HETATM   18  C   UNL     1     -11.355   8.450  72.267  1.00  0.00    -0.448 A  
HETATM   19  C   UNL     1      -9.797   6.244  71.451  1.00  0.00    -0.195 A  
HETATM   20  C   UNL     1     -10.348   8.640  71.332  1.00  0.00    -0.261 A  
HETATM   21  C   UNL     1      -9.584   7.543  70.926  1.00  0.00    -0.165 A  
BRANCH  20  22
HETATM   22  O   UNL     1     -10.006   9.826  70.746  1.00  0.00    -0.241 OA 
HETATM   23  C   UNL     1     -10.619  10.127  69.497  1.00  0.00    -0.245 C  
ENDBRANCH  20  22
ENDBRANCH   9  12
ENDBRANCH   1   9
BRANCH   6  24
HETATM   24  C   UNL     1      -9.743   3.924  65.314  1.00  0.00    -0.187 C  
HETATM   25  C   UNL     1     -10.386   3.750  64.153  1.00  0.00    -0.260 C  
ENDBRANCH   6  24
TORSDOF 4
ENDMDL
MODEL      214
REMARK 921   NORMALIZED FREE ENERGY PREDICTED BY IDOCK:   -3.25 KCAL/MOL
REMARK 922        TOTAL FREE ENERGY PREDICTED BY IDOCK:   -4.80 KCAL/MOL
REMARK 923 INTER-LIGAND FREE ENERGY PREDICTED BY IDOCK:   -3.91 KCAL/MOL
REMARK 924 INTRA-LIGAND FREE ENERGY PREDICTED BY IDOCK:   -0.89 KCAL/MOL
REMARK 927      BINDING AFFINITY PREDICTED BY RF-SCORE:    0.00 PKD
ROOT
HETATM    1  C   UNL     1      -9.040   6.957  69.728  1.00  0.00    -0.144 C  
HETATM    2  N   UNL     1     -10.095   6.078  69.122  1.00  0.00    -0.167 NA 
HETATM    3  C   UNL     1      -8.953   6.714  71.257  1.00  0.00    -0.144 C  
HETATM    4  C   UNL     1      -9.898   4.654  69.460  1.00  0.00    -0.216 C  
HETATM    5  C   UNL     1     -10.082   5.767  71.703  1.00  0.00    -0.241 C  
HETATM    6  C   UNL     1     -11.460   6.297  71.232  1.00  0.00    -0.352 C  
HETATM    7  C   UNL     1      -9.824   4.432  70.978  1.00  0.00    -0.260 C  
HETATM    8  C   UNL     1     -11.408   6.493  69.693  1.00  0.00    -0.380 C  
ENDROOT
BRANCH   1   9
HETATM    9  C   UNL     1      -7.649   6.926  68.990  1.00  0.00    -0.104 C  
HETATM   10  O   UNL     1      -6.538   7.334  69.798  1.00  0.00    -0.038 OA 
HETATM   11  H   UNL     1      -5.699   7.316  69.353  1.00  0.00     0.000 HD 
BRANCH   9  12
HETATM   12  C   UNL     1      -7.658   7.789  67.730  1.00  0.00    -0.113 A  
HETATM   13  N   UNL     1      -7.805   9.480  65.491  1.00  0.00    -0.106 NA 
HETATM   14  C   UNL     1      -7.613   9.186  67.862  1.00  0.00    -0.085 A  
HETATM   15  C   UNL     1      -7.819   8.145  65.340  1.00  0.00    -0.115 A  
HETATM   16  C   UNL     1      -7.907   7.654  64.046  1.00  0.00    -0.127 A  
HETATM   17  C   UNL     1      -7.694   9.973  66.735  1.00  0.00    -0.103 A  
HETATM   18  C   UNL     1      -7.925   6.284  63.771  1.00  0.00    -0.088 A  
HETATM   19  C   UNL     1      -7.758   7.237  66.421  1.00  0.00    -0.093 A  
HETATM   20  C   UNL     1      -7.867   5.373  64.817  1.00  0.00    -0.103 A  
HETATM   21  C   UNL     1      -7.791   5.851  66.128  1.00  0.00    -0.104 A  
BRANCH  20  22
HETATM   22  O   UNL     1      -7.873   4.012  64.700  1.00  0.00    -0.083 OA 
HETATM   23  C   UNL     1      -6.689   3.327  65.095  1.00  0.00    -0.041 C  
ENDBRANCH  20  22
ENDBRANCH   9  12
ENDBRANCH   1   9
BRANCH   6  24
HETATM   24  C   UNL     1     -11.875   7.565  71.943  1.00  0.00    -0.331 C  
HETATM   25  C   UNL     1     -12.020   8.751  71.341  1.00  0.00    -0.367 C  
ENDBRANCH   6  24
TORSDOF 4
ENDMDL
MODEL      215
REMARK 921   NORMALIZED FREE ENERGY PREDICTED BY IDOCK:   -3.22 KCAL/MOL
REMARK 922        TOTAL FREE ENERGY PREDICTED BY IDOCK:   -4.75 KCAL/MOL
REMARK 923 INTER-LIGAND FREE ENERGY PREDICTED BY IDOCK:   -4.61 KCAL/MOL
REMARK 924 INTRA-LIGAND FREE ENERGY PREDICTED BY IDOCK:   -0.15 KCAL/MOL
REMARK 927      BINDING AFFINITY PREDICTED BY RF-SCORE:    0.00 PKD
ROOT
HETATM    1  C   UNL     1      -8.420   8.575  68.913  1.00  0.00    -0.123 C  
HETATM    2  N   UNL     1      -7.424   8.073  67.909  1.00  0.00    -0.092 NA 
HETATM    3  C   UNL     1      -9.861   8.226  68.460  1.00  0.00    -0.188 C  
HETATM    4  C   UNL     1      -7.595   6.635  67.622  1.00  0.00    -0.106 C  
HETATM    5  C   UNL     1      -9.833   7.617  67.046  1.00  0.00    -0.282 C  
HETATM    6  C   UNL     1      -9.077   8.546  66.063  1.00  0.00    -0.246 C  
HETATM    7  C   UNL     1      -9.026   6.310  67.166  1.00  0.00    -0.111 C  
HETATM    8  C   UNL     1      -7.658   8.811  66.636  1.00  0.00    -0.089 C  
ENDROOT
BRANCH   1   9
HETATM    9  C   UNL     1      -8.103   8.192  70.408  1.00  0.00    -0.108 C  
HETATM   10  O   UNL     1      -6.875   7.477  70.590  1.00  0.00    -0.046 OA 
HETATM   11  H   UNL     1      -6.683   7.246  71.491  1.00  0.00     0.000 HD 
BRANCH   9  12
HETATM   12  C   UNL     1      -9.227   7.366  71.031  1.00  0.00    -0.153 A  
HETATM   13  N   UNL     1     -11.268   5.722  72.043  1.00  0.00    -0.265 NA 
HETATM   14  C   UNL     1      -9.028   5.991  71.235  1.00  0.00    -0.139 A  
HETATM   15  C   UNL     1     -11.470   7.040  71.884  1.00  0.00    -0.268 A  
HETATM   16  C   UNL     1     -12.713   7.539  72.240  1.00  0.00    -0.070 A  
HETATM   17  C   UNL     1     -10.061   5.226  71.729  1.00  0.00    -0.200 A  
HETATM   18  C   UNL     1     -13.032   8.895  72.121  1.00  0.00    -0.473 A  
HETATM   19  C   UNL     1     -10.491   7.923  71.372  1.00  0.00    -0.242 A  
HETATM   20  C   UNL     1     -12.088   9.780  71.619  1.00  0.00    -0.394 A  
HETATM   21  C   UNL     1     -10.834   9.292  71.244  1.00  0.00    -0.417 A  
BRANCH  20  22
HETATM   22  O   UNL     1     -12.256  11.125  71.450  1.00  0.00    -0.264 OA 
HETATM   23  C   UNL     1     -12.988  11.544  70.303  1.00  0.00     0.259 C  
ENDBRANCH  20  22
ENDBRANCH   9  12
ENDBRANCH   1   9
BRANCH   6  24
HETATM   24  C   UNL     1      -9.817   9.835  65.787  1.00  0.00    -0.360 C  
HETATM   25  C   UNL     1      -9.290  11.054  65.945  1.00  0.00    -0.229 C  
ENDBRANCH   6  24
TORSDOF 4
ENDMDL
MODEL      216
REMARK 921   NORMALIZED FREE ENERGY PREDICTED BY IDOCK:   -3.21 KCAL/MOL
REMARK 922        TOTAL FREE ENERGY PREDICTED BY IDOCK:   -4.74 KCAL/MOL
REMARK 923 INTER-LIGAND FREE ENERGY PREDICTED BY IDOCK:   -4.00 KCAL/MOL
REMARK 924 INTRA-LIGAND FREE ENERGY PREDICTED BY IDOCK:   -0.74 KCAL/MOL
REMARK 927      BINDING AFFINITY PREDICTED BY RF-SCORE:    0.00 PKD
ROOT
HETATM    1  C   UNL     1      -9.327   7.867  66.879  1.00  0.00    -0.164 C  
HETATM    2  N   UNL     1      -8.433   8.498  67.906  1.00  0.00    -0.130 NA 
HETATM    3  C   UNL     1      -8.905   8.309  65.455  1.00  0.00    -0.152 C  
HETATM    4  C   UNL     1      -7.004   8.245  67.634  1.00  0.00    -0.079 C  
HETATM    5  C   UNL     1      -7.805   9.382  65.544  1.00  0.00    -0.103 C  
HETATM    6  C   UNL     1      -8.253  10.554  66.454  1.00  0.00    -0.140 C  
HETATM    7  C   UNL     1      -6.602   8.698  66.223  1.00  0.00    -0.062 C  
HETATM    8  C   UNL     1      -8.644   9.972  67.840  1.00  0.00    -0.121 C  
ENDROOT
BRANCH   1   9
HETATM    9  C   UNL     1      -9.524   6.312  67.040  1.00  0.00    -0.131 C  
HETATM   10  O   UNL     1     -10.360   5.713  66.042  1.00  0.00    -0.419 OA 
HETATM   11  H   UNL     1     -10.479   4.776  66.138  1.00  0.00     0.000 HD 
BRANCH   9  12
HETATM   12  C   UNL     1     -10.095   5.953  68.411  1.00  0.00    -0.206 A  
HETATM   13  N   UNL     1     -11.140   5.471  70.973  1.00  0.00    -0.127 NA 
HETATM   14  C   UNL     1     -11.182   6.689  68.909  1.00  0.00    -0.273 A  
HETATM   15  C   UNL     1     -10.120   4.735  70.504  1.00  0.00    -0.220 A  
HETATM   16  C   UNL     1      -9.619   3.744  71.333  1.00  0.00    -0.236 A  
HETATM   17  C   UNL     1     -11.655   6.419  70.174  1.00  0.00    -0.381 A  
HETATM   18  C   UNL     1      -8.562   2.915  70.946  1.00  0.00    -0.111 A  
HETATM   19  C   UNL     1      -9.540   4.929  69.229  1.00  0.00    -0.241 A  
HETATM   20  C   UNL     1      -7.976   3.087  69.700  1.00  0.00    -0.045 A  
HETATM   21  C   UNL     1      -8.460   4.091  68.857  1.00  0.00    -0.098 A  
BRANCH  20  22
HETATM   22  O   UNL     1      -6.943   2.355  69.188  1.00  0.00    -0.039 OA 
HETATM   23  C   UNL     1      -6.727   2.440  67.783  1.00  0.00    -0.039 C  
ENDBRANCH  20  22
ENDBRANCH   9  12
ENDBRANCH   1   9
BRANCH   6  24
HETATM   24  C   UNL     1      -9.375  11.367  65.853  1.00  0.00    -0.247 C  
HETATM   25  C   UNL     1     -10.060  12.308  66.514  1.00  0.00    -0.232 C  
ENDBRANCH   6  24
TORSDOF 4
ENDMDL
MODEL      217
REMARK 921   NORMALIZED FREE ENERGY PREDICTED BY IDOCK:   -3.19 KCAL/MOL
REMARK 922        TOTAL FREE ENERGY PREDICTED BY IDOCK:   -4.72 KCAL/MOL
REMARK 923 INTER-LIGAND FREE ENERGY PREDICTED BY IDOCK:   -4.82 KCAL/MOL
REMARK 924 INTRA-LIGAND FREE ENERGY PREDICTED BY IDOCK:    0.09 KCAL/MOL
REMARK 927      BINDING AFFINITY PREDICTED BY RF-SCORE:    0.00 PKD
ROOT
HETATM    1  C   UNL     1      -8.770   9.423  68.692  1.00  0.00    -0.131 C  
HETATM    2  N   UNL     1      -8.023   8.745  67.580  1.00  0.00    -0.106 NA 
HETATM    3  C   UNL     1     -10.298   9.310  68.459  1.00  0.00    -0.237 C  
HETATM    4  C   UNL     1      -8.464   7.350  67.380  1.00  0.00    -0.119 C  
HETATM    5  C   UNL     1     -10.573   8.679  67.081  1.00  0.00    -0.304 C  
HETATM    6  C   UNL     1      -9.827   9.453  65.965  1.00  0.00    -0.366 C  
HETATM    7  C   UNL     1      -9.979   7.259  67.141  1.00  0.00    -0.279 C  
HETATM    8  C   UNL     1      -8.317   9.489  66.323  1.00  0.00    -0.115 C  
ENDROOT
BRANCH   1   9
HETATM    9  C   UNL     1      -8.307   9.020  70.142  1.00  0.00    -0.151 C  
HETATM   10  O   UNL     1      -7.153   8.171  70.183  1.00  0.00    -0.047 OA 
HETATM   11  H   UNL     1      -6.874   7.928  71.057  1.00  0.00     0.000 HD 
BRANCH   9  12
HETATM   12  C   UNL     1      -9.426   8.333  70.923  1.00  0.00    -0.192 A  
HETATM   13  N   UNL     1     -11.452   7.188  72.497  1.00  0.00    -0.275 NA 
HETATM   14  C   UNL     1     -10.395   9.125  71.561  1.00  0.00    -0.414 A  
HETATM   15  C   UNL     1     -10.553   6.411  71.871  1.00  0.00    -0.214 A  
HETATM   16  C   UNL     1     -10.675   5.040  72.037  1.00  0.00    -0.205 A  
HETATM   17  C   UNL     1     -11.365   8.517  72.326  1.00  0.00    -0.371 A  
HETATM   18  C   UNL     1      -9.798   4.137  71.428  1.00  0.00    -0.254 A  
HETATM   19  C   UNL     1      -9.504   6.920  71.071  1.00  0.00    -0.163 A  
HETATM   20  C   UNL     1      -8.760   4.613  70.640  1.00  0.00    -0.099 A  
HETATM   21  C   UNL     1      -8.615   5.993  70.473  1.00  0.00    -0.137 A  
BRANCH  20  22
HETATM   22  O   UNL     1      -7.833   3.854  69.984  1.00  0.00    -0.051 OA 
HETATM   23  C   UNL     1      -6.707   3.417  70.739  1.00  0.00    -0.032 C  
ENDBRANCH  20  22
ENDBRANCH   9  12
ENDBRANCH   1   9
BRANCH   6  24
HETATM   24  C   UNL     1     -10.382  10.841  65.742  1.00  0.00    -0.295 C  
HETATM   25  C   UNL     1      -9.662  11.964  65.848  1.00  0.00    -0.258 C  
ENDBRANCH   6  24
TORSDOF 4
ENDMDL
MODEL      218
REMARK 921   NORMALIZED FREE ENERGY PREDICTED BY IDOCK:   -3.18 KCAL/MOL
REMARK 922        TOTAL FREE ENERGY PREDICTED BY IDOCK:   -4.70 KCAL/MOL
REMARK 923 INTER-LIGAND FREE ENERGY PREDICTED BY IDOCK:   -3.97 KCAL/MOL
REMARK 924 INTRA-LIGAND FREE ENERGY PREDICTED BY IDOCK:   -0.73 KCAL/MOL
REMARK 927      BINDING AFFINITY PREDICTED BY RF-SCORE:    0.00 PKD
ROOT
HETATM    1  C   UNL     1      -9.795  13.019  68.202  1.00  0.00    -0.228 C  
HETATM    2  N   UNL     1     -10.574  14.294  68.354  1.00  0.00    -0.246 NA 
HETATM    3  C   UNL     1     -10.761  11.816  68.048  1.00  0.00    -0.244 C  
HETATM    4  C   UNL     1     -11.549  14.486  67.262  1.00  0.00    -0.385 C  
HETATM    5  C   UNL     1     -12.214  12.279  68.258  1.00  0.00     0.153 C  
HETATM    6  C   UNL     1     -12.362  13.028  69.607  1.00  0.00    -0.104 C  
HETATM    7  C   UNL     1     -12.502  13.289  67.130  1.00  0.00     0.051 C  
HETATM    8  C   UNL     1     -11.344  14.201  69.627  1.00  0.00    -0.236 C  
ENDROOT
BRANCH   1   9
HETATM    9  C   UNL     1      -8.648  13.069  67.124  1.00  0.00    -0.195 C  
HETATM   10  O   UNL     1      -8.300  14.389  66.688  1.00  0.00    -0.412 OA 
HETATM   11  H   UNL     1      -7.608  14.419  66.038  1.00  0.00     0.000 HD 
BRANCH   9  12
HETATM   12  C   UNL     1      -8.996  12.240  65.890  1.00  0.00     0.135 A  
HETATM   13  N   UNL     1      -9.806  10.780  63.630  1.00  0.00    -0.323 NA 
HETATM   14  C   UNL     1      -9.704  12.847  64.840  1.00  0.00     0.072 A  
HETATM   15  C   UNL     1      -9.103  10.187  64.609  1.00  0.00    -0.227 A  
HETATM   16  C   UNL     1      -8.801   8.844  64.449  1.00  0.00    -0.047 A  
HETATM   17  C   UNL     1     -10.084  12.088  63.756  1.00  0.00    -0.394 A  
HETATM   18  C   UNL     1      -8.071   8.128  65.402  1.00  0.00    -0.130 A  
HETATM   19  C   UNL     1      -8.671  10.859  65.776  1.00  0.00    -0.196 A  
HETATM   20  C   UNL     1      -7.638   8.765  66.556  1.00  0.00    -0.095 A  
HETATM   21  C   UNL     1      -7.944  10.116  66.739  1.00  0.00    -0.115 A  
BRANCH  20  22
HETATM   22  O   UNL     1      -6.916   8.197  67.567  1.00  0.00    -0.072 OA 
HETATM   23  C   UNL     1      -6.439   9.068  68.587  1.00  0.00    -0.054 C  
ENDBRANCH  20  22
ENDBRANCH   9  12
ENDBRANCH   1   9
BRANCH   6  24
HETATM   24  C   UNL     1     -12.192  12.121  70.803  1.00  0.00    -0.367 C  
HETATM   25  C   UNL     1     -13.113  11.244  71.219  1.00  0.00    -0.317 C  
ENDBRANCH   6  24
TORSDOF 4
ENDMDL
MODEL      219
REMARK 921   NORMALIZED FREE ENERGY PREDICTED BY IDOCK:   -3.10 KCAL/MOL
REMARK 922        TOTAL FREE ENERGY PREDICTED BY IDOCK:   -4.61 KCAL/MOL
REMARK 923 INTER-LIGAND FREE ENERGY PREDICTED BY IDOCK:   -4.56 KCAL/MOL
REMARK 924 INTRA-LIGAND FREE ENERGY PREDICTED BY IDOCK:   -0.06 KCAL/MOL
REMARK 927      BINDING AFFINITY PREDICTED BY RF-SCORE:    0.00 PKD
ROOT
HETATM    1  C   UNL     1     -10.034   7.276  72.464  1.00  0.00    -0.177 C  
HETATM    2  N   UNL     1      -9.751   8.546  71.716  1.00  0.00    -0.239 NA 
HETATM    3  C   UNL     1     -11.073   6.420  71.695  1.00  0.00    -0.314 C  
HETATM    4  C   UNL     1      -9.353   8.294  70.317  1.00  0.00    -0.159 C  
HETATM    5  C   UNL     1     -11.611   7.210  70.487  1.00  0.00    -0.331 C  
HETATM    6  C   UNL     1     -12.149   8.594  70.932  1.00  0.00    -0.173 C  
HETATM    7  C   UNL     1     -10.398   7.454  69.568  1.00  0.00    -0.218 C  
HETATM    8  C   UNL     1     -11.013   9.339  71.684  1.00  0.00    -0.363 C  
ENDROOT
BRANCH   1   9
HETATM    9  C   UNL     1      -8.755   6.479  72.923  1.00  0.00    -0.123 C  
HETATM   10  O   UNL     1      -7.705   7.297  73.456  1.00  0.00    -0.090 OA 
HETATM   11  H   UNL     1      -6.934   6.817  73.732  1.00  0.00     0.000 HD 
BRANCH   9  12
HETATM   12  C   UNL     1      -8.171   5.643  71.786  1.00  0.00    -0.119 A  
HETATM   13  N   UNL     1      -7.127   4.247  69.583  1.00  0.00    -0.049 NA 
HETATM   14  C   UNL     1      -7.212   6.221  70.939  1.00  0.00    -0.071 A  
HETATM   15  C   UNL     1      -8.022   3.664  70.397  1.00  0.00    -0.050 A  
HETATM   16  C   UNL     1      -8.395   2.363  70.102  1.00  0.00    -0.073 A  
HETATM   17  C   UNL     1      -6.734   5.499  69.869  1.00  0.00    -0.051 A  
HETATM   18  C   UNL     1      -9.314   1.657  70.884  1.00  0.00    -0.181 A  
HETATM   19  C   UNL     1      -8.594   4.310  71.517  1.00  0.00    -0.129 A  
HETATM   20  C   UNL     1      -9.890   2.271  71.987  1.00  0.00    -0.152 A  
HETATM   21  C   UNL     1      -9.535   3.588  72.292  1.00  0.00    -0.183 A  
BRANCH  20  22
HETATM   22  O   UNL     1     -10.796   1.708  72.840  1.00  0.00    -0.144 OA 
HETATM   23  C   UNL     1     -10.796   2.180  74.184  1.00  0.00    -0.153 C  
ENDBRANCH  20  22
ENDBRANCH   9  12
ENDBRANCH   1   9
BRANCH   6  24
HETATM   24  C   UNL     1     -13.402   8.494  71.769  1.00  0.00    -0.396 C  
HETATM   25  C   UNL     1     -14.355   7.571  71.591  1.00  0.00    -0.621 C  
ENDBRANCH   6  24
TORSDOF 4
ENDMDL
MODEL      220
REMARK 921   NORMALIZED FREE ENERGY PREDICTED BY IDOCK:   -3.09 KCAL/MOL
REMARK 922        TOTAL FREE ENERGY PREDICTED BY IDOCK:   -4.60 KCAL/MOL
REMARK 923 INTER-LIGAND FREE ENERGY PREDICTED BY IDOCK:   -3.89 KCAL/MOL
REMARK 924 INTRA-LIGAND FREE ENERGY PREDICTED BY IDOCK:   -0.71 KCAL/MOL
REMARK 927      BINDING AFFINITY PREDICTED BY RF-SCORE:    0.00 PKD
ROOT
HETATM    1  C   UNL     1      -9.739   6.720  69.331  1.00  0.00    -0.152 C  
HETATM    2  N   UNL     1     -10.261   5.464  69.967  1.00  0.00    -0.255 NA 
HETATM    3  C   UNL     1      -8.193   6.667  69.229  1.00  0.00    -0.124 C  
HETATM    4  C   UNL     1      -9.780   4.249  69.280  1.00  0.00    -0.170 C  
HETATM    5  C   UNL     1      -7.662   5.417  69.954  1.00  0.00    -0.080 C  
HETATM    6  C   UNL     1      -8.193   5.360  71.409  1.00  0.00    -0.117 C  
HETATM    7  C   UNL     1      -8.246   4.209  69.196  1.00  0.00    -0.078 C  
HETATM    8  C   UNL     1      -9.744   5.420  71.364  1.00  0.00    -0.161 C  
ENDROOT
BRANCH   1   9
HETATM    9  C   UNL     1     -10.461   7.134  67.994  1.00  0.00    -0.201 C  
HETATM   10  O   UNL     1     -11.638   6.374  67.695  1.00  0.00    -0.640 OA 
HETATM   11  H   UNL     1     -12.074   6.623  66.889  1.00  0.00     0.000 HD 
BRANCH   9  12
HETATM   12  C   UNL     1      -9.522   7.043  66.793  1.00  0.00    -0.205 A  
HETATM   13  N   UNL     1      -7.725   6.724  64.657  1.00  0.00    -0.106 NA 
HETATM   14  C   UNL     1      -9.379   5.812  66.133  1.00  0.00    -0.160 A  
HETATM   15  C   UNL     1      -7.868   7.918  65.255  1.00  0.00    -0.111 A  
HETATM   16  C   UNL     1      -7.099   8.965  64.772  1.00  0.00    -0.088 A  
HETATM   17  C   UNL     1      -8.481   5.704  65.095  1.00  0.00    -0.144 A  
HETATM   18  C   UNL     1      -7.171  10.251  65.315  1.00  0.00    -0.134 A  
HETATM   19  C   UNL     1      -8.746   8.147  66.339  1.00  0.00    -0.168 A  
HETATM   20  C   UNL     1      -8.024  10.500  66.380  1.00  0.00    -0.137 A  
HETATM   21  C   UNL     1      -8.797   9.452  66.888  1.00  0.00    -0.141 A  
BRANCH  20  22
HETATM   22  O   UNL     1      -8.201  11.701  67.008  1.00  0.00    -0.157 OA 
HETATM   23  C   UNL     1      -7.028  12.453  67.300  1.00  0.00    -0.129 C  
ENDBRANCH  20  22
ENDBRANCH   9  12
ENDBRANCH   1   9
BRANCH   6  24
HETATM   24  C   UNL     1      -7.617   6.447  72.286  1.00  0.00    -0.097 C  
HETATM   25  C   UNL     1      -8.259   7.577  72.605  1.00  0.00    -0.138 C  
ENDBRANCH   6  24
TORSDOF 4
ENDMDL
MODEL      221
REMARK 921   NORMALIZED FREE ENERGY PREDICTED BY IDOCK:   -3.07 KCAL/MOL
REMARK 922        TOTAL FREE ENERGY PREDICTED BY IDOCK:   -4.58 KCAL/MOL
REMARK 923 INTER-LIGAND FREE ENERGY PREDICTED BY IDOCK:   -4.67 KCAL/MOL
REMARK 924 INTRA-LIGAND FREE ENERGY PREDICTED BY IDOCK:    0.09 KCAL/MOL
REMARK 927      BINDING AFFINITY PREDICTED BY RF-SCORE:    0.00 PKD
ROOT
HETATM    1  C   UNL     1     -10.713   6.753  68.676  1.00  0.00    -0.234 C  
HETATM    2  N   UNL     1      -9.996   5.454  68.906  1.00  0.00    -0.165 NA 
HETATM    3  C   UNL     1     -10.100   7.869  69.559  1.00  0.00    -0.195 C  
HETATM    4  C   UNL     1      -8.536   5.583  68.725  1.00  0.00    -0.101 C  
HETATM    5  C   UNL     1      -9.053   7.267  70.514  1.00  0.00    -0.158 C  
HETATM    6  C   UNL     1      -9.661   6.093  71.324  1.00  0.00    -0.189 C  
HETATM    7  C   UNL     1      -7.945   6.687  69.614  1.00  0.00    -0.124 C  
HETATM    8  C   UNL     1     -10.234   5.055  70.322  1.00  0.00    -0.258 C  
ENDROOT
BRANCH   1   9
HETATM    9  C   UNL     1     -10.890   7.151  67.162  1.00  0.00    -0.333 C  
HETATM   10  O   UNL     1     -10.488   6.139  66.231  1.00  0.00    -0.442 OA 
HETATM   11  H   UNL     1     -10.594   6.379  65.318  1.00  0.00     0.000 HD 
BRANCH   9  12
HETATM   12  C   UNL     1     -10.133   8.433  66.822  1.00  0.00    -0.373 A  
HETATM   13  N   UNL     1      -8.896  10.857  66.125  1.00  0.00    -0.180 NA 
HETATM   14  C   UNL     1     -10.717   9.671  67.135  1.00  0.00    -0.258 A  
HETATM   15  C   UNL     1      -8.305   9.685  65.843  1.00  0.00    -0.120 A  
HETATM   16  C   UNL     1      -7.076   9.731  65.204  1.00  0.00    -0.121 A  
HETATM   17  C   UNL     1     -10.074  10.832  66.768  1.00  0.00    -0.222 A  
HETATM   18  C   UNL     1      -6.370   8.572  64.867  1.00  0.00    -0.064 A  
HETATM   19  C   UNL     1      -8.874   8.429  66.157  1.00  0.00    -0.198 A  
HETATM   20  C   UNL     1      -6.909   7.329  65.164  1.00  0.00    -0.047 A  
HETATM   21  C   UNL     1      -8.153   7.264  65.797  1.00  0.00    -0.129 A  
BRANCH  20  22
HETATM   22  O   UNL     1      -6.335   6.118  64.899  1.00  0.00    -0.032 OA 
HETATM   23  C   UNL     1      -7.060   4.960  65.300  1.00  0.00    -0.063 C  
ENDBRANCH  20  22
ENDBRANCH   9  12
ENDBRANCH   1   9
BRANCH   6  24
HETATM   24  C   UNL     1     -10.705   6.546  72.318  1.00  0.00    -0.252 C  
HETATM   25  C   UNL     1     -10.425   7.090  73.509  1.00  0.00    -0.413 C  
ENDBRANCH   6  24
TORSDOF 4
ENDMDL
MODEL      222
REMARK 921   NORMALIZED FREE ENERGY PREDICTED BY IDOCK:   -3.07 KCAL/MOL
REMARK 922        TOTAL FREE ENERGY PREDICTED BY IDOCK:   -4.58 KCAL/MOL
REMARK 923 INTER-LIGAND FREE ENERGY PREDICTED BY IDOCK:   -4.69 KCAL/MOL
REMARK 924 INTRA-LIGAND FREE ENERGY PREDICTED BY IDOCK:    0.12 KCAL/MOL
REMARK 927      BINDING AFFINITY PREDICTED BY RF-SCORE:    0.00 PKD
ROOT
HETATM    1  C   UNL     1     -10.900   8.640  70.285  1.00  0.00    -0.235 C  
HETATM    2  N   UNL     1     -10.744   7.207  69.864  1.00  0.00    -0.233 NA 
HETATM    3  C   UNL     1     -11.290   8.719  71.783  1.00  0.00    -0.409 C  
HETATM    4  C   UNL     1      -9.807   6.468  70.733  1.00  0.00    -0.184 C  
HETATM    5  C   UNL     1     -11.553   7.305  72.332  1.00  0.00    -0.307 C  
HETATM    6  C   UNL     1     -12.591   6.560  71.455  1.00  0.00    -0.175 C  
HETATM    7  C   UNL     1     -10.215   6.550  72.212  1.00  0.00    -0.203 C  
HETATM    8  C   UNL     1     -12.078   6.555  69.990  1.00  0.00     0.126 C  
ENDROOT
BRANCH   1   9
HETATM    9  C   UNL     1      -9.705   9.583  69.879  1.00  0.00    -0.224 C  
HETATM   10  O   UNL     1      -8.868   9.985  70.970  1.00  0.00    -0.178 OA 
HETATM   11  H   UNL     1      -8.147  10.553  70.725  1.00  0.00     0.000 HD 
BRANCH   9  12
HETATM   12  C   UNL     1     -10.196  10.844  69.170  1.00  0.00    -0.215 A  
HETATM   13  N   UNL     1     -11.198  13.055  67.757  1.00  0.00    -0.265 NA 
HETATM   14  C   UNL     1     -11.569  10.993  68.921  1.00  0.00    -0.383 A  
HETATM   15  C   UNL     1      -9.884  12.947  68.011  1.00  0.00    -0.223 A  
HETATM   16  C   UNL     1      -9.063  13.964  67.550  1.00  0.00    -0.201 A  
HETATM   17  C   UNL     1     -12.012  12.093  68.220  1.00  0.00    -0.187 A  
HETATM   18  C   UNL     1      -7.681  13.957  67.761  1.00  0.00    -0.177 A  
HETATM   19  C   UNL     1      -9.311  11.859  68.708  1.00  0.00     0.013 A  
HETATM   20  C   UNL     1      -7.096  12.898  68.440  1.00  0.00    -0.099 A  
HETATM   21  C   UNL     1      -7.907  11.858  68.901  1.00  0.00     0.015 A  
BRANCH  20  22
HETATM   22  O   UNL     1      -5.766  12.758  68.722  1.00  0.00    -0.064 OA 
HETATM   23  C   UNL     1      -5.126  11.582  68.239  1.00  0.00    -0.039 C  
ENDBRANCH  20  22
ENDBRANCH   9  12
ENDBRANCH   1   9
BRANCH   6  24
HETATM   24  C   UNL     1     -13.978   7.152  71.559  1.00  0.00    -0.440 C  
HETATM   25  C   UNL     1     -14.260   8.446  71.365  1.00  0.00    -0.406 C  
ENDBRANCH   6  24
TORSDOF 4
ENDMDL
MODEL      223
REMARK 921   NORMALIZED FREE ENERGY PREDICTED BY IDOCK:   -3.05 KCAL/MOL
REMARK 922        TOTAL FREE ENERGY PREDICTED BY IDOCK:   -4.55 KCAL/MOL
REMARK 923 INTER-LIGAND FREE ENERGY PREDICTED BY IDOCK:   -3.87 KCAL/MOL
REMARK 924 INTRA-LIGAND FREE ENERGY PREDICTED BY IDOCK:   -0.68 KCAL/MOL
REMARK 927      BINDING AFFINITY PREDICTED BY RF-SCORE:    0.00 PKD
ROOT
HETATM    1  C   UNL     1      -9.379  10.590  66.898  1.00  0.00    -0.159 C  
HETATM    2  N   UNL     1     -10.394  11.080  67.889  1.00  0.00    -0.180 NA 
HETATM    3  C   UNL     1      -8.771  11.783  66.117  1.00  0.00    -0.057 C  
HETATM    4  C   UNL     1      -9.846  12.121  68.781  1.00  0.00    -0.021 C  
HETATM    5  C   UNL     1      -9.511  13.082  66.486  1.00  0.00    -0.246 C  
HETATM    6  C   UNL     1     -11.039  12.920  66.287  1.00  0.00    -0.317 C  
HETATM    7  C   UNL     1      -9.258  13.300  67.990  1.00  0.00    -0.217 C  
HETATM    8  C   UNL     1     -11.512  11.697  67.119  1.00  0.00    -0.271 C  
ENDROOT
BRANCH   1   9
HETATM    9  C   UNL     1      -8.311   9.592  67.483  1.00  0.00    -0.125 C  
HETATM   10  O   UNL     1      -6.970  10.096  67.497  1.00  0.00    -0.083 OA 
HETATM   11  H   UNL     1      -6.325   9.495  67.850  1.00  0.00     0.000 HD 
BRANCH   9  12
HETATM   12  C   UNL     1      -8.307   8.262  66.731  1.00  0.00    -0.107 A  
HETATM   13  N   UNL     1      -8.409   5.894  65.223  1.00  0.00    -0.144 NA 
HETATM   14  C   UNL     1      -8.077   8.265  65.346  1.00  0.00    -0.135 A  
HETATM   15  C   UNL     1      -8.602   5.865  66.552  1.00  0.00    -0.123 A  
HETATM   16  C   UNL     1      -8.849   4.630  67.130  1.00  0.00    -0.109 A  
HETATM   17  C   UNL     1      -8.143   7.079  64.650  1.00  0.00    -0.083 A  
HETATM   18  C   UNL     1      -9.059   4.481  68.504  1.00  0.00    -0.161 A  
HETATM   19  C   UNL     1      -8.573   7.018  67.370  1.00  0.00    -0.121 A  
HETATM   20  C   UNL     1      -9.037   5.598  69.326  1.00  0.00    -0.113 A  
HETATM   21  C   UNL     1      -8.803   6.853  68.758  1.00  0.00    -0.132 A  
BRANCH  20  22
HETATM   22  O   UNL     1      -9.222   5.605  70.680  1.00  0.00    -0.147 OA 
HETATM   23  C   UNL     1      -8.343   6.423  71.446  1.00  0.00    -0.122 C  
ENDBRANCH  20  22
ENDBRANCH   9  12
ENDBRANCH   1   9
BRANCH   6  24
HETATM   24  C   UNL     1     -11.430  12.790  64.833  1.00  0.00    -0.355 C  
HETATM   25  C   UNL     1     -11.573  11.623  64.193  1.00  0.00    -0.342 C  
ENDBRANCH   6  24
TORSDOF 4
ENDMDL
MODEL      224
REMARK 921   NORMALIZED FREE ENERGY PREDICTED BY IDOCK:   -3.04 KCAL/MOL
REMARK 922        TOTAL FREE ENERGY PREDICTED BY IDOCK:   -4.54 KCAL/MOL
REMARK 923 INTER-LIGAND FREE ENERGY PREDICTED BY IDOCK:   -4.56 KCAL/MOL
REMARK 924 INTRA-LIGAND FREE ENERGY PREDICTED BY IDOCK:    0.02 KCAL/MOL
REMARK 927      BINDING AFFINITY PREDICTED BY RF-SCORE:    0.00 PKD
ROOT
HETATM    1  C   UNL     1      -9.435   7.515  67.123  1.00  0.00    -0.154 C  
HETATM    2  N   UNL     1      -9.868   8.719  66.339  1.00  0.00    -0.270 NA 
HETATM    3  C   UNL     1      -8.463   7.932  68.256  1.00  0.00    -0.124 C  
HETATM    4  C   UNL     1     -10.427   9.778  67.204  1.00  0.00    -0.250 C  
HETATM    5  C   UNL     1      -8.118   9.427  68.126  1.00  0.00    -0.110 C  
HETATM    6  C   UNL     1      -7.593   9.748  66.703  1.00  0.00    -0.098 C  
HETATM    7  C   UNL     1      -9.446  10.185  68.314  1.00  0.00    -0.147 C  
HETATM    8  C   UNL     1      -8.658   9.281  65.674  1.00  0.00    -0.153 C  
ENDROOT
BRANCH   1   9
HETATM    9  C   UNL     1     -10.608   6.575  67.594  1.00  0.00    -0.269 C  
HETATM   10  O   UNL     1     -11.341   7.060  68.726  1.00  0.00    -0.492 OA 
HETATM   11  H   UNL     1     -12.048   6.494  69.010  1.00  0.00     0.000 HD 
BRANCH   9  12
HETATM   12  C   UNL     1     -10.110   5.169  67.921  1.00  0.00    -0.193 A  
HETATM   13  N   UNL     1      -9.310   2.518  68.397  1.00  0.00    -0.199 NA 
HETATM   14  C   UNL     1      -9.762   4.308  66.868  1.00  0.00    -0.239 A  
HETATM   15  C   UNL     1      -9.609   3.334  69.420  1.00  0.00    -0.049 A  
HETATM   16  C   UNL     1      -9.504   2.811  70.700  1.00  0.00    -0.211 A  
HETATM   17  C   UNL     1      -9.381   3.016  67.152  1.00  0.00    -0.145 A  
HETATM   18  C   UNL     1      -9.787   3.571  71.839  1.00  0.00    -0.237 A  
HETATM   19  C   UNL     1     -10.027   4.674  69.254  1.00  0.00    -0.231 A  
HETATM   20  C   UNL     1     -10.200   4.888  71.700  1.00  0.00    -0.197 A  
HETATM   21  C   UNL     1     -10.324   5.427  70.417  1.00  0.00    -0.353 A  
BRANCH  20  22
HETATM   22  O   UNL     1     -10.506   5.747  72.716  1.00  0.00    -0.192 OA 
HETATM   23  C   UNL     1      -9.425   6.465  73.301  1.00  0.00    -0.139 C  
ENDBRANCH  20  22
ENDBRANCH   9  12
ENDBRANCH   1   9
BRANCH   6  24
HETATM   24  C   UNL     1      -6.241   9.133  66.425  1.00  0.00    -0.065 C  
HETATM   25  C   UNL     1      -6.034   8.126  65.567  1.00  0.00    -0.045 C  
ENDBRANCH   6  24
TORSDOF 4
ENDMDL
MODEL      225
REMARK 921   NORMALIZED FREE ENERGY PREDICTED BY IDOCK:   -3.04 KCAL/MOL
REMARK 922        TOTAL FREE ENERGY PREDICTED BY IDOCK:   -4.54 KCAL/MOL
REMARK 923 INTER-LIGAND FREE ENERGY PREDICTED BY IDOCK:   -3.76 KCAL/MOL
REMARK 924 INTRA-LIGAND FREE ENERGY PREDICTED BY IDOCK:   -0.78 KCAL/MOL
REMARK 927      BINDING AFFINITY PREDICTED BY RF-SCORE:    0.00 PKD
ROOT
HETATM    1  C   UNL     1      -8.568   4.896  67.967  1.00  0.00    -0.102 C  
HETATM    2  N   UNL     1      -9.503   5.980  67.515  1.00  0.00    -0.112 NA 
HETATM    3  C   UNL     1      -7.530   4.586  66.859  1.00  0.00    -0.082 C  
HETATM    4  C   UNL     1      -8.783   7.186  67.059  1.00  0.00    -0.123 C  
HETATM    5  C   UNL     1      -7.878   5.370  65.580  1.00  0.00    -0.098 C  
HETATM    6  C   UNL     1      -9.344   5.102  65.154  1.00  0.00    -0.011 C  
HETATM    7  C   UNL     1      -7.766   6.860  65.955  1.00  0.00    -0.098 C  
HETATM    8  C   UNL     1     -10.270   5.453  66.350  1.00  0.00    -0.226 C  
ENDROOT
BRANCH   1   9
HETATM    9  C   UNL     1      -7.941   5.118  69.395  1.00  0.00    -0.084 C  
HETATM   10  O   UNL     1      -6.508   5.156  69.416  1.00  0.00    -0.032 OA 
HETATM   11  H   UNL     1      -6.130   5.289  70.276  1.00  0.00     0.000 HD 
BRANCH   9  12
HETATM   12  C   UNL     1      -8.399   4.050  70.386  1.00  0.00    -0.081 A  
HETATM   13  N   UNL     1      -9.254   1.969  72.068  1.00  0.00    -0.080 NA 
HETATM   14  C   UNL     1      -7.806   2.778  70.338  1.00  0.00    -0.047 A  
HETATM   15  C   UNL     1      -9.814   3.186  72.152  1.00  0.00    -0.168 A  
HETATM   16  C   UNL     1     -10.816   3.360  73.093  1.00  0.00    -0.246 A  
HETATM   17  C   UNL     1      -8.264   1.789  71.180  1.00  0.00    -0.046 A  
HETATM   18  C   UNL     1     -11.465   4.586  73.270  1.00  0.00    -0.314 A  
HETATM   19  C   UNL     1      -9.439   4.275  71.331  1.00  0.00    -0.225 A  
HETATM   20  C   UNL     1     -11.115   5.668  72.476  1.00  0.00    -0.276 A  
HETATM   21  C   UNL     1     -10.116   5.507  71.512  1.00  0.00    -0.260 A  
BRANCH  20  22
HETATM   22  O   UNL     1     -11.658   6.921  72.537  1.00  0.00    -0.261 OA 
HETATM   23  C   UNL     1     -12.593   7.268  71.521  1.00  0.00    -0.379 C  
ENDBRANCH  20  22
ENDBRANCH   9  12
ENDBRANCH   1   9
BRANCH   6  24
HETATM   24  C   UNL     1      -9.565   3.687  64.673  1.00  0.00    -0.172 C  
HETATM   25  C   UNL     1     -10.386   3.353  63.670  1.00  0.00    -0.233 C  
ENDBRANCH   6  24
TORSDOF 4
ENDMDL
MODEL      226
REMARK 921   NORMALIZED FREE ENERGY PREDICTED BY IDOCK:   -3.02 KCAL/MOL
REMARK 922        TOTAL FREE ENERGY PREDICTED BY IDOCK:   -4.51 KCAL/MOL
REMARK 923 INTER-LIGAND FREE ENERGY PREDICTED BY IDOCK:   -4.49 KCAL/MOL
REMARK 924 INTRA-LIGAND FREE ENERGY PREDICTED BY IDOCK:   -0.02 KCAL/MOL
REMARK 927      BINDING AFFINITY PREDICTED BY RF-SCORE:    0.00 PKD
ROOT
HETATM    1  C   UNL     1      -9.945   8.130  68.592  1.00  0.00    -0.190 C  
HETATM    2  N   UNL     1     -10.477   6.752  68.327  1.00  0.00    -0.190 NA 
HETATM    3  C   UNL     1      -9.202   8.167  69.951  1.00  0.00    -0.151 C  
HETATM    4  C   UNL     1      -9.427   5.719  68.426  1.00  0.00    -0.122 C  
HETATM    5  C   UNL     1      -9.378   6.822  70.681  1.00  0.00    -0.162 C  
HETATM    6  C   UNL     1     -10.879   6.454  70.800  1.00  0.00    -0.321 C  
HETATM    7  C   UNL     1      -8.708   5.764  69.783  1.00  0.00    -0.127 C  
HETATM    8  C   UNL     1     -11.495   6.454  69.374  1.00  0.00    -0.305 C  
ENDROOT
BRANCH   1   9
HETATM    9  C   UNL     1      -9.139   8.769  67.398  1.00  0.00    -0.133 C  
HETATM   10  O   UNL     1      -7.716   8.747  67.563  1.00  0.00    -0.099 OA 
HETATM   11  H   UNL     1      -7.230   9.132  66.844  1.00  0.00     0.000 HD 
BRANCH   9  12
HETATM   12  C   UNL     1      -9.562  10.214  67.139  1.00  0.00    -0.202 A  
HETATM   13  N   UNL     1     -10.378  12.822  66.491  1.00  0.00    -0.248 NA 
HETATM   14  C   UNL     1     -10.776  10.459  66.478  1.00  0.00    -0.162 A  
HETATM   15  C   UNL     1      -9.227  12.612  67.150  1.00  0.00    -0.214 A  
HETATM   16  C   UNL     1      -8.477  13.728  67.489  1.00  0.00    -0.199 A  
HETATM   17  C   UNL     1     -11.130  11.755  66.178  1.00  0.00    -0.307 A  
HETATM   18  C   UNL     1      -7.266  13.627  68.179  1.00  0.00    -0.117 A  
HETATM   19  C   UNL     1      -8.752  11.328  67.500  1.00  0.00    -0.138 A  
HETATM   20  C   UNL     1      -6.779  12.377  68.532  1.00  0.00    -0.077 A  
HETATM   21  C   UNL     1      -7.516  11.241  68.187  1.00  0.00    -0.091 A  
BRANCH  20  22
HETATM   22  O   UNL     1      -5.618  12.126  69.208  1.00  0.00    -0.063 OA 
HETATM   23  C   UNL     1      -5.690  12.112  70.630  1.00  0.00    -0.128 C  
ENDBRANCH  20  22
ENDBRANCH   9  12
ENDBRANCH   1   9
BRANCH   6  24
HETATM   24  C   UNL     1     -11.635   7.370  71.735  1.00  0.00    -0.305 C  
HETATM   25  C   UNL     1     -11.163   7.801  72.910  1.00  0.00    -0.434 C  
ENDBRANCH   6  24
TORSDOF 4
ENDMDL
MODEL      227
REMARK 921   NORMALIZED FREE ENERGY PREDICTED BY IDOCK:   -3.00 KCAL/MOL
REMARK 922        TOTAL FREE ENERGY PREDICTED BY IDOCK:   -4.48 KCAL/MOL
REMARK 923 INTER-LIGAND FREE ENERGY PREDICTED BY IDOCK:   -5.23 KCAL/MOL
REMARK 924 INTRA-LIGAND FREE ENERGY PREDICTED BY IDOCK:    0.75 KCAL/MOL
REMARK 927      BINDING AFFINITY PREDICTED BY RF-SCORE:    0.00 PKD
ROOT
HETATM    1  C   UNL     1      -8.267  10.561  68.158  1.00  0.00    -0.114 C  
HETATM    2  N   UNL     1      -8.159   9.873  66.829  1.00  0.00    -0.116 NA 
HETATM    3  C   UNL     1      -9.750  10.869  68.484  1.00  0.00    -0.183 C  
HETATM    4  C   UNL     1      -9.017   8.674  66.749  1.00  0.00    -0.141 C  
HETATM    5  C   UNL     1     -10.637  10.519  67.275  1.00  0.00    -0.317 C  
HETATM    6  C   UNL     1     -10.121  11.223  65.994  1.00  0.00    -0.283 C  
HETATM    7  C   UNL     1     -10.485   9.000  67.066  1.00  0.00    -0.316 C  
HETATM    8  C   UNL     1      -8.633  10.829  65.788  1.00  0.00    -0.183 C  
ENDROOT
BRANCH   1   9
HETATM    9  C   UNL     1      -7.480   9.863  69.330  1.00  0.00    -0.108 C  
HETATM   10  O   UNL     1      -6.067   9.757  69.117  1.00  0.00    -0.037 OA 
HETATM   11  H   UNL     1      -5.592   9.336  69.823  1.00  0.00     0.000 HD 
BRANCH   9  12
HETATM   12  C   UNL     1      -8.020   8.464  69.620  1.00  0.00    -0.106 A  
HETATM   13  N   UNL     1      -8.971   5.846  69.981  1.00  0.00    -0.139 NA 
HETATM   14  C   UNL     1      -7.255   7.348  69.246  1.00  0.00    -0.080 A  
HETATM   15  C   UNL     1      -9.707   6.898  70.374  1.00  0.00    -0.172 A  
HETATM   16  C   UNL     1     -10.936   6.631  70.956  1.00  0.00    -0.305 A  
HETATM   17  C   UNL     1      -7.766   6.085  69.439  1.00  0.00    -0.098 A  
HETATM   18  C   UNL     1     -11.782   7.649  71.406  1.00  0.00    -0.310 A  
HETATM   19  C   UNL     1      -9.294   8.241  70.215  1.00  0.00    -0.159 A  
HETATM   20  C   UNL     1     -11.399   8.974  71.260  1.00  0.00    -0.319 A  
HETATM   21  C   UNL     1     -10.169   9.262  70.662  1.00  0.00    -0.335 A  
BRANCH  20  22
HETATM   22  O   UNL     1     -12.117  10.068  71.652  1.00  0.00    -0.387 OA 
HETATM   23  C   UNL     1     -13.515   9.884  71.850  1.00  0.00    -0.372 C  
ENDBRANCH  20  22
ENDBRANCH   9  12
ENDBRANCH   1   9
BRANCH   6  24
HETATM   24  C   UNL     1     -10.300  12.723  66.036  1.00  0.00    -0.291 C  
HETATM   25  C   UNL     1     -11.422  13.335  66.433  1.00  0.00    -0.364 C  
ENDBRANCH   6  24
TORSDOF 4
ENDMDL
MODEL      228
REMARK 921   NORMALIZED FREE ENERGY PREDICTED BY IDOCK:   -2.89 KCAL/MOL
REMARK 922        TOTAL FREE ENERGY PREDICTED BY IDOCK:   -4.35 KCAL/MOL
REMARK 923 INTER-LIGAND FREE ENERGY PREDICTED BY IDOCK:   -4.54 KCAL/MOL
REMARK 924 INTRA-LIGAND FREE ENERGY PREDICTED BY IDOCK:    0.19 KCAL/MOL
REMARK 927      BINDING AFFINITY PREDICTED BY RF-SCORE:    0.00 PKD
ROOT
HETATM    1  C   UNL     1      -9.136   8.974  69.632  1.00  0.00    -0.154 C  
HETATM    2  N   UNL     1      -8.441   7.788  69.028  1.00  0.00    -0.131 NA 
HETATM    3  C   UNL     1      -8.233  10.231  69.537  1.00  0.00    -0.165 C  
HETATM    4  C   UNL     1      -7.979   8.052  67.651  1.00  0.00    -0.123 C  
HETATM    5  C   UNL     1      -6.844   9.839  69.000  1.00  0.00    -0.050 C  
HETATM    6  C   UNL     1      -6.232   8.693  69.846  1.00  0.00    -0.034 C  
HETATM    7  C   UNL     1      -7.078   9.294  67.578  1.00  0.00    -0.079 C  
HETATM    8  C   UNL     1      -7.233   7.507  69.856  1.00  0.00    -0.080 C  
ENDROOT
BRANCH   1   9
HETATM    9  C   UNL     1     -10.612   9.201  69.131  1.00  0.00    -0.208 C  
HETATM   10  O   UNL     1     -10.799   9.005  67.724  1.00  0.00    -0.451 OA 
HETATM   11  H   UNL     1     -11.688   9.142  67.422  1.00  0.00     0.000 HD 
BRANCH   9  12
HETATM   12  C   UNL     1     -11.121  10.597  69.485  1.00  0.00    -0.328 A  
HETATM   13  N   UNL     1     -12.199  13.084  70.222  1.00  0.00    -0.329 NA 
HETATM   14  C   UNL     1     -11.522  10.860  70.805  1.00  0.00    -0.115 A  
HETATM   15  C   UNL     1     -11.793  12.864  68.961  1.00  0.00    -0.306 A  
HETATM   16  C   UNL     1     -11.930  13.907  68.059  1.00  0.00    -0.390 A  
HETATM   17  C   UNL     1     -12.049  12.094  71.116  1.00  0.00     0.190 A  
HETATM   18  C   UNL     1     -11.537  13.791  66.722  1.00  0.00    -0.394 A  
HETATM   19  C   UNL     1     -11.250  11.635  68.520  1.00  0.00    -0.312 A  
HETATM   20  C   UNL     1     -11.003  12.594  66.266  1.00  0.00    -0.283 A  
HETATM   21  C   UNL     1     -10.870  11.528  67.159  1.00  0.00    -0.314 A  
BRANCH  20  22
HETATM   22  O   UNL     1     -10.575  12.336  64.995  1.00  0.00    -0.269 OA 
HETATM   23  C   UNL     1     -10.357  13.460  64.148  1.00  0.00    -0.080 C  
ENDBRANCH  20  22
ENDBRANCH   9  12
ENDBRANCH   1   9
BRANCH   6  24
HETATM   24  C   UNL     1      -5.868   9.128  71.247  1.00  0.00    -0.063 C  
HETATM   25  C   UNL     1      -6.419   8.626  72.358  1.00  0.00    -0.070 C  
ENDBRANCH   6  24
TORSDOF 4
ENDMDL
MODEL      229
REMARK 921   NORMALIZED FREE ENERGY PREDICTED BY IDOCK:   -2.88 KCAL/MOL
REMARK 922        TOTAL FREE ENERGY PREDICTED BY IDOCK:   -4.34 KCAL/MOL
REMARK 923 INTER-LIGAND FREE ENERGY PREDICTED BY IDOCK:   -4.14 KCAL/MOL
REMARK 924 INTRA-LIGAND FREE ENERGY PREDICTED BY IDOCK:   -0.20 KCAL/MOL
REMARK 927      BINDING AFFINITY PREDICTED BY RF-SCORE:    0.00 PKD
ROOT
HETATM    1  C   UNL     1      -8.618   7.351  68.709  1.00  0.00    -0.129 C  
HETATM    2  N   UNL     1      -9.504   6.344  68.034  1.00  0.00    -0.117 NA 
HETATM    3  C   UNL     1      -8.556   7.076  70.233  1.00  0.00    -0.140 C  
HETATM    4  C   UNL     1      -9.108   4.956  68.344  1.00  0.00    -0.114 C  
HETATM    5  C   UNL     1      -9.546   5.957  70.604  1.00  0.00    -0.208 C  
HETATM    6  C   UNL     1     -10.969   6.289  70.088  1.00  0.00    -0.411 C  
HETATM    7  C   UNL     1      -9.061   4.699  69.858  1.00  0.00    -0.161 C  
HETATM    8  C   UNL     1     -10.886   6.540  68.558  1.00  0.00    -0.288 C  
ENDROOT
BRANCH   1   9
HETATM    9  C   UNL     1      -7.211   7.553  68.032  1.00  0.00    -0.090 C  
HETATM   10  O   UNL     1      -6.566   8.790  68.359  1.00  0.00    -0.058 OA 
HETATM   11  H   UNL     1      -5.717   8.912  67.950  1.00  0.00     0.000 HD 
BRANCH   9  12
HETATM   12  C   UNL     1      -7.295   7.452  66.510  1.00  0.00    -0.084 A  
HETATM   13  N   UNL     1      -7.270   7.241  63.709  1.00  0.00    -0.069 NA 
HETATM   14  C   UNL     1      -6.635   6.397  65.860  1.00  0.00    -0.047 A  
HETATM   15  C   UNL     1      -7.933   8.241  64.311  1.00  0.00    -0.148 A  
HETATM   16  C   UNL     1      -8.593   9.146  63.495  1.00  0.00    -0.177 A  
HETATM   17  C   UNL     1      -6.647   6.340  64.485  1.00  0.00    -0.034 A  
HETATM   18  C   UNL     1      -9.318  10.223  64.013  1.00  0.00    -0.337 A  
HETATM   19  C   UNL     1      -7.980   8.413  65.713  1.00  0.00    -0.108 A  
HETATM   20  C   UNL     1      -9.378  10.413  65.386  1.00  0.00    -0.204 A  
HETATM   21  C   UNL     1      -8.707   9.517  66.223  1.00  0.00    -0.158 A  
BRANCH  20  22
HETATM   22  O   UNL     1     -10.047  11.413  66.033  1.00  0.00    -0.218 OA 
HETATM   23  C   UNL     1     -10.139  11.315  67.450  1.00  0.00    -0.188 C  
ENDBRANCH  20  22
ENDBRANCH   9  12
ENDBRANCH   1   9
BRANCH   6  24
HETATM   24  C   UNL     1     -11.598   7.457  70.812  1.00  0.00    -0.317 C  
HETATM   25  C   UNL     1     -11.158   7.944  71.978  1.00  0.00    -0.332 C  
ENDBRANCH   6  24
TORSDOF 4
ENDMDL
MODEL      230
REMARK 921   NORMALIZED FREE ENERGY PREDICTED BY IDOCK:   -2.88 KCAL/MOL
REMARK 922        TOTAL FREE ENERGY PREDICTED BY IDOCK:   -4.34 KCAL/MOL
REMARK 923 INTER-LIGAND FREE ENERGY PREDICTED BY IDOCK:   -3.64 KCAL/MOL
REMARK 924 INTRA-LIGAND FREE ENERGY PREDICTED BY IDOCK:   -0.70 KCAL/MOL
REMARK 927      BINDING AFFINITY PREDICTED BY RF-SCORE:    0.00 PKD
ROOT
HETATM    1  C   UNL     1      -8.890   8.188  69.738  1.00  0.00    -0.143 C  
HETATM    2  N   UNL     1      -7.778   7.823  68.797  1.00  0.00    -0.111 NA 
HETATM    3  C   UNL     1      -8.770   9.674  70.160  1.00  0.00    -0.263 C  
HETATM    4  C   UNL     1      -7.703   8.737  67.640  1.00  0.00    -0.101 C  
HETATM    5  C   UNL     1      -7.460  10.271  69.613  1.00  0.00    -0.159 C  
HETATM    6  C   UNL     1      -6.246   9.404  70.031  1.00  0.00    -0.045 C  
HETATM    7  C   UNL     1      -7.575  10.204  68.078  1.00  0.00    -0.088 C  
HETATM    8  C   UNL     1      -6.496   7.949  69.548  1.00  0.00    -0.035 C  
ENDROOT
BRANCH   1   9
HETATM    9  C   UNL     1     -10.329   7.769  69.254  1.00  0.00    -0.219 C  
HETATM   10  O   UNL     1     -11.088   8.828  68.657  1.00  0.00    -0.439 OA 
HETATM   11  H   UNL     1     -11.955   8.575  68.365  1.00  0.00     0.000 HD 
BRANCH   9  12
HETATM   12  C   UNL     1     -11.159   7.178  70.393  1.00  0.00    -0.309 A  
HETATM   13  N   UNL     1     -12.706   6.262  72.551  1.00  0.00     0.136 NA 
HETATM   14  C   UNL     1     -12.388   7.773  70.718  1.00  0.00    -0.030 A  
HETATM   15  C   UNL     1     -11.548   5.659  72.239  1.00  0.00    -0.181 A  
HETATM   16  C   UNL     1     -11.163   4.581  73.020  1.00  0.00    -0.277 A  
HETATM   17  C   UNL     1     -13.108   7.292  71.789  1.00  0.00    -0.317 A  
HETATM   18  C   UNL     1      -9.979   3.876  72.782  1.00  0.00    -0.209 A  
HETATM   19  C   UNL     1     -10.716   6.072  71.172  1.00  0.00    -0.323 A  
HETATM   20  C   UNL     1      -9.146   4.264  71.742  1.00  0.00    -0.123 A  
HETATM   21  C   UNL     1      -9.513   5.357  70.953  1.00  0.00    -0.214 A  
BRANCH  20  22
HETATM   22  O   UNL     1      -7.967   3.671  71.392  1.00  0.00    -0.059 OA 
HETATM   23  C   UNL     1      -6.772   4.280  71.872  1.00  0.00    -0.027 C  
ENDBRANCH  20  22
ENDBRANCH   9  12
ENDBRANCH   1   9
BRANCH   6  24
HETATM   24  C   UNL     1      -5.969   9.459  71.515  1.00  0.00    -0.054 C  
HETATM   25  C   UNL     1      -5.870   8.381  72.303  1.00  0.00    -0.055 C  
ENDBRANCH   6  24
TORSDOF 4
ENDMDL
MODEL      231
REMARK 921   NORMALIZED FREE ENERGY PREDICTED BY IDOCK:   -2.87 KCAL/MOL
REMARK 922        TOTAL FREE ENERGY PREDICTED BY IDOCK:   -4.33 KCAL/MOL
REMARK 923 INTER-LIGAND FREE ENERGY PREDICTED BY IDOCK:   -3.63 KCAL/MOL
REMARK 924 INTRA-LIGAND FREE ENERGY PREDICTED BY IDOCK:   -0.70 KCAL/MOL
REMARK 927      BINDING AFFINITY PREDICTED BY RF-SCORE:    0.00 PKD
ROOT
HETATM    1  C   UNL     1      -8.924   4.319  67.171  1.00  0.00    -0.123 C  
HETATM    2  N   UNL     1      -8.474   3.299  66.165  1.00  0.00    -0.107 NA 
HETATM    3  C   UNL     1      -7.715   5.152  67.669  1.00  0.00    -0.088 C  
HETATM    4  C   UNL     1      -7.709   3.907  65.058  1.00  0.00    -0.085 C  
HETATM    5  C   UNL     1      -6.408   4.570  67.101  1.00  0.00    -0.041 C  
HETATM    6  C   UNL     1      -6.297   3.057  67.418  1.00  0.00    -0.036 C  
HETATM    7  C   UNL     1      -6.510   4.720  65.571  1.00  0.00    -0.040 C  
HETATM    8  C   UNL     1      -7.564   2.349  66.866  1.00  0.00    -0.070 C  
ENDROOT
BRANCH   1   9
HETATM    9  C   UNL     1     -10.164   5.183  66.727  1.00  0.00    -0.253 C  
HETATM   10  O   UNL     1     -10.652   4.890  65.412  1.00  0.00    -0.473 OA 
HETATM   11  H   UNL     1     -11.400   5.411  65.144  1.00  0.00     0.000 HD 
BRANCH   9  12
HETATM   12  C   UNL     1      -9.865   6.680  66.796  1.00  0.00    -0.227 A  
HETATM   13  N   UNL     1      -9.144   9.394  66.866  1.00  0.00    -0.133 NA 
HETATM   14  C   UNL     1      -9.223   7.296  65.710  1.00  0.00     0.076 A  
HETATM   15  C   UNL     1      -9.784   8.832  67.904  1.00  0.00    -0.157 A  
HETATM   16  C   UNL     1     -10.067   9.644  68.991  1.00  0.00    -0.193 A  
HETATM   17  C   UNL     1      -8.886   8.628  65.794  1.00  0.00    -0.193 A  
HETATM   18  C   UNL     1     -10.732   9.166  70.124  1.00  0.00    -0.263 A  
HETATM   19  C   UNL     1     -10.168   7.471  67.940  1.00  0.00    -0.245 A  
HETATM   20  C   UNL     1     -11.117   7.834  70.182  1.00  0.00    -0.209 A  
HETATM   21  C   UNL     1     -10.829   6.998  69.100  1.00  0.00    -0.223 A  
BRANCH  20  22
HETATM   22  O   UNL     1     -11.774   7.230  71.216  1.00  0.00    -0.272 OA 
HETATM   23  C   UNL     1     -10.996   6.415  72.085  1.00  0.00    -0.251 C  
ENDBRANCH  20  22
ENDBRANCH   9  12
ENDBRANCH   1   9
BRANCH   6  24
HETATM   24  C   UNL     1      -6.098   2.780  68.890  1.00  0.00    -0.025 C  
HETATM   25  C   UNL     1      -5.129   3.325  69.634  1.00  0.00    -0.004 C  
ENDBRANCH   6  24
TORSDOF 4
ENDMDL
MODEL      232
REMARK 921   NORMALIZED FREE ENERGY PREDICTED BY IDOCK:   -2.80 KCAL/MOL
REMARK 922        TOTAL FREE ENERGY PREDICTED BY IDOCK:   -4.24 KCAL/MOL
REMARK 923 INTER-LIGAND FREE ENERGY PREDICTED BY IDOCK:   -4.37 KCAL/MOL
REMARK 924 INTRA-LIGAND FREE ENERGY PREDICTED BY IDOCK:    0.13 KCAL/MOL
REMARK 927      BINDING AFFINITY PREDICTED BY RF-SCORE:    0.00 PKD
ROOT
HETATM    1  C   UNL     1      -9.493   9.992  67.091  1.00  0.00    -0.155 C  
HETATM    2  N   UNL     1      -8.568  10.808  67.946  1.00  0.00    -0.123 NA 
HETATM    3  C   UNL     1     -10.961  10.436  67.314  1.00  0.00    -0.306 C  
HETATM    4  C   UNL     1      -8.757  12.259  67.748  1.00  0.00    -0.174 C  
HETATM    5  C   UNL     1     -11.030  11.464  68.458  1.00  0.00    -0.267 C  
HETATM    6  C   UNL     1     -10.345  10.911  69.734  1.00  0.00     0.011 C  
HETATM    7  C   UNL     1     -10.215  12.682  67.982  1.00  0.00    -0.230 C  
HETATM    8  C   UNL     1      -8.890  10.508  69.370  1.00  0.00    -0.075 C  
ENDROOT
BRANCH   1   9
HETATM    9  C   UNL     1      -9.073   9.887  65.577  1.00  0.00    -0.189 C  
HETATM   10  O   UNL     1     -10.057  10.367  64.652  1.00  0.00    -0.345 OA 
HETATM   11  H   UNL     1      -9.804  10.304  63.739  1.00  0.00     0.000 HD 
BRANCH   9  12
HETATM   12  C   UNL     1      -8.719   8.453  65.186  1.00  0.00    -0.118 A  
HETATM   13  N   UNL     1      -8.093   5.864  64.293  1.00  0.00    -0.129 NA 
HETATM   14  C   UNL     1      -7.800   8.239  64.146  1.00  0.00    -0.145 A  
HETATM   15  C   UNL     1      -8.951   6.046  65.309  1.00  0.00     0.082 A  
HETATM   16  C   UNL     1      -9.501   4.911  65.885  1.00  0.00    -0.171 A  
HETATM   17  C   UNL     1      -7.530   6.951  63.740  1.00  0.00    -0.091 A  
HETATM   18  C   UNL     1     -10.403   4.981  66.952  1.00  0.00    -0.267 A  
HETATM   19  C   UNL     1      -9.318   7.319  65.803  1.00  0.00     0.159 A  
HETATM   20  C   UNL     1     -10.778   6.220  67.452  1.00  0.00    -0.331 A  
HETATM   21  C   UNL     1     -10.243   7.374  66.875  1.00  0.00    -0.346 A  
BRANCH  20  22
HETATM   22  O   UNL     1     -11.642   6.442  68.487  1.00  0.00    -0.100 OA 
HETATM   23  C   UNL     1     -11.240   5.979  69.772  1.00  0.00    -0.369 C  
ENDBRANCH  20  22
ENDBRANCH   9  12
ENDBRANCH   1   9
BRANCH   6  24
HETATM   24  C   UNL     1     -11.104   9.762  70.356  1.00  0.00    -0.367 C  
HETATM   25  C   UNL     1     -12.373   9.838  70.777  1.00  0.00    -0.321 C  
ENDBRANCH   6  24
TORSDOF 4
ENDMDL
MODEL      233
REMARK 921   NORMALIZED FREE ENERGY PREDICTED BY IDOCK:   -2.78 KCAL/MOL
REMARK 922        TOTAL FREE ENERGY PREDICTED BY IDOCK:   -4.21 KCAL/MOL
REMARK 923 INTER-LIGAND FREE ENERGY PREDICTED BY IDOCK:   -3.77 KCAL/MOL
REMARK 924 INTRA-LIGAND FREE ENERGY PREDICTED BY IDOCK:   -0.44 KCAL/MOL
REMARK 927      BINDING AFFINITY PREDICTED BY RF-SCORE:    0.00 PKD
ROOT
HETATM    1  C   UNL     1      -8.053   7.178  70.803  1.00  0.00    -0.109 C  
HETATM    2  N   UNL     1      -8.511   6.268  69.701  1.00  0.00    -0.127 NA 
HETATM    3  C   UNL     1      -7.797   6.366  72.098  1.00  0.00    -0.099 C  
HETATM    4  C   UNL     1      -7.585   5.138  69.487  1.00  0.00    -0.065 C  
HETATM    5  C   UNL     1      -8.245   4.907  71.899  1.00  0.00    -0.115 C  
HETATM    6  C   UNL     1      -9.712   4.846  71.404  1.00  0.00    -0.237 C  
HETATM    7  C   UNL     1      -7.351   4.340  70.779  1.00  0.00    -0.044 C  
HETATM    8  C   UNL     1      -9.826   5.695  70.109  1.00  0.00    -0.190 C  
ENDROOT
BRANCH   1   9
HETATM    9  C   UNL     1      -6.880   8.154  70.411  1.00  0.00    -0.037 C  
HETATM   10  O   UNL     1      -6.529   9.100  71.428  1.00  0.00    -0.082 OA 
HETATM   11  H   UNL     1      -5.822   9.689  71.191  1.00  0.00     0.000 HD 
BRANCH   9  12
HETATM   12  C   UNL     1      -7.193   8.929  69.132  1.00  0.00    -0.067 A  
HETATM   13  N   UNL     1      -7.600  10.428  66.791  1.00  0.00    -0.107 NA 
HETATM   14  C   UNL     1      -6.244   8.945  68.097  1.00  0.00    -0.051 A  
HETATM   15  C   UNL     1      -8.534  10.402  67.755  1.00  0.00    -0.114 A  
HETATM   16  C   UNL     1      -9.689  11.139  67.540  1.00  0.00    -0.193 A  
HETATM   17  C   UNL     1      -6.487   9.699  66.971  1.00  0.00    -0.066 A  
HETATM   18  C   UNL     1     -10.728  11.181  68.474  1.00  0.00    -0.235 A  
HETATM   19  C   UNL     1      -8.392   9.677  68.961  1.00  0.00    -0.122 A  
HETATM   20  C   UNL     1     -10.610  10.479  69.665  1.00  0.00    -0.242 A  
HETATM   21  C   UNL     1      -9.447   9.742  69.904  1.00  0.00    -0.264 A  
BRANCH  20  22
HETATM   22  O   UNL     1     -11.540  10.425  70.664  1.00  0.00    -0.305 OA 
HETATM   23  C   UNL     1     -11.310   9.485  71.708  1.00  0.00    -0.233 C  
ENDBRANCH  20  22
ENDBRANCH   9  12
ENDBRANCH   1   9
BRANCH   6  24
HETATM   24  C   UNL     1     -10.704   5.292  72.453  1.00  0.00    -0.286 C  
HETATM   25  C   UNL     1     -10.815   4.739  73.667  1.00  0.00    -0.377 C  
ENDBRANCH   6  24
TORSDOF 4
ENDMDL
MODEL      234
REMARK 921   NORMALIZED FREE ENERGY PREDICTED BY IDOCK:   -2.74 KCAL/MOL
REMARK 922        TOTAL FREE ENERGY PREDICTED BY IDOCK:   -4.16 KCAL/MOL
REMARK 923 INTER-LIGAND FREE ENERGY PREDICTED BY IDOCK:   -3.77 KCAL/MOL
REMARK 924 INTRA-LIGAND FREE ENERGY PREDICTED BY IDOCK:   -0.39 KCAL/MOL
REMARK 927      BINDING AFFINITY PREDICTED BY RF-SCORE:    0.00 PKD
ROOT
HETATM    1  C   UNL     1      -9.168  10.732  66.826  1.00  0.00    -0.157 C  
HETATM    2  N   UNL     1      -9.851  11.721  65.927  1.00  0.00    -0.232 NA 
HETATM    3  C   UNL     1      -9.448  11.075  68.311  1.00  0.00    -0.172 C  
HETATM    4  C   UNL     1     -11.294  11.839  66.219  1.00  0.00    -0.287 C  
HETATM    5  C   UNL     1     -10.204  12.413  68.407  1.00  0.00    -0.227 C  
HETATM    6  C   UNL     1      -9.447  13.527  67.641  1.00  0.00    -0.222 C  
HETATM    7  C   UNL     1     -11.551  12.189  67.693  1.00  0.00    -0.413 C  
HETATM    8  C   UNL     1      -9.236  13.055  66.177  1.00  0.00     0.005 C  
ENDROOT
BRANCH   1   9
HETATM    9  C   UNL     1      -9.415   9.221  66.455  1.00  0.00    -0.202 C  
HETATM   10  O   UNL     1     -10.429   8.575  67.235  1.00  0.00    -0.276 OA 
HETATM   11  H   UNL     1     -10.578   7.664  67.011  1.00  0.00     0.000 HD 
BRANCH   9  12
HETATM   12  C   UNL     1      -8.135   8.395  66.569  1.00  0.00    -0.101 A  
HETATM   13  N   UNL     1      -5.696   7.004  66.679  1.00  0.00    -0.022 NA 
HETATM   14  C   UNL     1      -6.940   9.038  66.930  1.00  0.00    -0.078 A  
HETATM   15  C   UNL     1      -6.832   6.363  66.360  1.00  0.00    -0.061 A  
HETATM   16  C   UNL     1      -6.742   5.006  66.095  1.00  0.00    -0.053 A  
HETATM   17  C   UNL     1      -5.769   8.314  66.965  1.00  0.00    -0.042 A  
HETATM   18  C   UNL     1      -7.861   4.239  65.758  1.00  0.00    -0.094 A  
HETATM   19  C   UNL     1      -8.091   7.002  66.278  1.00  0.00    -0.115 A  
HETATM   20  C   UNL     1      -9.107   4.844  65.669  1.00  0.00    -0.151 A  
HETATM   21  C   UNL     1      -9.214   6.214  65.921  1.00  0.00    -0.068 A  
BRANCH  20  22
HETATM   22  O   UNL     1     -10.283   4.223  65.355  1.00  0.00    -0.233 OA 
HETATM   23  C   UNL     1     -10.522   3.956  63.977  1.00  0.00    -0.224 C  
ENDBRANCH  20  22
ENDBRANCH   9  12
ENDBRANCH   1   9
BRANCH   6  24
HETATM   24  C   UNL     1      -8.141  13.907  68.299  1.00  0.00    -0.150 C  
HETATM   25  C   UNL     1      -6.971  13.996  67.654  1.00  0.00    -0.198 C  
ENDBRANCH   6  24
TORSDOF 4
ENDMDL
MODEL      235
REMARK 921   NORMALIZED FREE ENERGY PREDICTED BY IDOCK:   -2.73 KCAL/MOL
REMARK 922        TOTAL FREE ENERGY PREDICTED BY IDOCK:   -4.16 KCAL/MOL
REMARK 923 INTER-LIGAND FREE ENERGY PREDICTED BY IDOCK:   -3.36 KCAL/MOL
REMARK 924 INTRA-LIGAND FREE ENERGY PREDICTED BY IDOCK:   -0.80 KCAL/MOL
REMARK 927      BINDING AFFINITY PREDICTED BY RF-SCORE:    0.00 PKD
ROOT
HETATM    1  C   UNL     1      -8.617   5.054  65.915  1.00  0.00    -0.124 C  
HETATM    2  N   UNL     1      -9.567   3.898  66.044  1.00  0.00    -0.187 NA 
HETATM    3  C   UNL     1      -8.121   5.180  64.452  1.00  0.00    -0.121 C  
HETATM    4  C   UNL     1     -10.677   3.976  65.074  1.00  0.00    -0.041 C  
HETATM    5  C   UNL     1      -8.629   3.987  63.621  1.00  0.00    -0.100 C  
HETATM    6  C   UNL     1      -8.246   2.646  64.296  1.00  0.00    -0.082 C  
HETATM    7  C   UNL     1     -10.166   4.091  63.629  1.00  0.00    -0.143 C  
HETATM    8  C   UNL     1      -8.802   2.653  65.746  1.00  0.00    -0.134 C  
ENDROOT
BRANCH   1   9
HETATM    9  C   UNL     1      -9.131   6.405  66.541  1.00  0.00    -0.151 C  
HETATM   10  O   UNL     1      -9.324   7.463  65.594  1.00  0.00    -0.386 OA 
HETATM   11  H   UNL     1      -9.633   8.278  65.972  1.00  0.00     0.000 HD 
BRANCH   9  12
HETATM   12  C   UNL     1      -8.194   6.914  67.635  1.00  0.00    -0.117 A  
HETATM   13  N   UNL     1      -6.393   7.684  69.648  1.00  0.00    -0.031 NA 
HETATM   14  C   UNL     1      -6.818   6.659  67.523  1.00  0.00    -0.076 A  
HETATM   15  C   UNL     1      -7.701   7.964  69.760  1.00  0.00    -0.099 A  
HETATM   16  C   UNL     1      -8.110   8.641  70.899  1.00  0.00    -0.155 A  
HETATM   17  C   UNL     1      -5.975   7.052  68.539  1.00  0.00    -0.025 A  
HETATM   18  C   UNL     1      -9.446   8.988  71.118  1.00  0.00    -0.348 A  
HETATM   19  C   UNL     1      -8.663   7.599  68.791  1.00  0.00    -0.128 A  
HETATM   20  C   UNL     1     -10.408   8.639  70.181  1.00  0.00    -0.207 A  
HETATM   21  C   UNL     1     -10.016   7.945  69.034  1.00  0.00    -0.188 A  
BRANCH  20  22
HETATM   22  O   UNL     1     -11.744   8.913  70.258  1.00  0.00    -0.126 OA 
HETATM   23  C   UNL     1     -12.110  10.229  70.659  1.00  0.00    -0.338 C  
ENDBRANCH  20  22
ENDBRANCH   9  12
ENDBRANCH   1   9
BRANCH   6  24
HETATM   24  C   UNL     1      -6.759   2.380  64.270  1.00  0.00    -0.031 C  
HETATM   25  C   UNL     1      -6.006   2.205  65.363  1.00  0.00    -0.018 C  
ENDBRANCH   6  24
TORSDOF 4
ENDMDL
MODEL      236
REMARK 921   NORMALIZED FREE ENERGY PREDICTED BY IDOCK:   -2.71 KCAL/MOL
REMARK 922        TOTAL FREE ENERGY PREDICTED BY IDOCK:   -4.13 KCAL/MOL
REMARK 923 INTER-LIGAND FREE ENERGY PREDICTED BY IDOCK:   -4.03 KCAL/MOL
REMARK 924 INTRA-LIGAND FREE ENERGY PREDICTED BY IDOCK:   -0.11 KCAL/MOL
REMARK 927      BINDING AFFINITY PREDICTED BY RF-SCORE:    0.00 PKD
ROOT
HETATM    1  C   UNL     1      -9.476   7.993  69.118  1.00  0.00    -0.155 C  
HETATM    2  N   UNL     1     -10.177   7.033  70.035  1.00  0.00    -0.191 NA 
HETATM    3  C   UNL     1      -9.019   7.267  67.828  1.00  0.00    -0.126 C  
HETATM    4  C   UNL     1     -11.284   6.325  69.361  1.00  0.00    -0.420 C  
HETATM    5  C   UNL     1      -9.283   5.755  67.955  1.00  0.00    -0.109 C  
HETATM    6  C   UNL     1      -8.640   5.193  69.249  1.00  0.00    -0.100 C  
HETATM    7  C   UNL     1     -10.810   5.603  68.090  1.00  0.00    -0.161 C  
HETATM    8  C   UNL     1      -9.182   6.006  70.456  1.00  0.00    -0.156 C  
ENDROOT
BRANCH   1   9
HETATM    9  C   UNL     1     -10.245   9.343  68.861  1.00  0.00    -0.200 C  
HETATM   10  O   UNL     1     -11.148   9.310  67.749  1.00  0.00    -0.504 OA 
HETATM   11  H   UNL     1     -11.612  10.124  67.593  1.00  0.00     0.000 HD 
BRANCH   9  12
HETATM   12  C   UNL     1      -9.283  10.512  68.654  1.00  0.00    -0.172 A  
HETATM   13  N   UNL     1      -7.443  12.623  68.439  1.00  0.00    -0.121 NA 
HETATM   14  C   UNL     1      -7.918  10.325  68.923  1.00  0.00    -0.113 A  
HETATM   15  C   UNL     1      -8.739  12.817  68.147  1.00  0.00    -0.193 A  
HETATM   16  C   UNL     1      -9.116  14.088  67.741  1.00  0.00    -0.192 A  
HETATM   17  C   UNL     1      -7.056  11.392  68.808  1.00  0.00    -0.102 A  
HETATM   18  C   UNL     1     -10.437  14.401  67.409  1.00  0.00    -0.261 A  
HETATM   19  C   UNL     1      -9.720  11.803  68.242  1.00  0.00    -0.199 A  
HETATM   20  C   UNL     1     -11.417  13.422  67.496  1.00  0.00    -0.323 A  
HETATM   21  C   UNL     1     -11.057  12.139  67.916  1.00  0.00    -0.295 A  
BRANCH  20  22
HETATM   22  O   UNL     1     -12.741  13.580  67.202  1.00  0.00     0.053 OA 
HETATM   23  C   UNL     1     -13.058  14.103  65.916  1.00  0.00     0.103 C  
ENDBRANCH  20  22
ENDBRANCH   9  12
ENDBRANCH   1   9
BRANCH   6  24
HETATM   24  C   UNL     1      -7.129   5.201  69.203  1.00  0.00    -0.056 C  
HETATM   25  C   UNL     1      -6.385   4.180  68.762  1.00  0.00    -0.033 C  
ENDBRANCH   6  24
TORSDOF 4
ENDMDL
MODEL      237
REMARK 921   NORMALIZED FREE ENERGY PREDICTED BY IDOCK:   -2.65 KCAL/MOL
REMARK 922        TOTAL FREE ENERGY PREDICTED BY IDOCK:   -4.06 KCAL/MOL
REMARK 923 INTER-LIGAND FREE ENERGY PREDICTED BY IDOCK:   -3.71 KCAL/MOL
REMARK 924 INTRA-LIGAND FREE ENERGY PREDICTED BY IDOCK:   -0.35 KCAL/MOL
REMARK 927      BINDING AFFINITY PREDICTED BY RF-SCORE:    0.00 PKD
ROOT
HETATM    1  C   UNL     1      -9.484   7.989  69.123  1.00  0.00    -0.155 C  
HETATM    2  N   UNL     1     -10.127   7.007  70.060  1.00  0.00    -0.185 NA 
HETATM    3  C   UNL     1      -9.006   7.268  67.836  1.00  0.00    -0.130 C  
HETATM    4  C   UNL     1     -11.204   6.237  69.408  1.00  0.00    -0.420 C  
HETATM    5  C   UNL     1      -9.193   5.748  67.986  1.00  0.00    -0.109 C  
HETATM    6  C   UNL     1      -8.509   5.235  69.279  1.00  0.00    -0.101 C  
HETATM    7  C   UNL     1     -10.710   5.522  68.141  1.00  0.00    -0.160 C  
HETATM    8  C   UNL     1      -9.078   6.036  70.482  1.00  0.00    -0.149 C  
ENDROOT
BRANCH   1   9
HETATM    9  C   UNL     1     -10.321   9.296  68.857  1.00  0.00    -0.214 C  
HETATM   10  O   UNL     1     -11.250   9.196  67.771  1.00  0.00    -0.474 OA 
HETATM   11  H   UNL     1     -11.756   9.984  67.611  1.00  0.00     0.000 HD 
BRANCH   9  12
HETATM   12  C   UNL     1      -9.421  10.502  68.599  1.00  0.00    -0.172 A  
HETATM   13  N   UNL     1      -7.787  12.692  67.945  1.00  0.00    -0.140 NA 
HETATM   14  C   UNL     1      -9.831  11.470  67.668  1.00  0.00    -0.192 A  
HETATM   15  C   UNL     1      -7.389  11.794  68.860  1.00  0.00    -0.093 A  
HETATM   16  C   UNL     1      -6.154  12.000  69.456  1.00  0.00    -0.113 A  
HETATM   17  C   UNL     1      -8.992  12.523  67.377  1.00  0.00    -0.188 A  
HETATM   18  C   UNL     1      -5.642  11.132  70.424  1.00  0.00    -0.124 A  
HETATM   19  C   UNL     1      -8.156  10.665  69.231  1.00  0.00    -0.133 A  
HETATM   20  C   UNL     1      -6.376  10.017  70.803  1.00  0.00    -0.074 A  
HETATM   21  C   UNL     1      -7.617   9.787  70.204  1.00  0.00    -0.180 A  
BRANCH  20  22
HETATM   22  O   UNL     1      -6.006   9.087  71.734  1.00  0.00    -0.070 OA 
HETATM   23  C   UNL     1      -5.230   9.551  72.833  1.00  0.00    -0.047 C  
ENDBRANCH  20  22
ENDBRANCH   9  12
ENDBRANCH   1   9
BRANCH   6  24
HETATM   24  C   UNL     1      -7.002   5.316  69.216  1.00  0.00    -0.055 C  
HETATM   25  C   UNL     1      -6.230   5.762  70.215  1.00  0.00    -0.027 C  
ENDBRANCH   6  24
TORSDOF 4
ENDMDL
MODEL      238
REMARK 921   NORMALIZED FREE ENERGY PREDICTED BY IDOCK:   -2.63 KCAL/MOL
REMARK 922        TOTAL FREE ENERGY PREDICTED BY IDOCK:   -4.03 KCAL/MOL
REMARK 923 INTER-LIGAND FREE ENERGY PREDICTED BY IDOCK:   -4.08 KCAL/MOL
REMARK 924 INTRA-LIGAND FREE ENERGY PREDICTED BY IDOCK:    0.05 KCAL/MOL
REMARK 927      BINDING AFFINITY PREDICTED BY RF-SCORE:    0.00 PKD
ROOT
HETATM    1  C   UNL     1      -8.051   9.000  70.060  1.00  0.00    -0.124 C  
HETATM    2  N   UNL     1      -7.989   8.746  68.582  1.00  0.00    -0.106 NA 
HETATM    3  C   UNL     1      -9.526   9.094  70.527  1.00  0.00    -0.291 C  
HETATM    4  C   UNL     1      -8.786   7.568  68.184  1.00  0.00    -0.122 C  
HETATM    5  C   UNL     1     -10.465   9.058  69.308  1.00  0.00    -0.238 C  
HETATM    6  C   UNL     1     -10.067  10.143  68.276  1.00  0.00    -0.179 C  
HETATM    7  C   UNL     1     -10.246   7.684  68.647  1.00  0.00    -0.214 C  
HETATM    8  C   UNL     1      -8.576   9.932  67.897  1.00  0.00    -0.125 C  
ENDROOT
BRANCH   1   9
HETATM    9  C   UNL     1      -7.157   8.042  70.934  1.00  0.00    -0.049 C  
HETATM   10  O   UNL     1      -6.589   6.939  70.215  1.00  0.00    -0.045 OA 
HETATM   11  H   UNL     1      -6.050   6.361  70.742  1.00  0.00     0.000 HD 
BRANCH   9  12
HETATM   12  C   UNL     1      -7.928   7.481  72.127  1.00  0.00    -0.109 A  
HETATM   13  N   UNL     1      -9.195   6.477  74.424  1.00  0.00    -0.186 NA 
HETATM   14  C   UNL     1      -7.888   8.173  73.349  1.00  0.00    -0.229 A  
HETATM   15  C   UNL     1      -9.271   5.814  73.259  1.00  0.00    -0.135 A  
HETATM   16  C   UNL     1      -9.995   4.632  73.247  1.00  0.00    -0.184 A  
HETATM   17  C   UNL     1      -8.520   7.637  74.448  1.00  0.00    -0.213 A  
HETATM   18  C   UNL     1     -10.144   3.863  72.089  1.00  0.00    -0.225 A  
HETATM   19  C   UNL     1      -8.651   6.257  72.068  1.00  0.00    -0.131 A  
HETATM   20  C   UNL     1      -9.543   4.277  70.909  1.00  0.00    -0.183 A  
HETATM   21  C   UNL     1      -8.799   5.459  70.906  1.00  0.00    -0.149 A  
BRANCH  20  22
HETATM   22  O   UNL     1      -9.605   3.633  69.705  1.00  0.00    -0.186 OA 
HETATM   23  C   UNL     1      -8.784   2.480  69.549  1.00  0.00    -0.077 C  
ENDBRANCH  20  22
ENDBRANCH   9  12
ENDBRANCH   1   9
BRANCH   6  24
HETATM   24  C   UNL     1     -10.324  11.547  68.773  1.00  0.00    -0.213 C  
HETATM   25  C   UNL     1     -11.444  11.932  69.396  1.00  0.00    -0.366 C  
ENDBRANCH   6  24
TORSDOF 4
ENDMDL
MODEL      239
REMARK 921   NORMALIZED FREE ENERGY PREDICTED BY IDOCK:   -2.62 KCAL/MOL
REMARK 922        TOTAL FREE ENERGY PREDICTED BY IDOCK:   -4.02 KCAL/MOL
REMARK 923 INTER-LIGAND FREE ENERGY PREDICTED BY IDOCK:   -3.21 KCAL/MOL
REMARK 924 INTRA-LIGAND FREE ENERGY PREDICTED BY IDOCK:   -0.80 KCAL/MOL
REMARK 927      BINDING AFFINITY PREDICTED BY RF-SCORE:    0.00 PKD
ROOT
HETATM    1  C   UNL     1      -9.119   8.347  68.173  1.00  0.00    -0.138 C  
HETATM    2  N   UNL     1      -9.501   9.754  67.814  1.00  0.00    -0.133 NA 
HETATM    3  C   UNL     1      -7.654   8.300  68.676  1.00  0.00    -0.099 C  
HETATM    4  C   UNL     1      -9.250  10.700  68.919  1.00  0.00    -0.183 C  
HETATM    5  C   UNL     1      -6.995   9.680  68.499  1.00  0.00    -0.065 C  
HETATM    6  C   UNL     1      -7.137  10.174  67.037  1.00  0.00    -0.090 C  
HETATM    7  C   UNL     1      -7.791  10.646  69.397  1.00  0.00    -0.126 C  
HETATM    8  C   UNL     1      -8.645  10.172  66.667  1.00  0.00    -0.126 C  
ENDROOT
BRANCH   1   9
HETATM    9  C   UNL     1     -10.146   7.601  69.106  1.00  0.00    -0.194 C  
HETATM   10  O   UNL     1     -11.410   8.262  69.248  1.00  0.00    -0.399 OA 
HETATM   11  H   UNL     1     -12.029   7.812  69.810  1.00  0.00     0.000 HD 
BRANCH   9  12
HETATM   12  C   UNL     1      -9.575   7.369  70.504  1.00  0.00    -0.172 A  
HETATM   13  N   UNL     1      -8.446   7.109  73.063  1.00  0.00    -0.118 NA 
HETATM   14  C   UNL     1      -9.680   8.393  71.460  1.00  0.00    -0.276 A  
HETATM   15  C   UNL     1      -8.360   6.105  72.175  1.00  0.00    -0.110 A  
HETATM   16  C   UNL     1      -7.699   4.956  72.578  1.00  0.00    -0.093 A  
HETATM   17  C   UNL     1      -9.105   8.220  72.699  1.00  0.00    -0.257 A  
HETATM   18  C   UNL     1      -7.554   3.848  71.737  1.00  0.00    -0.061 A  
HETATM   19  C   UNL     1      -8.897   6.172  70.868  1.00  0.00    -0.136 A  
HETATM   20  C   UNL     1      -8.072   3.891  70.450  1.00  0.00    -0.054 A  
HETATM   21  C   UNL     1      -8.730   5.047  70.023  1.00  0.00    -0.119 A  
BRANCH  20  22
HETATM   22  O   UNL     1      -8.010   2.889  69.524  1.00  0.00    -0.045 OA 
HETATM   23  C   UNL     1      -8.521   3.178  68.227  1.00  0.00    -0.081 C  
ENDBRANCH  20  22
ENDBRANCH   9  12
ENDBRANCH   1   9
BRANCH   6  24
HETATM   24  C   UNL     1      -6.322   9.358  66.061  1.00  0.00    -0.068 C  
HETATM   25  C   UNL     1      -6.836   8.711  65.008  1.00  0.00    -0.072 C  
ENDBRANCH   6  24
TORSDOF 4
ENDMDL
MODEL      240
REMARK 921   NORMALIZED FREE ENERGY PREDICTED BY IDOCK:   -2.53 KCAL/MOL
REMARK 922        TOTAL FREE ENERGY PREDICTED BY IDOCK:   -3.90 KCAL/MOL
REMARK 923 INTER-LIGAND FREE ENERGY PREDICTED BY IDOCK:   -3.11 KCAL/MOL
REMARK 924 INTRA-LIGAND FREE ENERGY PREDICTED BY IDOCK:   -0.79 KCAL/MOL
REMARK 927      BINDING AFFINITY PREDICTED BY RF-SCORE:    0.00 PKD
ROOT
HETATM    1  C   UNL     1      -7.474   7.559  66.502  1.00  0.00    -0.084 C  
HETATM    2  N   UNL     1      -8.742   8.281  66.857  1.00  0.00    -0.131 NA 
HETATM    3  C   UNL     1      -6.462   8.539  65.857  1.00  0.00    -0.053 C  
HETATM    4  C   UNL     1      -8.492   9.470  67.695  1.00  0.00    -0.122 C  
HETATM    5  C   UNL     1      -7.127   9.909  65.633  1.00  0.00    -0.112 C  
HETATM    6  C   UNL     1      -8.444   9.755  64.831  1.00  0.00    -0.165 C  
HETATM    7  C   UNL     1      -7.493  10.434  67.035  1.00  0.00    -0.097 C  
HETATM    8  C   UNL     1      -9.360   8.754  65.586  1.00  0.00    -0.150 C  
ENDROOT
BRANCH   1   9
HETATM    9  C   UNL     1      -6.871   6.675  67.658  1.00  0.00    -0.080 C  
HETATM   10  O   UNL     1      -5.534   6.217  67.419  1.00  0.00    -0.005 OA 
HETATM   11  H   UNL     1      -5.170   5.684  68.115  1.00  0.00     0.000 HD 
BRANCH   9  12
HETATM   12  C   UNL     1      -7.743   5.456  67.952  1.00  0.00    -0.092 A  
HETATM   13  N   UNL     1      -9.431   3.243  68.333  1.00  0.00    -0.173 NA 
HETATM   14  C   UNL     1      -7.935   4.498  66.943  1.00  0.00    -0.102 A  
HETATM   15  C   UNL     1      -9.237   4.131  69.321  1.00  0.00    -0.147 A  
HETATM   16  C   UNL     1      -9.900   3.904  70.517  1.00  0.00    -0.180 A  
HETATM   17  C   UNL     1      -8.776   3.433  67.176  1.00  0.00    -0.122 A  
HETATM   18  C   UNL     1      -9.768   4.760  71.615  1.00  0.00    -0.230 A  
HETATM   19  C   UNL     1      -8.409   5.270  69.196  1.00  0.00    -0.091 A  
HETATM   20  C   UNL     1      -8.962   5.885  71.514  1.00  0.00    -0.143 A  
HETATM   21  C   UNL     1      -8.297   6.137  70.311  1.00  0.00    -0.125 A  
BRANCH  20  22
HETATM   22  O   UNL     1      -8.737   6.805  72.499  1.00  0.00    -0.123 OA 
HETATM   23  C   UNL     1      -9.656   7.888  72.590  1.00  0.00    -0.227 C  
ENDBRANCH  20  22
ENDBRANCH   9  12
ENDBRANCH   1   9
BRANCH   6  24
HETATM   24  C   UNL     1      -8.213   9.331  63.400  1.00  0.00    -0.176 C  
HETATM   25  C   UNL     1      -8.512  10.084  62.334  1.00  0.00    -0.180 C  
ENDBRANCH   6  24
TORSDOF 4
ENDMDL
MODEL      241
REMARK 921   NORMALIZED FREE ENERGY PREDICTED BY IDOCK:   -2.52 KCAL/MOL
REMARK 922        TOTAL FREE ENERGY PREDICTED BY IDOCK:   -3.89 KCAL/MOL
REMARK 923 INTER-LIGAND FREE ENERGY PREDICTED BY IDOCK:   -3.80 KCAL/MOL
REMARK 924 INTRA-LIGAND FREE ENERGY PREDICTED BY IDOCK:   -0.09 KCAL/MOL
REMARK 927      BINDING AFFINITY PREDICTED BY RF-SCORE:    0.00 PKD
ROOT
HETATM    1  C   UNL     1      -7.634  15.079  67.525  1.00  0.00    -0.192 C  
HETATM    2  N   UNL     1      -6.325  15.775  67.286  1.00  0.00    -0.305 NA 
HETATM    3  C   UNL     1      -7.721  14.589  68.993  1.00  0.00    -0.113 C  
HETATM    4  C   UNL     1      -6.081  16.857  68.260  1.00  0.00    -0.133 C  
HETATM    5  C   UNL     1      -6.376  14.824  69.705  1.00  0.00    -0.142 C  
HETATM    6  C   UNL     1      -5.212  14.190  68.903  1.00  0.00    -0.080 C  
HETATM    7  C   UNL     1      -6.161  16.350  69.708  1.00  0.00    -0.204 C  
HETATM    8  C   UNL     1      -5.242  14.766  67.461  1.00  0.00     0.211 C  
ENDROOT
BRANCH   1   9
HETATM    9  C   UNL     1      -8.903  15.871  67.033  1.00  0.00    -0.215 C  
HETATM   10  O   UNL     1      -8.832  17.289  67.229  1.00  0.00    -0.217 OA 
HETATM   11  H   UNL     1      -9.597  17.767  66.933  1.00  0.00     0.000 HD 
BRANCH   9  12
HETATM   12  C   UNL     1     -10.180  15.366  67.703  1.00  0.00    -0.246 A  
HETATM   13  N   UNL     1     -12.465  14.505  69.092  1.00  0.00    -0.099 NA 
HETATM   14  C   UNL     1     -10.886  16.227  68.558  1.00  0.00    -0.330 A  
HETATM   15  C   UNL     1     -11.822  13.674  68.256  1.00  0.00    -0.369 A  
HETATM   16  C   UNL     1     -12.334  12.393  68.115  1.00  0.00     0.443 A  
HETATM   17  C   UNL     1     -11.998  15.757  69.221  1.00  0.00    -0.289 A  
HETATM   18  C   UNL     1     -11.748  11.447  67.269  1.00  0.00    -0.125 A  
HETATM   19  C   UNL     1     -10.663  14.038  67.532  1.00  0.00    -0.271 A  
HETATM   20  C   UNL     1     -10.609  11.781  66.550  1.00  0.00    -0.253 A  
HETATM   21  C   UNL     1     -10.072  13.064  66.690  1.00  0.00    -0.251 A  
BRANCH  20  22
HETATM   22  O   UNL     1      -9.934  10.966  65.687  1.00  0.00    -0.227 OA 
HETATM   23  C   UNL     1      -9.957   9.570  65.968  1.00  0.00    -0.278 C  
ENDBRANCH  20  22
ENDBRANCH   9  12
ENDBRANCH   1   9
BRANCH   6  24
HETATM   24  C   UNL     1      -5.256  12.679  68.901  1.00  0.00    -0.062 C  
HETATM   25  C   UNL     1      -5.947  11.947  68.019  1.00  0.00    -0.055 C  
ENDBRANCH   6  24
TORSDOF 4
ENDMDL
MODEL      242
REMARK 921   NORMALIZED FREE ENERGY PREDICTED BY IDOCK:   -2.50 KCAL/MOL
REMARK 922        TOTAL FREE ENERGY PREDICTED BY IDOCK:   -3.87 KCAL/MOL
REMARK 923 INTER-LIGAND FREE ENERGY PREDICTED BY IDOCK:   -3.31 KCAL/MOL
REMARK 924 INTRA-LIGAND FREE ENERGY PREDICTED BY IDOCK:   -0.57 KCAL/MOL
REMARK 927      BINDING AFFINITY PREDICTED BY RF-SCORE:    0.00 PKD
ROOT
HETATM    1  C   UNL     1      -8.185   9.740  67.902  1.00  0.00    -0.113 C  
HETATM    2  N   UNL     1      -8.647  10.348  69.195  1.00  0.00    -0.159 NA 
HETATM    3  C   UNL     1      -9.236   8.729  67.378  1.00  0.00    -0.158 C  
HETATM    4  C   UNL     1      -9.996  10.939  69.083  1.00  0.00    -0.161 C  
HETATM    5  C   UNL     1     -10.351   8.542  68.424  1.00  0.00    -0.241 C  
HETATM    6  C   UNL     1      -9.752   8.163  69.802  1.00  0.00    -0.173 C  
HETATM    7  C   UNL     1     -11.025   9.920  68.572  1.00  0.00    -0.226 C  
HETATM    8  C   UNL     1      -8.723   9.254  70.204  1.00  0.00    -0.204 C  
ENDROOT
BRANCH   1   9
HETATM    9  C   UNL     1      -7.692  10.776  66.823  1.00  0.00    -0.136 C  
HETATM   10  O   UNL     1      -7.558  12.119  67.306  1.00  0.00    -0.145 OA 
HETATM   11  H   UNL     1      -7.261  12.744  66.656  1.00  0.00     0.000 HD 
BRANCH   9  12
HETATM   12  C   UNL     1      -8.612  10.803  65.603  1.00  0.00    -0.185 A  
HETATM   13  N   UNL     1     -10.445  10.864  63.476  1.00  0.00    -0.285 NA 
HETATM   14  C   UNL     1      -9.633  11.765  65.543  1.00  0.00    -0.222 A  
HETATM   15  C   UNL     1      -9.457   9.955  63.499  1.00  0.00    -0.083 A  
HETATM   16  C   UNL     1      -9.388   9.065  62.438  1.00  0.00     0.468 A  
HETATM   17  C   UNL     1     -10.511  11.750  64.482  1.00  0.00    -0.304 A  
HETATM   18  C   UNL     1      -8.399   8.081  62.356  1.00  0.00    -0.122 A  
HETATM   19  C   UNL     1      -8.506   9.862  64.541  1.00  0.00    -0.181 A  
HETATM   20  C   UNL     1      -7.456   7.970  63.368  1.00  0.00    -0.122 A  
HETATM   21  C   UNL     1      -7.518   8.850  64.451  1.00  0.00    -0.106 A  
BRANCH  20  22
HETATM   22  O   UNL     1      -6.435   7.064  63.421  1.00  0.00    -0.043 OA 
HETATM   23  C   UNL     1      -5.148   7.519  63.015  1.00  0.00    -0.034 C  
ENDBRANCH  20  22
ENDBRANCH   9  12
ENDBRANCH   1   9
BRANCH   6  24
HETATM   24  C   UNL     1      -9.137   6.783  69.814  1.00  0.00    -0.143 C  
HETATM   25  C   UNL     1      -9.725   5.701  70.339  1.00  0.00    -0.233 C  
ENDBRANCH   6  24
TORSDOF 4
ENDMDL
MODEL      243
REMARK 921   NORMALIZED FREE ENERGY PREDICTED BY IDOCK:   -2.48 KCAL/MOL
REMARK 922        TOTAL FREE ENERGY PREDICTED BY IDOCK:   -3.85 KCAL/MOL
REMARK 923 INTER-LIGAND FREE ENERGY PREDICTED BY IDOCK:   -4.04 KCAL/MOL
REMARK 924 INTRA-LIGAND FREE ENERGY PREDICTED BY IDOCK:    0.19 KCAL/MOL
REMARK 927      BINDING AFFINITY PREDICTED BY RF-SCORE:    0.00 PKD
ROOT
HETATM    1  C   UNL     1      -8.763   5.340  68.078  1.00  0.00    -0.102 C  
HETATM    2  N   UNL     1      -9.643   5.163  66.875  1.00  0.00    -0.137 NA 
HETATM    3  C   UNL     1      -8.270   6.807  68.172  1.00  0.00    -0.114 C  
HETATM    4  C   UNL     1     -10.752   6.137  66.846  1.00  0.00    -0.340 C  
HETATM    5  C   UNL     1      -8.703   7.587  66.917  1.00  0.00    -0.131 C  
HETATM    6  C   UNL     1      -8.244   6.855  65.630  1.00  0.00    -0.134 C  
HETATM    7  C   UNL     1     -10.244   7.584  66.930  1.00  0.00    -0.359 C  
HETATM    8  C   UNL     1      -8.805   5.407  65.666  1.00  0.00    -0.153 C  
ENDROOT
BRANCH   1   9
HETATM    9  C   UNL     1      -9.358   4.772  69.422  1.00  0.00    -0.134 C  
HETATM   10  O   UNL     1     -10.684   5.224  69.722  1.00  0.00    -0.286 OA 
HETATM   11  H   UNL     1     -11.043   4.882  70.532  1.00  0.00     0.000 HD 
BRANCH   9  12
HETATM   12  C   UNL     1      -8.466   5.098  70.618  1.00  0.00    -0.118 A  
HETATM   13  N   UNL     1      -6.811   5.517  72.849  1.00  0.00    -0.073 NA 
HETATM   14  C   UNL     1      -7.260   4.396  70.779  1.00  0.00    -0.041 A  
HETATM   15  C   UNL     1      -7.944   6.222  72.699  1.00  0.00    -0.106 A  
HETATM   16  C   UNL     1      -8.249   7.150  73.682  1.00  0.00    -0.149 A  
HETATM   17  C   UNL     1      -6.486   4.633  71.892  1.00  0.00    -0.023 A  
HETATM   18  C   UNL     1      -9.400   7.941  73.626  1.00  0.00    -0.288 A  
HETATM   19  C   UNL     1      -8.827   6.056  71.607  1.00  0.00    -0.139 A  
HETATM   20  C   UNL     1     -10.282   7.795  72.565  1.00  0.00    -0.260 A  
HETATM   21  C   UNL     1      -9.997   6.855  71.571  1.00  0.00    -0.185 A  
BRANCH  20  22
HETATM   22  O   UNL     1     -11.439   8.497  72.377  1.00  0.00    -0.369 OA 
HETATM   23  C   UNL     1     -12.504   7.819  71.720  1.00  0.00    -0.320 C  
ENDBRANCH  20  22
ENDBRANCH   9  12
ENDBRANCH   1   9
BRANCH   6  24
HETATM   24  C   UNL     1      -6.744   6.869  65.452  1.00  0.00    -0.051 C  
HETATM   25  C   UNL     1      -5.951   5.812  65.668  1.00  0.00    -0.025 C  
ENDBRANCH   6  24
TORSDOF 4
ENDMDL
MODEL      244
REMARK 921   NORMALIZED FREE ENERGY PREDICTED BY IDOCK:   -2.42 KCAL/MOL
REMARK 922        TOTAL FREE ENERGY PREDICTED BY IDOCK:   -3.78 KCAL/MOL
REMARK 923 INTER-LIGAND FREE ENERGY PREDICTED BY IDOCK:   -3.48 KCAL/MOL
REMARK 924 INTRA-LIGAND FREE ENERGY PREDICTED BY IDOCK:   -0.30 KCAL/MOL
REMARK 927      BINDING AFFINITY PREDICTED BY RF-SCORE:    0.00 PKD
ROOT
HETATM    1  C   UNL     1      -7.971   4.345  70.664  1.00  0.00    -0.060 C  
HETATM    2  N   UNL     1      -8.483   3.198  69.843  1.00  0.00    -0.051 NA 
HETATM    3  C   UNL     1      -6.473   4.138  71.001  1.00  0.00    -0.026 C  
HETATM    4  C   UNL     1      -7.659   2.960  68.641  1.00  0.00    -0.048 C  
HETATM    5  C   UNL     1      -6.017   2.746  70.527  1.00  0.00    -0.018 C  
HETATM    6  C   UNL     1      -6.943   1.641  71.096  1.00  0.00    -0.031 C  
HETATM    7  C   UNL     1      -6.180   2.747  68.995  1.00  0.00    -0.029 C  
HETATM    8  C   UNL     1      -8.404   1.971  70.686  1.00  0.00    -0.049 C  
ENDROOT
BRANCH   1   9
HETATM    9  C   UNL     1      -8.313   5.773  70.092  1.00  0.00    -0.117 C  
HETATM   10  O   UNL     1      -7.171   6.542  69.695  1.00  0.00    -0.073 OA 
HETATM   11  H   UNL     1      -7.376   7.403  69.350  1.00  0.00     0.000 HD 
BRANCH   9  12
HETATM   12  C   UNL     1      -9.119   6.604  71.088  1.00  0.00    -0.152 A  
HETATM   13  N   UNL     1     -10.681   7.976  72.976  1.00  0.00    -0.335 NA 
HETATM   14  C   UNL     1      -9.197   6.177  72.423  1.00  0.00    -0.139 A  
HETATM   15  C   UNL     1     -10.596   8.419  71.711  1.00  0.00    -0.282 A  
HETATM   16  C   UNL     1     -11.305   9.566  71.392  1.00  0.00    -0.462 A  
HETATM   17  C   UNL     1      -9.981   6.881  73.311  1.00  0.00    -0.215 A  
HETATM   18  C   UNL     1     -11.285  10.118  70.107  1.00  0.00    -0.377 A  
HETATM   19  C   UNL     1      -9.837   7.773  70.708  1.00  0.00    -0.183 A  
HETATM   20  C   UNL     1     -10.548   9.501  69.107  1.00  0.00    -0.222 A  
HETATM   21  C   UNL     1      -9.839   8.336  69.408  1.00  0.00    -0.185 A  
BRANCH  20  22
HETATM   22  O   UNL     1     -10.434   9.926  67.813  1.00  0.00    -0.208 OA 
HETATM   23  C   UNL     1     -11.395  10.871  67.358  1.00  0.00    -0.195 C  
ENDBRANCH  20  22
ENDBRANCH   9  12
ENDBRANCH   1   9
BRANCH   6  24
HETATM   24  C   UNL     1      -6.807   1.475  72.592  1.00  0.00    -0.018 C  
HETATM   25  C   UNL     1      -5.868   2.075  73.333  1.00  0.00     0.000 C  
ENDBRANCH   6  24
TORSDOF 4
ENDMDL
MODEL      245
REMARK 921   NORMALIZED FREE ENERGY PREDICTED BY IDOCK:   -2.27 KCAL/MOL
REMARK 922        TOTAL FREE ENERGY PREDICTED BY IDOCK:   -3.59 KCAL/MOL
REMARK 923 INTER-LIGAND FREE ENERGY PREDICTED BY IDOCK:   -3.71 KCAL/MOL
REMARK 924 INTRA-LIGAND FREE ENERGY PREDICTED BY IDOCK:    0.12 KCAL/MOL
REMARK 927      BINDING AFFINITY PREDICTED BY RF-SCORE:    0.00 PKD
ROOT
HETATM    1  C   UNL     1      -8.990   9.522  66.729  1.00  0.00    -0.138 C  
HETATM    2  N   UNL     1      -8.582  10.332  67.925  1.00  0.00    -0.118 NA 
HETATM    3  C   UNL     1     -10.416   8.948  66.930  1.00  0.00    -0.304 C  
HETATM    4  C   UNL     1      -9.571  11.377  68.256  1.00  0.00    -0.192 C  
HETATM    5  C   UNL     1     -10.907   9.253  68.357  1.00  0.00    -0.125 C  
HETATM    6  C   UNL     1      -9.881   8.757  69.408  1.00  0.00    -0.186 C  
HETATM    7  C   UNL     1     -10.975  10.789  68.461  1.00  0.00    -0.291 C  
HETATM    8  C   UNL     1      -8.506   9.405  69.090  1.00  0.00    -0.134 C  
ENDROOT
BRANCH   1   9
HETATM    9  C   UNL     1      -8.771  10.235  65.341  1.00  0.00    -0.169 C  
HETATM   10  O   UNL     1      -9.951  10.341  64.535  1.00  0.00    -0.339 OA 
HETATM   11  H   UNL     1      -9.819  10.771  63.699  1.00  0.00     0.000 HD 
BRANCH   9  12
HETATM   12  C   UNL     1      -7.693   9.538  64.512  1.00  0.00    -0.118 A  
HETATM   13  N   UNL     1      -5.774   8.351  62.840  1.00  0.00    -0.073 NA 
HETATM   14  C   UNL     1      -6.899  10.307  63.646  1.00  0.00    -0.075 A  
HETATM   15  C   UNL     1      -6.502   7.600  63.682  1.00  0.00    -0.054 A  
HETATM   16  C   UNL     1      -6.261   6.235  63.685  1.00  0.00    -0.026 A  
HETATM   17  C   UNL     1      -5.975   9.678  62.842  1.00  0.00    -0.101 A  
HETATM   18  C   UNL     1      -6.957   5.360  64.524  1.00  0.00    -0.049 A  
HETATM   19  C   UNL     1      -7.490   8.130  64.544  1.00  0.00    -0.102 A  
HETATM   20  C   UNL     1      -7.932   5.857  65.377  1.00  0.00    -0.120 A  
HETATM   21  C   UNL     1      -8.197   7.228  65.378  1.00  0.00    -0.137 A  
BRANCH  20  22
HETATM   22  O   UNL     1      -8.686   5.125  66.251  1.00  0.00    -0.116 OA 
HETATM   23  C   UNL     1      -9.719   4.320  65.692  1.00  0.00    -0.205 C  
ENDBRANCH  20  22
ENDBRANCH   9  12
ENDBRANCH   1   9
BRANCH   6  24
HETATM   24  C   UNL     1      -9.787   7.251  69.470  1.00  0.00    -0.163 C  
HETATM   25  C   UNL     1     -10.797   6.448  69.825  1.00  0.00    -0.373 C  
ENDBRANCH   6  24
TORSDOF 4
ENDMDL
MODEL      246
REMARK 921   NORMALIZED FREE ENERGY PREDICTED BY IDOCK:   -2.26 KCAL/MOL
REMARK 922        TOTAL FREE ENERGY PREDICTED BY IDOCK:   -3.57 KCAL/MOL
REMARK 923 INTER-LIGAND FREE ENERGY PREDICTED BY IDOCK:   -3.78 KCAL/MOL
REMARK 924 INTRA-LIGAND FREE ENERGY PREDICTED BY IDOCK:    0.20 KCAL/MOL
REMARK 927      BINDING AFFINITY PREDICTED BY RF-SCORE:    0.00 PKD
ROOT
HETATM    1  C   UNL     1      -8.275   9.932  68.694  1.00  0.00    -0.108 C  
HETATM    2  N   UNL     1      -8.308   8.433  68.612  1.00  0.00    -0.120 NA 
HETATM    3  C   UNL     1      -7.393  10.385  69.885  1.00  0.00    -0.149 C  
HETATM    4  C   UNL     1      -6.954   7.846  68.570  1.00  0.00    -0.071 C  
HETATM    5  C   UNL     1      -6.956   9.160  70.710  1.00  0.00    -0.097 C  
HETATM    6  C   UNL     1      -8.185   8.314  71.129  1.00  0.00    -0.137 C  
HETATM    7  C   UNL     1      -6.098   8.298  69.763  1.00  0.00    -0.029 C  
HETATM    8  C   UNL     1      -8.974   7.931  69.847  1.00  0.00    -0.146 C  
ENDROOT
BRANCH   1   9
HETATM    9  C   UNL     1      -7.950  10.662  67.336  1.00  0.00    -0.111 C  
HETATM   10  O   UNL     1      -6.727  11.410  67.342  1.00  0.00    -0.078 OA 
HETATM   11  H   UNL     1      -6.531  11.850  66.523  1.00  0.00     0.000 HD 
BRANCH   9  12
HETATM   12  C   UNL     1      -9.077  11.603  66.916  1.00  0.00    -0.188 A  
HETATM   13  N   UNL     1     -11.182  13.221  66.000  1.00  0.00    -0.294 NA 
HETATM   14  C   UNL     1     -10.327  11.059  66.579  1.00  0.00    -0.295 A  
HETATM   15  C   UNL     1     -10.005  13.766  66.346  1.00  0.00    -0.297 A  
HETATM   16  C   UNL     1      -9.884  15.142  66.231  1.00  0.00    -0.317 A  
HETATM   17  C   UNL     1     -11.326  11.893  66.130  1.00  0.00    -0.324 A  
HETATM   18  C   UNL     1      -8.706  15.815  66.568  1.00  0.00    -0.354 A  
HETATM   19  C   UNL     1      -8.901  13.011  66.806  1.00  0.00    -0.144 A  
HETATM   20  C   UNL     1      -7.609  15.095  67.020  1.00  0.00    -0.086 A  
HETATM   21  C   UNL     1      -7.709  13.706  67.129  1.00  0.00     0.012 A  
BRANCH  20  22
HETATM   22  O   UNL     1      -6.400  15.615  67.386  1.00  0.00    -0.203 OA 
HETATM   23  C   UNL     1      -6.266  16.044  68.737  1.00  0.00    -0.115 C  
ENDBRANCH  20  22
ENDBRANCH   9  12
ENDBRANCH   1   9
BRANCH   6  24
HETATM   24  C   UNL     1      -9.065   9.018  72.136  1.00  0.00     0.138 C  
HETATM   25  C   UNL     1     -10.139   8.465  72.713  1.00  0.00    -0.268 C  
ENDBRANCH   6  24
TORSDOF 4
ENDMDL
MODEL      247
REMARK 921   NORMALIZED FREE ENERGY PREDICTED BY IDOCK:   -2.19 KCAL/MOL
REMARK 922        TOTAL FREE ENERGY PREDICTED BY IDOCK:   -3.49 KCAL/MOL
REMARK 923 INTER-LIGAND FREE ENERGY PREDICTED BY IDOCK:   -3.04 KCAL/MOL
REMARK 924 INTRA-LIGAND FREE ENERGY PREDICTED BY IDOCK:   -0.45 KCAL/MOL
REMARK 927      BINDING AFFINITY PREDICTED BY RF-SCORE:    0.00 PKD
ROOT
HETATM    1  C   UNL     1      -8.141   6.242  72.824  1.00  0.00    -0.105 C  
HETATM    2  N   UNL     1      -7.103   5.311  72.267  1.00  0.00    -0.083 NA 
HETATM    3  C   UNL     1      -8.796   5.622  74.084  1.00  0.00    -0.122 C  
HETATM    4  C   UNL     1      -6.109   4.910  73.282  1.00  0.00    -0.033 C  
HETATM    5  C   UNL     1      -8.294   4.179  74.280  1.00  0.00    -0.091 C  
HETATM    6  C   UNL     1      -8.507   3.345  72.992  1.00  0.00    -0.082 C  
HETATM    7  C   UNL     1      -6.776   4.289  74.519  1.00  0.00    -0.060 C  
HETATM    8  C   UNL     1      -7.804   4.075  71.816  1.00  0.00    -0.071 C  
ENDROOT
BRANCH   1   9
HETATM    9  C   UNL     1      -7.662   7.731  73.012  1.00  0.00    -0.117 C  
HETATM   10  O   UNL     1      -8.693   8.639  73.418  1.00  0.00    -0.333 OA 
HETATM   11  H   UNL     1      -8.405   9.537  73.531  1.00  0.00     0.000 HD 
BRANCH   9  12
HETATM   12  C   UNL     1      -7.020   8.283  71.741  1.00  0.00    -0.084 A  
HETATM   13  N   UNL     1      -5.783   9.443  69.501  1.00  0.00    -0.034 NA 
HETATM   14  C   UNL     1      -5.702   8.762  71.798  1.00  0.00    -0.055 A  
HETATM   15  C   UNL     1      -7.035   8.964  69.416  1.00  0.00    -0.053 A  
HETATM   16  C   UNL     1      -7.672   9.067  68.190  1.00  0.00    -0.096 A  
HETATM   17  C   UNL     1      -5.141   9.327  70.674  1.00  0.00    -0.023 A  
HETATM   18  C   UNL     1      -8.973   8.598  67.987  1.00  0.00    -0.141 A  
HETATM   19  C   UNL     1      -7.720   8.376  70.504  1.00  0.00    -0.080 A  
HETATM   20  C   UNL     1      -9.666   8.019  69.040  1.00  0.00    -0.159 A  
HETATM   21  C   UNL     1      -9.043   7.918  70.287  1.00  0.00    -0.152 A  
BRANCH  20  22
HETATM   22  O   UNL     1     -10.935   7.515  68.989  1.00  0.00    -0.114 OA 
HETATM   23  C   UNL     1     -11.190   6.333  69.740  1.00  0.00    -0.430 C  
ENDBRANCH  20  22
ENDBRANCH   9  12
ENDBRANCH   1   9
BRANCH   6  24
HETATM   24  C   UNL     1      -9.966   3.085  72.695  1.00  0.00    -0.221 C  
HETATM   25  C   UNL     1     -10.872   2.743  73.619  1.00  0.00    -0.302 C  
ENDBRANCH   6  24
TORSDOF 4
ENDMDL
MODEL      248
REMARK 921   NORMALIZED FREE ENERGY PREDICTED BY IDOCK:   -2.10 KCAL/MOL
REMARK 922        TOTAL FREE ENERGY PREDICTED BY IDOCK:   -3.38 KCAL/MOL
REMARK 923 INTER-LIGAND FREE ENERGY PREDICTED BY IDOCK:   -3.69 KCAL/MOL
REMARK 924 INTRA-LIGAND FREE ENERGY PREDICTED BY IDOCK:    0.31 KCAL/MOL
REMARK 927      BINDING AFFINITY PREDICTED BY RF-SCORE:    0.00 PKD
ROOT
HETATM    1  C   UNL     1     -11.694  15.068  65.907  1.00  0.00    -0.098 C  
HETATM    2  N   UNL     1     -12.706  14.111  65.345  1.00  0.00    -0.617 NA 
HETATM    3  C   UNL     1     -10.301  14.393  65.982  1.00  0.00    -0.319 C  
HETATM    4  C   UNL     1     -12.280  13.545  64.050  1.00  0.00    -0.402 C  
HETATM    5  C   UNL     1     -10.419  12.904  65.609  1.00  0.00    -0.292 C  
HETATM    6  C   UNL     1     -11.498  12.205  66.474  1.00  0.00    -0.430 C  
HETATM    7  C   UNL     1     -10.902  12.872  64.146  1.00  0.00    -0.445 C  
HETATM    8  C   UNL     1     -12.834  12.978  66.305  1.00  0.00     0.718 C  
ENDROOT
BRANCH   1   9
HETATM    9  C   UNL     1     -11.686  16.492  65.235  1.00  0.00     0.897 C  
HETATM   10  O   UNL     1     -11.168  16.516  63.899  1.00  0.00    -1.440 OA 
HETATM   11  H   UNL     1     -11.163  17.374  63.494  1.00  0.00     0.000 HD 
BRANCH   9  12
HETATM   12  C   UNL     1     -10.899  17.505  66.065  1.00  0.00     0.031 A  
HETATM   13  N   UNL     1      -9.312  19.343  67.476  1.00  0.00    -0.305 NA 
HETATM   14  C   UNL     1     -10.205  18.532  65.405  1.00  0.00     0.551 A  
HETATM   15  C   UNL     1      -9.992  18.387  68.129  1.00  0.00    -0.364 A  
HETATM   16  C   UNL     1      -9.873  18.356  69.510  1.00  0.00     0.230 A  
HETATM   17  C   UNL     1      -9.436  19.405  66.140  1.00  0.00    -0.311 A  
HETATM   18  C   UNL     1     -10.540  17.407  70.292  1.00  0.00     0.841 A  
HETATM   19  C   UNL     1     -10.802  17.425  67.483  1.00  0.00    -0.203 A  
HETATM   20  C   UNL     1     -11.339  16.453  69.679  1.00  0.00    -0.187 A  
HETATM   21  C   UNL     1     -11.459  16.462  68.287  1.00  0.00    -0.143 A  
BRANCH  20  22
HETATM   22  O   UNL     1     -12.049  15.471  70.311  1.00  0.00    -0.340 OA 
HETATM   23  C   UNL     1     -12.382  15.695  71.677  1.00  0.00    -0.428 C  
ENDBRANCH  20  22
ENDBRANCH   9  12
ENDBRANCH   1   9
BRANCH   6  24
HETATM   24  C   UNL     1     -11.100  12.088  67.927  1.00  0.00    -0.289 C  
HETATM   25  C   UNL     1     -11.345  11.017  68.691  1.00  0.00    -0.346 C  
ENDBRANCH   6  24
TORSDOF 4
ENDMDL
MODEL      249
REMARK 921   NORMALIZED FREE ENERGY PREDICTED BY IDOCK:   -2.09 KCAL/MOL
REMARK 922        TOTAL FREE ENERGY PREDICTED BY IDOCK:   -3.37 KCAL/MOL
REMARK 923 INTER-LIGAND FREE ENERGY PREDICTED BY IDOCK:   -2.79 KCAL/MOL
REMARK 924 INTRA-LIGAND FREE ENERGY PREDICTED BY IDOCK:   -0.58 KCAL/MOL
REMARK 927      BINDING AFFINITY PREDICTED BY RF-SCORE:    0.00 PKD
ROOT
HETATM    1  C   UNL     1      -8.574   4.247  66.897  1.00  0.00    -0.108 C  
HETATM    2  N   UNL     1      -8.418   2.814  66.477  1.00  0.00    -0.097 NA 
HETATM    3  C   UNL     1      -7.184   4.912  67.064  1.00  0.00    -0.077 C  
HETATM    4  C   UNL     1      -7.575   2.674  65.273  1.00  0.00    -0.076 C  
HETATM    5  C   UNL     1      -6.075   3.855  66.903  1.00  0.00    -0.028 C  
HETATM    6  C   UNL     1      -6.314   2.660  67.860  1.00  0.00    -0.032 C  
HETATM    7  C   UNL     1      -6.199   3.330  65.460  1.00  0.00    -0.028 C  
HETATM    8  C   UNL     1      -7.734   2.093  67.587  1.00  0.00    -0.060 C  
ENDROOT
BRANCH   1   9
HETATM    9  C   UNL     1      -9.590   5.084  66.031  1.00  0.00    -0.168 C  
HETATM   10  O   UNL     1     -10.228   4.343  64.984  1.00  0.00    -0.311 OA 
HETATM   11  H   UNL     1     -10.840   4.848  64.461  1.00  0.00     0.000 HD 
BRANCH   9  12
HETATM   12  C   UNL     1      -8.925   6.309  65.407  1.00  0.00     0.079 A  
HETATM   13  N   UNL     1      -7.544   8.471  64.263  1.00  0.00    -0.115 NA 
HETATM   14  C   UNL     1      -8.058   6.131  64.317  1.00  0.00    -0.093 A  
HETATM   15  C   UNL     1      -8.392   8.669  65.285  1.00  0.00    -0.168 A  
HETATM   16  C   UNL     1      -8.549   9.969  65.737  1.00  0.00    -0.156 A  
HETATM   17  C   UNL     1      -7.399   7.221  63.794  1.00  0.00    -0.089 A  
HETATM   18  C   UNL     1      -9.409  10.291  66.791  1.00  0.00    -0.187 A  
HETATM   19  C   UNL     1      -9.113   7.627  65.913  1.00  0.00    -0.101 A  
HETATM   20  C   UNL     1     -10.125   9.285  67.424  1.00  0.00    -0.223 A  
HETATM   21  C   UNL     1      -9.969   7.966  66.990  1.00  0.00    -0.322 A  
BRANCH  20  22
HETATM   22  O   UNL     1     -11.000   9.448  68.460  1.00  0.00    -0.148 OA 
HETATM   23  C   UNL     1     -10.517   9.148  69.765  1.00  0.00    -0.223 C  
ENDBRANCH  20  22
ENDBRANCH   9  12
ENDBRANCH   1   9
BRANCH   6  24
HETATM   24  C   UNL     1      -6.129   3.026  69.314  1.00  0.00    -0.024 C  
HETATM   25  C   UNL     1      -7.107   2.996  70.228  1.00  0.00    -0.034 C  
ENDBRANCH   6  24
TORSDOF 4
ENDMDL
MODEL      250
REMARK 921   NORMALIZED FREE ENERGY PREDICTED BY IDOCK:   -1.63 KCAL/MOL
REMARK 922        TOTAL FREE ENERGY PREDICTED BY IDOCK:   -2.80 KCAL/MOL
REMARK 923 INTER-LIGAND FREE ENERGY PREDICTED BY IDOCK:   -2.39 KCAL/MOL
REMARK 924 INTRA-LIGAND FREE ENERGY PREDICTED BY IDOCK:   -0.41 KCAL/MOL
REMARK 927      BINDING AFFINITY PREDICTED BY RF-SCORE:    0.00 PKD
ROOT
HETATM    1  C   UNL     1      -8.774  17.154  68.158  1.00  0.00    -0.232 C  
HETATM    2  N   UNL     1      -7.982  16.219  67.291  1.00  0.00    -0.154 NA 
HETATM    3  C   UNL     1      -7.825  18.114  68.919  1.00  0.00    -0.204 C  
HETATM    4  C   UNL     1      -7.063  16.940  66.388  1.00  0.00    -0.206 C  
HETATM    5  C   UNL     1      -6.360  17.708  68.672  1.00  0.00    -0.192 C  
HETATM    6  C   UNL     1      -6.140  16.213  69.015  1.00  0.00    -0.131 C  
HETATM    7  C   UNL     1      -6.124  17.879  67.159  1.00  0.00    -0.167 C  
HETATM    8  C   UNL     1      -7.149  15.370  68.189  1.00  0.00    -0.121 C  
ENDROOT
BRANCH   1   9
HETATM    9  C   UNL     1      -9.974  17.872  67.434  1.00  0.00    -0.325 C  
HETATM   10  O   UNL     1     -10.995  18.358  68.315  1.00  0.00    -0.238 OA 
HETATM   11  H   UNL     1     -11.719  18.791  67.878  1.00  0.00     0.000 HD 
BRANCH   9  12
HETATM   12  C   UNL     1     -10.637  16.963  66.400  1.00  0.00    -0.183 A  
HETATM   13  N   UNL     1     -11.934  15.441  64.428  1.00  0.00    -0.380 NA 
HETATM   14  C   UNL     1     -10.602  17.334  65.046  1.00  0.00     0.270 A  
HETATM   15  C   UNL     1     -11.954  15.051  65.713  1.00  0.00     0.051 A  
HETATM   16  C   UNL     1     -12.634  13.880  66.010  1.00  0.00    -0.467 A  
HETATM   17  C   UNL     1     -11.257  16.558  64.118  1.00  0.00     0.541 A  
HETATM   18  C   UNL     1     -12.716  13.379  67.312  1.00  0.00     0.716 A  
HETATM   19  C   UNL     1     -11.331  15.772  66.757  1.00  0.00     0.080 A  
HETATM   20  C   UNL     1     -12.114  14.070  68.353  1.00  0.00    -0.283 A  
HETATM   21  C   UNL     1     -11.435  15.259  68.073  1.00  0.00    -0.351 A  
BRANCH  20  22
HETATM   22  O   UNL     1     -12.108  13.701  69.668  1.00  0.00    -0.316 OA 
HETATM   23  C   UNL     1     -11.612  14.654  70.603  1.00  0.00    -0.250 C  
ENDBRANCH  20  22
ENDBRANCH   9  12
ENDBRANCH   1   9
BRANCH   6  24
HETATM   24  C   UNL     1      -6.254  15.928  70.495  1.00  0.00     0.217 C  
HETATM   25  C   UNL     1      -5.209  15.827  71.324  1.00  0.00    -0.065 C  
ENDBRANCH   6  24
TORSDOF 4
ENDMDL
MODEL      251
REMARK 921   NORMALIZED FREE ENERGY PREDICTED BY IDOCK:    1.21 KCAL/MOL
REMARK 922        TOTAL FREE ENERGY PREDICTED BY IDOCK:    0.71 KCAL/MOL
REMARK 923 INTER-LIGAND FREE ENERGY PREDICTED BY IDOCK:    0.51 KCAL/MOL
REMARK 924 INTRA-LIGAND FREE ENERGY PREDICTED BY IDOCK:    0.20 KCAL/MOL
REMARK 927      BINDING AFFINITY PREDICTED BY RF-SCORE:    0.00 PKD
ROOT
HETATM    1  C   UNL     1     -12.167  12.914  68.625  1.00  0.00     0.034 C  
HETATM    2  N   UNL     1     -13.250  12.208  69.388  1.00  0.00     1.663 NA 
HETATM    3  C   UNL     1     -11.031  13.350  69.586  1.00  0.00     0.075 C  
HETATM    4  C   UNL     1     -12.727  11.087  70.193  1.00  0.00    -0.135 C  
HETATM    5  C   UNL     1     -11.440  13.068  71.043  1.00  0.00     1.391 C  
HETATM    6  C   UNL     1     -12.811  13.715  71.364  1.00  0.00    -0.442 C  
HETATM    7  C   UNL     1     -11.610  11.540  71.146  1.00  0.00     0.866 C  
HETATM    8  C   UNL     1     -13.849  13.194  70.333  1.00  0.00     2.298 C  
ENDROOT
BRANCH   1   9
HETATM    9  C   UNL     1     -11.667  12.160  67.336  1.00  0.00    -0.304 C  
HETATM   10  O   UNL     1     -10.345  11.616  67.440  1.00  0.00    -0.199 OA 
HETATM   11  H   UNL     1     -10.044  11.161  66.663  1.00  0.00     0.000 HD 
BRANCH   9  12
HETATM   12  C   UNL     1     -11.711  13.059  66.102  1.00  0.00    -0.445 A  
HETATM   13  N   UNL     1     -11.720  14.575  63.736  1.00  0.00    -0.023 NA 
HETATM   14  C   UNL     1     -12.233  12.545  64.904  1.00  0.00    -0.534 A  
HETATM   15  C   UNL     1     -11.244  15.097  64.878  1.00  0.00    -0.417 A  
HETATM   16  C   UNL     1     -10.768  16.397  64.831  1.00  0.00    -0.213 A  
HETATM   17  C   UNL     1     -12.210  13.325  63.769  1.00  0.00    -0.439 A  
HETATM   18  C   UNL     1     -10.254  17.042  65.960  1.00  0.00    -0.337 A  
HETATM   19  C   UNL     1     -11.201  14.389  66.101  1.00  0.00    -0.336 A  
HETATM   20  C   UNL     1     -10.200  16.366  67.171  1.00  0.00    -0.282 A  
HETATM   21  C   UNL     1     -10.664  15.050  67.234  1.00  0.00    -0.298 A  
BRANCH  20  22
HETATM   22  O   UNL     1      -9.730  16.867  68.352  1.00  0.00    -0.244 OA 
HETATM   23  C   UNL     1     -10.486  17.912  68.956  1.00  0.00    -0.090 C  
ENDBRANCH  20  22
ENDBRANCH   9  12
ENDBRANCH   1   9
BRANCH   6  24
HETATM   24  C   UNL     1     -12.756  15.225  71.386  1.00  0.00    -0.462 C  
HETATM   25  C   UNL     1     -11.909  15.936  72.139  1.00  0.00    -0.615 C  
ENDBRANCH   6  24
TORSDOF 4
ENDMDL
MODEL      252
REMARK 921   NORMALIZED FREE ENERGY PREDICTED BY IDOCK:    1.93 KCAL/MOL
REMARK 922        TOTAL FREE ENERGY PREDICTED BY IDOCK:    1.60 KCAL/MOL
REMARK 923 INTER-LIGAND FREE ENERGY PREDICTED BY IDOCK:    0.81 KCAL/MOL
REMARK 924 INTRA-LIGAND FREE ENERGY PREDICTED BY IDOCK:    0.79 KCAL/MOL
REMARK 927      BINDING AFFINITY PREDICTED BY RF-SCORE:    0.00 PKD
ROOT
HETATM    1  C   UNL     1      -7.937  16.142  67.041  1.00  0.00    -0.219 C  
HETATM    2  N   UNL     1      -9.233  16.278  67.786  1.00  0.00    -0.203 NA 
HETATM    3  C   UNL     1      -6.767  16.695  67.894  1.00  0.00    -0.155 C  
HETATM    4  C   UNL     1      -9.172  15.666  69.129  1.00  0.00    -0.254 C  
HETATM    5  C   UNL     1      -7.316  17.356  69.171  1.00  0.00    -0.144 C  
HETATM    6  C   UNL     1      -8.389  18.418  68.822  1.00  0.00    -0.255 C  
HETATM    7  C   UNL     1      -8.013  16.232  69.962  1.00  0.00     1.043 C  
HETATM    8  C   UNL     1      -9.494  17.734  67.973  1.00  0.00    -0.281 C  
ENDROOT
BRANCH   1   9
HETATM    9  C   UNL     1      -7.673  14.716  66.428  1.00  0.00     1.373 C  
HETATM   10  O   UNL     1      -8.475  14.402  65.283  1.00  0.00     1.905 OA 
HETATM   11  H   UNL     1      -8.316  13.542  64.914  1.00  0.00     0.000 HD 
BRANCH   9  12
HETATM   12  C   UNL     1      -7.875  13.610  67.463  1.00  0.00    -0.185 A  
HETATM   13  N   UNL     1      -8.088  11.502  69.308  1.00  0.00     0.147 NA 
HETATM   14  C   UNL     1      -6.800  13.249  68.291  1.00  0.00    -0.105 A  
HETATM   15  C   UNL     1      -9.138  11.851  68.547  1.00  0.00    -0.123 A  
HETATM   16  C   UNL     1     -10.311  11.132  68.717  1.00  0.00    -0.222 A  
HETATM   17  C   UNL     1      -6.951  12.205  69.176  1.00  0.00    -0.053 A  
HETATM   18  C   UNL     1     -11.467  11.412  67.982  1.00  0.00    -0.377 A  
HETATM   19  C   UNL     1      -9.098  12.894  67.594  1.00  0.00    -0.194 A  
HETATM   20  C   UNL     1     -11.451  12.430  67.039  1.00  0.00    -0.358 A  
HETATM   21  C   UNL     1     -10.273  13.157  66.846  1.00  0.00    -0.245 A  
BRANCH  20  22
HETATM   22  O   UNL     1     -12.500  12.817  66.254  1.00  0.00    -0.477 OA 
HETATM   23  C   UNL     1     -12.241  13.826  65.284  1.00  0.00    -0.439 C  
ENDBRANCH  20  22
ENDBRANCH   9  12
ENDBRANCH   1   9
BRANCH   6  24
HETATM   24  C   UNL     1      -7.812  19.625  68.120  1.00  0.00    -0.346 C  
HETATM   25  C   UNL     1      -7.833  20.867  68.618  1.00  0.00     0.976 C  
ENDBRANCH   6  24
TORSDOF 4
ENDMDL
MODEL      253
REMARK 921   NORMALIZED FREE ENERGY PREDICTED BY IDOCK:    6.30 KCAL/MOL
REMARK 922        TOTAL FREE ENERGY PREDICTED BY IDOCK:    6.98 KCAL/MOL
REMARK 923 INTER-LIGAND FREE ENERGY PREDICTED BY IDOCK:    3.88 KCAL/MOL
REMARK 924 INTRA-LIGAND FREE ENERGY PREDICTED BY IDOCK:    3.10 KCAL/MOL
REMARK 927      BINDING AFFINITY PREDICTED BY RF-SCORE:    0.00 PKD
ROOT
HETATM    1  C   UNL     1     -10.376  12.682  69.736  1.00  0.00     1.209 C  
HETATM    2  N   UNL     1     -11.210  12.935  68.513  1.00  0.00    -0.256 NA 
HETATM    3  C   UNL     1      -9.784  11.250  69.695  1.00  0.00     0.606 C  
HETATM    4  C   UNL     1     -10.468  12.664  67.265  1.00  0.00    -0.228 C  
HETATM    5  C   UNL     1     -10.363  10.477  68.495  1.00  0.00    -0.199 C  
HETATM    6  C   UNL     1     -11.913  10.512  68.516  1.00  0.00     0.158 C  
HETATM    7  C   UNL     1      -9.897  11.238  67.239  1.00  0.00    -0.203 C  
HETATM    8  C   UNL     1     -12.367  11.996  68.556  1.00  0.00     0.442 C  
ENDROOT
BRANCH   1   9
HETATM    9  C   UNL     1      -9.323  13.806  70.063  1.00  0.00     2.277 C  
HETATM   10  O   UNL     1      -9.890  15.102  70.295  1.00  0.00    -0.491 OA 
HETATM   11  H   UNL     1      -9.255  15.780  70.492  1.00  0.00     0.000 HD 
BRANCH   9  12
HETATM   12  C   UNL     1      -8.276  13.940  68.958  1.00  0.00     0.159 A  
HETATM   13  N   UNL     1      -6.484  14.251  66.818  1.00  0.00     0.930 NA 
HETATM   14  C   UNL     1      -8.203  15.139  68.232  1.00  0.00    -0.144 A  
HETATM   15  C   UNL     1      -6.516  13.106  67.519  1.00  0.00    -0.147 A  
HETATM   16  C   UNL     1      -5.635  12.105  67.140  1.00  0.00    -0.115 A  
HETATM   17  C   UNL     1      -7.311  15.241  67.188  1.00  0.00    -0.143 A  
HETATM   18  C   UNL     1      -5.580  10.875  67.801  1.00  0.00    -0.042 A  
HETATM   19  C   UNL     1      -7.398  12.878  68.600  1.00  0.00    -0.099 A  
HETATM   20  C   UNL     1      -6.436  10.628  68.865  1.00  0.00    -0.049 A  
HETATM   21  C   UNL     1      -7.339  11.621  69.251  1.00  0.00     0.025 A  
BRANCH  20  22
HETATM   22  O   UNL     1      -6.493   9.480  69.603  1.00  0.00    -0.039 OA 
HETATM   23  C   UNL     1      -7.787   8.960  69.888  1.00  0.00    -0.092 C  
ENDBRANCH  20  22
ENDBRANCH   9  12
ENDBRANCH   1   9
BRANCH   6  24
HETATM   24  C   UNL     1     -12.501   9.717  69.659  1.00  0.00     0.707 C  
HETATM   25  C   UNL     1     -11.903   9.548  70.845  1.00  0.00    -0.385 C  
ENDBRANCH   6  24
TORSDOF 4
ENDMDL
MODEL      254
REMARK 921   NORMALIZED FREE ENERGY PREDICTED BY IDOCK:   27.18 KCAL/MOL
REMARK 922        TOTAL FREE ENERGY PREDICTED BY IDOCK:   32.75 KCAL/MOL
REMARK 923 INTER-LIGAND FREE ENERGY PREDICTED BY IDOCK:   19.26 KCAL/MOL
REMARK 924 INTRA-LIGAND FREE ENERGY PREDICTED BY IDOCK:   13.50 KCAL/MOL
REMARK 927      BINDING AFFINITY PREDICTED BY RF-SCORE:    0.00 PKD
ROOT
HETATM    1  C   UNL     1      -8.944  17.762  68.023  1.00  0.00    -0.263 C  
HETATM    2  N   UNL     1      -8.529  16.709  67.037  1.00  0.00    -0.185 NA 
HETATM    3  C   UNL     1      -7.773  18.088  68.985  1.00  0.00    -0.121 C  
HETATM    4  C   UNL     1      -7.291  17.072  66.320  1.00  0.00    -0.259 C  
HETATM    5  C   UNL     1      -6.603  17.118  68.734  1.00  0.00    -0.191 C  
HETATM    6  C   UNL     1      -7.084  15.647  68.812  1.00  0.00    -0.127 C  
HETATM    7  C   UNL     1      -6.140  17.381  67.289  1.00  0.00    -0.166 C  
HETATM    8  C   UNL     1      -8.251  15.461  67.804  1.00  0.00    -0.149 C  
ENDROOT
BRANCH   1   9
HETATM    9  C   UNL     1      -9.629  19.030  67.388  1.00  0.00    -0.306 C  
HETATM   10  O   UNL     1     -10.715  19.566  68.154  1.00  0.00    -0.399 OA 
HETATM   11  H   UNL     1     -11.128  20.330  67.770  1.00  0.00     0.000 HD 
BRANCH   9  12
HETATM   12  C   UNL     1     -10.140  18.749  65.976  1.00  0.00    -0.353 A  
HETATM   13  N   UNL     1     -11.211  18.356  63.409  1.00  0.00     8.784 NA 
HETATM   14  C   UNL     1     -10.441  19.832  65.134  1.00  0.00     0.422 A  
HETATM   15  C   UNL     1     -10.901  17.306  64.186  1.00  0.00     2.906 A  
HETATM   16  C   UNL     1     -11.132  16.042  63.667  1.00  0.00     2.070 A  
HETATM   17  C   UNL     1     -10.970  19.588  63.886  1.00  0.00     7.850 A  
HETATM   18  C   UNL     1     -10.843  14.879  64.386  1.00  0.00     0.027 A  
HETATM   19  C   UNL     1     -10.368  17.431  65.490  1.00  0.00    -0.075 A  
HETATM   20  C   UNL     1     -10.320  14.976  65.667  1.00  0.00    -0.353 A  
HETATM   21  C   UNL     1     -10.094  16.243  66.212  1.00  0.00    -0.340 A  
BRANCH  20  22
HETATM   22  O   UNL     1      -9.988  13.932  66.483  1.00  0.00    -0.269 OA 
HETATM   23  C   UNL     1      -9.502  14.258  67.781  1.00  0.00    -0.216 C  
ENDBRANCH  20  22
ENDBRANCH   9  12
ENDBRANCH   1   9
BRANCH   6  24
HETATM   24  C   UNL     1      -7.483  15.233  70.210  1.00  0.00     0.416 C  
HETATM   25  C   UNL     1      -6.682  14.576  71.057  1.00  0.00     0.553 C  
ENDBRANCH   6  24
TORSDOF 4
ENDMDL
