MODEL        1
REMARK 921   NORMALIZED FREE ENERGY PREDICTED BY IDOCK:   -6.31 KCAL/MOL
REMARK 922        TOTAL FREE ENERGY PREDICTED BY IDOCK:  -10.10 KCAL/MOL
REMARK 923 INTER-LIGAND FREE ENERGY PREDICTED BY IDOCK:   -8.89 KCAL/MOL
REMARK 924 INTRA-LIGAND FREE ENERGY PREDICTED BY IDOCK:   -1.22 KCAL/MOL
REMARK 927      BINDING AFFINITY PREDICTED BY RF-SCORE:    0.00 PKD
ROOT
HETATM    1  C   UNL     1     -11.517  13.074  69.027  1.00  0.00    -0.353 C  
HETATM    2  C   UNL     1     -11.818  12.002  67.967  1.00  0.00    -0.338 C  
HETATM    3  C   UNL     1     -10.951  12.188  66.718  1.00  0.00    -0.280 C  
HETATM    4  C   UNL     1     -12.418  14.063  71.200  1.00  0.00    -0.447 A  
HETATM    5  C   UNL     1     -11.156  13.625  66.214  1.00  0.00    -0.301 C  
HETATM    6  C   UNL     1     -12.285  16.123  73.106  1.00  0.00    -0.643 A  
HETATM    7  N   UNL     1     -10.744  14.623  67.217  1.00  0.00    -0.285 NA 
HETATM    8  O   UNL     1     -13.732  12.787  72.722  1.00  0.00    -0.696 OA 
HETATM    9  C   UNL     1     -11.553  14.514  68.452  1.00  0.00    -0.326 C  
HETATM   10  C   UNL     1     -11.670  16.276  71.865  1.00  0.00    -0.518 A  
HETATM   11  C   UNL     1     -12.980  14.954  73.397  1.00  0.00    -0.597 A  
HETATM   12  C   UNL     1     -11.746  15.261  70.897  1.00  0.00    -0.386 A  
HETATM   13  C   UNL     1     -13.045  13.936  72.447  1.00  0.00    -0.436 A  
HETATM   14  H   UNL     1     -13.776  12.093  72.074  1.00  0.00     0.000 HD 
HETATM   15  C   UNL     1     -12.523  12.952  70.184  1.00  0.00    -0.144 C  
HETATM   16  C   UNL     1     -11.057  15.467  69.567  1.00  0.00    -0.284 C  
ENDROOT
BRANCH   3  17
HETATM   17  N   UNL     1      -9.512  11.867  67.045  1.00  0.00    -0.185 N  
HETATM   18  H   UNL     1      -8.962  12.409  67.712  1.00  0.00     0.000 HD 
BRANCH  17  19
HETATM   19  S   UNL     1      -8.892  10.541  66.215  1.00  0.00    -0.165 S  
HETATM   20  O   UNL     1      -7.488  10.708  65.955  1.00  0.00    -0.136 OA 
HETATM   21  O   UNL     1      -9.836  10.283  65.154  1.00  0.00    -0.279 OA 
BRANCH  19  22
HETATM   22  N   UNL     1      -9.077   9.344  67.421  1.00  0.00    -0.127 N  
BRANCH  22  23
HETATM   23  C   UNL     1     -10.416   8.674  67.396  1.00  0.00    -0.281 C  
HETATM   24  C   UNL     1     -10.355   7.190  67.060  1.00  0.00    -0.368 C  
ENDBRANCH  22  23
BRANCH  22  25
HETATM   25  C   UNL     1      -8.598   9.781  68.763  1.00  0.00    -0.127 C  
HETATM   26  C   UNL     1      -9.604   9.522  69.873  1.00  0.00    -0.250 C  
ENDBRANCH  22  25
ENDBRANCH  19  22
ENDBRANCH  17  19
ENDBRANCH   3  17
BRANCH   7  27
HETATM   27  C   UNL     1     -10.654  15.963  66.620  1.00  0.00    -0.305 C  
BRANCH  27  28
HETATM   28  C   UNL     1      -9.284  16.341  66.045  1.00  0.00    -0.351 C  
HETATM   29  C   UNL     1      -8.157  15.627  66.776  1.00  0.00    -0.280 C  
ENDBRANCH  27  28
ENDBRANCH   7  27
TORSDOF 7
ENDMDL
MODEL        2
REMARK 921   NORMALIZED FREE ENERGY PREDICTED BY IDOCK:   -6.30 KCAL/MOL
REMARK 922        TOTAL FREE ENERGY PREDICTED BY IDOCK:  -10.10 KCAL/MOL
REMARK 923 INTER-LIGAND FREE ENERGY PREDICTED BY IDOCK:   -9.68 KCAL/MOL
REMARK 924 INTRA-LIGAND FREE ENERGY PREDICTED BY IDOCK:   -0.42 KCAL/MOL
REMARK 927      BINDING AFFINITY PREDICTED BY RF-SCORE:    0.00 PKD
ROOT
HETATM    1  C   UNL     1     -10.792  15.707  68.451  1.00  0.00    -0.290 C  
HETATM    2  C   UNL     1     -11.984  14.963  69.074  1.00  0.00    -0.307 C  
HETATM    3  C   UNL     1     -12.034  13.501  68.620  1.00  0.00    -0.343 C  
HETATM    4  C   UNL     1      -9.844  18.050  68.097  1.00  0.00    -0.341 A  
HETATM    5  C   UNL     1     -12.034  13.487  67.082  1.00  0.00    -0.381 C  
HETATM    6  C   UNL     1      -7.959  19.678  66.798  1.00  0.00    -0.315 A  
HETATM    7  N   UNL     1     -10.817  14.105  66.527  1.00  0.00    -0.295 NA 
HETATM    8  O   UNL     1     -10.304  19.840  69.599  1.00  0.00    -0.620 OA 
HETATM    9  C   UNL     1     -10.709  15.529  66.913  1.00  0.00    -0.317 C  
HETATM   10  C   UNL     1      -8.200  18.383  66.342  1.00  0.00    -0.280 A  
HETATM   11  C   UNL     1      -8.664  20.171  67.890  1.00  0.00    -0.274 A  
HETATM   12  C   UNL     1      -9.154  17.567  66.971  1.00  0.00    -0.255 A  
HETATM   13  C   UNL     1      -9.600  19.361  68.529  1.00  0.00    -0.405 A  
HETATM   14  H   UNL     1     -10.942  19.288  70.035  1.00  0.00     0.000 HD 
HETATM   15  C   UNL     1     -10.878  17.203  68.798  1.00  0.00    -0.211 C  
HETATM   16  C   UNL     1      -9.377  16.166  66.447  1.00  0.00    -0.329 C  
ENDROOT
BRANCH   3  17
HETATM   17  N   UNL     1     -10.879  12.740  69.225  1.00  0.00    -0.443 N  
HETATM   18  H   UNL     1     -10.084  13.202  69.669  1.00  0.00     0.000 HD 
BRANCH  17  19
HETATM   19  S   UNL     1     -11.012  11.067  69.103  1.00  0.00    -0.255 S  
HETATM   20  O   UNL     1      -9.734  10.469  68.826  1.00  0.00    -0.168 OA 
HETATM   21  O   UNL     1     -12.158  10.838  68.256  1.00  0.00    -0.496 OA 
BRANCH  19  22
HETATM   22  N   UNL     1     -11.438  10.701  70.718  1.00  0.00    -0.298 N  
BRANCH  22  23
HETATM   23  C   UNL     1     -10.783   9.461  71.241  1.00  0.00    -0.350 C  
HETATM   24  C   UNL     1     -11.767   8.386  71.682  1.00  0.00    -0.354 C  
ENDBRANCH  22  23
BRANCH  22  25
HETATM   25  C   UNL     1     -12.900  10.821  70.983  1.00  0.00    -0.385 C  
HETATM   26  C   UNL     1     -13.253  11.996  71.881  1.00  0.00    -0.469 C  
ENDBRANCH  22  25
ENDBRANCH  19  22
ENDBRANCH  17  19
ENDBRANCH   3  17
BRANCH   7  27
HETATM   27  C   UNL     1     -10.687  13.812  65.093  1.00  0.00    -0.358 C  
BRANCH  27  28
HETATM   28  C   UNL     1     -12.006  13.703  64.316  1.00  0.00    -0.488 C  
HETATM   29  C   UNL     1     -12.060  12.428  63.488  1.00  0.00    -0.651 C  
ENDBRANCH  27  28
ENDBRANCH   7  27
TORSDOF 7
ENDMDL
MODEL        3
REMARK 921   NORMALIZED FREE ENERGY PREDICTED BY IDOCK:   -6.29 KCAL/MOL
REMARK 922        TOTAL FREE ENERGY PREDICTED BY IDOCK:  -10.08 KCAL/MOL
REMARK 923 INTER-LIGAND FREE ENERGY PREDICTED BY IDOCK:   -8.91 KCAL/MOL
REMARK 924 INTRA-LIGAND FREE ENERGY PREDICTED BY IDOCK:   -1.17 KCAL/MOL
REMARK 927      BINDING AFFINITY PREDICTED BY RF-SCORE:    0.00 PKD
ROOT
HETATM    1  C   UNL     1     -11.530  12.161  69.434  1.00  0.00    -0.355 C  
HETATM    2  C   UNL     1     -11.868  10.892  68.636  1.00  0.00    -0.269 C  
HETATM    3  C   UNL     1     -10.902  10.692  67.463  1.00  0.00    -0.296 C  
HETATM    4  C   UNL     1     -12.469  13.724  71.219  1.00  0.00    -0.428 A  
HETATM    5  C   UNL     1     -10.919  11.975  66.617  1.00  0.00    -0.287 C  
HETATM    6  C   UNL     1     -12.253  16.168  72.588  1.00  0.00    -0.625 A  
HETATM    7  N   UNL     1     -10.476  13.149  67.389  1.00  0.00    -0.241 NA 
HETATM    8  O   UNL     1     -14.012  12.975  72.872  1.00  0.00    -0.666 OA 
HETATM    9  C   UNL     1     -11.374  13.414  68.535  1.00  0.00    -0.289 C  
HETATM   10  C   UNL     1     -11.541  15.960  71.408  1.00  0.00    -0.529 A  
HETATM   11  C   UNL     1     -13.085  15.169  73.082  1.00  0.00    -0.625 A  
HETATM   12  C   UNL     1     -11.656  14.749  70.705  1.00  0.00    -0.324 A  
HETATM   13  C   UNL     1     -13.191  13.960  72.398  1.00  0.00    -0.488 A  
HETATM   14  H   UNL     1     -14.084  12.151  72.406  1.00  0.00     0.000 HD 
HETATM   15  C   UNL     1     -12.620  12.411  70.490  1.00  0.00    -0.169 C  
HETATM   16  C   UNL     1     -10.860  14.565  69.433  1.00  0.00    -0.249 C  
ENDROOT
BRANCH   3  17
HETATM   17  N   UNL     1      -9.531  10.340  67.988  1.00  0.00    -0.145 N  
HETATM   18  H   UNL     1      -8.927  11.016  68.456  1.00  0.00     0.000 HD 
BRANCH  17  19
HETATM   19  S   UNL     1      -9.083   8.737  67.735  1.00  0.00    -0.134 S  
HETATM   20  O   UNL     1      -7.665   8.627  67.525  1.00  0.00    -0.096 OA 
HETATM   21  O   UNL     1     -10.036   8.224  66.780  1.00  0.00    -0.235 OA 
BRANCH  19  22
HETATM   22  N   UNL     1      -9.449   8.097  69.277  1.00  0.00    -0.158 N  
BRANCH  22  23
HETATM   23  C   UNL     1     -10.741   7.340  69.318  1.00  0.00    -0.198 C  
HETATM   24  C   UNL     1     -10.567   5.837  69.484  1.00  0.00    -0.390 C  
ENDBRANCH  22  23
BRANCH  22  25
HETATM   25  C   UNL     1      -9.236   9.071  70.385  1.00  0.00    -0.209 C  
HETATM   26  C   UNL     1     -10.356   9.065  71.413  1.00  0.00    -0.396 C  
ENDBRANCH  22  25
ENDBRANCH  19  22
ENDBRANCH  17  19
ENDBRANCH   3  17
BRANCH   7  27
HETATM   27  C   UNL     1     -10.205  14.289  66.503  1.00  0.00    -0.276 C  
BRANCH  27  28
HETATM   28  C   UNL     1     -10.572  14.084  65.027  1.00  0.00    -0.426 C  
HETATM   29  C   UNL     1     -11.762  14.941  64.626  1.00  0.00    -0.406 C  
ENDBRANCH  27  28
ENDBRANCH   7  27
TORSDOF 7
ENDMDL
MODEL        4
REMARK 921   NORMALIZED FREE ENERGY PREDICTED BY IDOCK:   -6.20 KCAL/MOL
REMARK 922        TOTAL FREE ENERGY PREDICTED BY IDOCK:   -9.96 KCAL/MOL
REMARK 923 INTER-LIGAND FREE ENERGY PREDICTED BY IDOCK:   -8.93 KCAL/MOL
REMARK 924 INTRA-LIGAND FREE ENERGY PREDICTED BY IDOCK:   -1.03 KCAL/MOL
REMARK 927      BINDING AFFINITY PREDICTED BY RF-SCORE:    0.00 PKD
ROOT
HETATM    1  C   UNL     1     -11.519  12.084  69.336  1.00  0.00    -0.361 C  
HETATM    2  C   UNL     1     -11.762  10.788  68.548  1.00  0.00    -0.259 C  
HETATM    3  C   UNL     1     -10.796  10.658  67.366  1.00  0.00    -0.296 C  
HETATM    4  C   UNL     1     -12.561  13.578  71.123  1.00  0.00    -0.438 A  
HETATM    5  C   UNL     1     -10.924  11.930  66.513  1.00  0.00    -0.292 C  
HETATM    6  C   UNL     1     -12.526  16.040  72.476  1.00  0.00    -0.558 A  
HETATM    7  N   UNL     1     -10.568  13.140  67.275  1.00  0.00    -0.246 NA 
HETATM    8  O   UNL     1     -14.022  12.719  72.796  1.00  0.00    -0.690 OA 
HETATM    9  C   UNL     1     -11.472  13.340  68.429  1.00  0.00    -0.314 C  
HETATM   10  C   UNL     1     -11.811  15.882  71.290  1.00  0.00    -0.502 A  
HETATM   11  C   UNL     1     -13.270  14.981  72.985  1.00  0.00    -0.596 A  
HETATM   12  C   UNL     1     -11.838  14.662  70.595  1.00  0.00    -0.367 A  
HETATM   13  C   UNL     1     -13.286  13.763  72.308  1.00  0.00    -0.521 A  
HETATM   14  H   UNL     1     -14.033  11.888  72.335  1.00  0.00     0.000 HD 
HETATM   15  C   UNL     1     -12.614  12.253  70.403  1.00  0.00    -0.106 C  
HETATM   16  C   UNL     1     -11.042  14.533  69.315  1.00  0.00    -0.296 C  
ENDROOT
BRANCH   3  17
HETATM   17  N   UNL     1      -9.396  10.419  67.878  1.00  0.00    -0.138 N  
HETATM   18  H   UNL     1      -8.825  11.156  68.294  1.00  0.00     0.000 HD 
BRANCH  17  19
HETATM   19  S   UNL     1      -8.855   8.835  67.703  1.00  0.00    -0.135 S  
HETATM   20  O   UNL     1      -7.422   8.767  67.806  1.00  0.00    -0.091 OA 
HETATM   21  O   UNL     1      -9.560   8.318  66.554  1.00  0.00    -0.209 OA 
BRANCH  19  22
HETATM   22  N   UNL     1      -9.529   8.150  69.117  1.00  0.00    -0.155 N  
BRANCH  22  23
HETATM   23  C   UNL     1      -8.921   8.675  70.381  1.00  0.00    -0.158 C  
HETATM   24  C   UNL     1      -9.945   9.073  71.435  1.00  0.00    -0.388 C  
ENDBRANCH  22  23
BRANCH  22  25
HETATM   25  C   UNL     1      -9.681   6.669  69.039  1.00  0.00    -0.140 C  
HETATM   26  C   UNL     1     -11.118   6.204  69.209  1.00  0.00    -0.463 C  
ENDBRANCH  22  25
ENDBRANCH  19  22
ENDBRANCH  17  19
ENDBRANCH   3  17
BRANCH   7  27
HETATM   27  C   UNL     1     -10.398  14.293  66.380  1.00  0.00    -0.286 C  
BRANCH  27  28
HETATM   28  C   UNL     1     -10.762  14.050  64.909  1.00  0.00    -0.432 C  
HETATM   29  C   UNL     1     -12.113  14.658  64.563  1.00  0.00    -0.490 C  
ENDBRANCH  27  28
ENDBRANCH   7  27
TORSDOF 7
ENDMDL
MODEL        5
REMARK 921   NORMALIZED FREE ENERGY PREDICTED BY IDOCK:   -6.15 KCAL/MOL
REMARK 922        TOTAL FREE ENERGY PREDICTED BY IDOCK:   -9.88 KCAL/MOL
REMARK 923 INTER-LIGAND FREE ENERGY PREDICTED BY IDOCK:   -8.86 KCAL/MOL
REMARK 924 INTRA-LIGAND FREE ENERGY PREDICTED BY IDOCK:   -1.02 KCAL/MOL
REMARK 927      BINDING AFFINITY PREDICTED BY RF-SCORE:    0.00 PKD
ROOT
HETATM    1  C   UNL     1     -11.483  12.113  68.859  1.00  0.00    -0.350 C  
HETATM    2  C   UNL     1     -11.401  10.782  68.095  1.00  0.00    -0.377 C  
HETATM    3  C   UNL     1     -10.656  10.940  66.766  1.00  0.00    -0.259 C  
HETATM    4  C   UNL     1     -12.658  13.236  70.826  1.00  0.00    -0.357 A  
HETATM    5  C   UNL     1     -11.345  12.063  65.974  1.00  0.00    -0.343 C  
HETATM    6  C   UNL     1     -13.232  15.615  72.206  1.00  0.00    -0.558 A  
HETATM    7  N   UNL     1     -11.297  13.350  66.690  1.00  0.00    -0.313 NA 
HETATM    8  O   UNL     1     -13.447  11.998  72.702  1.00  0.00    -0.557 OA 
HETATM    9  C   UNL     1     -12.013  13.277  67.983  1.00  0.00    -0.313 C  
HETATM   10  C   UNL     1     -12.712  15.662  70.914  1.00  0.00    -0.500 A  
HETATM   11  C   UNL     1     -13.481  14.387  72.809  1.00  0.00    -0.582 A  
HETATM   12  C   UNL     1     -12.440  14.479  70.207  1.00  0.00    -0.405 A  
HETATM   13  C   UNL     1     -13.197  13.210  72.120  1.00  0.00    -0.462 A  
HETATM   14  H   UNL     1     -13.253  11.196  72.232  1.00  0.00     0.000 HD 
HETATM   15  C   UNL     1     -12.379  11.944  70.097  1.00  0.00    -0.247 C  
HETATM   16  C   UNL     1     -11.869  14.578  68.810  1.00  0.00    -0.350 C  
ENDROOT
BRANCH   3  17
HETATM   17  N   UNL     1      -9.194  11.204  67.031  1.00  0.00    -0.161 N  
HETATM   18  H   UNL     1      -8.816  12.143  67.161  1.00  0.00     0.000 HD 
BRANCH  17  19
HETATM   19  S   UNL     1      -8.240   9.819  67.093  1.00  0.00    -0.121 S  
HETATM   20  O   UNL     1      -8.338   9.185  68.380  1.00  0.00    -0.118 OA 
HETATM   21  O   UNL     1      -6.969  10.209  66.532  1.00  0.00    -0.093 OA 
BRANCH  19  22
HETATM   22  N   UNL     1      -9.072   8.854  65.954  1.00  0.00    -0.204 N  
BRANCH  22  23
HETATM   23  C   UNL     1      -9.356   7.467  66.442  1.00  0.00    -0.155 C  
HETATM   24  C   UNL     1     -10.752   7.294  67.024  1.00  0.00    -0.406 C  
ENDBRANCH  22  23
BRANCH  22  25
HETATM   25  C   UNL     1      -8.511   8.952  64.576  1.00  0.00    -0.161 C  
HETATM   26  C   UNL     1      -9.227   9.973  63.708  1.00  0.00    -0.314 C  
ENDBRANCH  22  25
ENDBRANCH  19  22
ENDBRANCH  17  19
ENDBRANCH   3  17
BRANCH   7  27
HETATM   27  C   UNL     1     -11.675  14.459  65.804  1.00  0.00    -0.362 C  
BRANCH  27  28
HETATM   28  C   UNL     1     -10.512  15.301  65.263  1.00  0.00    -0.436 C  
HETATM   29  C   UNL     1      -9.310  15.253  66.193  1.00  0.00    -0.360 C  
ENDBRANCH  27  28
ENDBRANCH   7  27
TORSDOF 7
ENDMDL
MODEL        6
REMARK 921   NORMALIZED FREE ENERGY PREDICTED BY IDOCK:   -6.13 KCAL/MOL
REMARK 922        TOTAL FREE ENERGY PREDICTED BY IDOCK:   -9.86 KCAL/MOL
REMARK 923 INTER-LIGAND FREE ENERGY PREDICTED BY IDOCK:   -8.80 KCAL/MOL
REMARK 924 INTRA-LIGAND FREE ENERGY PREDICTED BY IDOCK:   -1.06 KCAL/MOL
REMARK 927      BINDING AFFINITY PREDICTED BY RF-SCORE:    0.00 PKD
ROOT
HETATM    1  C   UNL     1     -11.683  12.654  69.192  1.00  0.00    -0.375 C  
HETATM    2  C   UNL     1     -12.016  11.448  68.299  1.00  0.00    -0.234 C  
HETATM    3  C   UNL     1     -11.209  11.472  66.997  1.00  0.00    -0.300 C  
HETATM    4  C   UNL     1     -12.499  13.916  71.254  1.00  0.00    -0.440 A  
HETATM    5  C   UNL     1     -11.457  12.828  66.317  1.00  0.00    -0.354 C  
HETATM    6  C   UNL     1     -12.311  16.213  72.861  1.00  0.00    -0.607 A  
HETATM    7  N   UNL     1     -11.016  13.954  67.158  1.00  0.00    -0.287 NA 
HETATM    8  O   UNL     1     -13.725  12.843  72.991  1.00  0.00    -0.587 OA 
HETATM    9  C   UNL     1     -11.766  14.004  68.433  1.00  0.00    -0.354 C  
HETATM   10  C   UNL     1     -11.754  16.204  71.583  1.00  0.00    -0.558 A  
HETATM   11  C   UNL     1     -12.974  15.087  73.337  1.00  0.00    -0.622 A  
HETATM   12  C   UNL     1     -11.859  15.068  70.763  1.00  0.00    -0.372 A  
HETATM   13  C   UNL     1     -13.067  13.952  72.535  1.00  0.00    -0.437 A  
HETATM   14  H   UNL     1     -13.788  12.069  72.445  1.00  0.00     0.000 HD 
HETATM   15  C   UNL     1     -12.633  12.679  70.401  1.00  0.00    -0.115 C  
HETATM   16  C   UNL     1     -11.234  15.101  69.387  1.00  0.00    -0.293 C  
ENDROOT
BRANCH   3  17
HETATM   17  N   UNL     1      -9.752  11.210  67.296  1.00  0.00    -0.165 N  
HETATM   18  H   UNL     1      -9.115  11.937  67.623  1.00  0.00     0.000 HD 
BRANCH  17  19
HETATM   19  S   UNL     1      -9.269   9.618  67.044  1.00  0.00    -0.144 S  
HETATM   20  O   UNL     1      -7.838   9.527  66.933  1.00  0.00    -0.100 OA 
HETATM   21  O   UNL     1     -10.145   9.114  66.014  1.00  0.00    -0.284 OA 
BRANCH  19  22
HETATM   22  N   UNL     1      -9.735   8.942  68.543  1.00  0.00    -0.158 N  
BRANCH  22  23
HETATM   23  C   UNL     1      -9.243   9.717  69.726  1.00  0.00    -0.226 C  
HETATM   24  C   UNL     1     -10.186   9.681  70.920  1.00  0.00    -0.303 C  
ENDBRANCH  22  23
BRANCH  22  25
HETATM   25  C   UNL     1      -9.539   7.466  68.611  1.00  0.00    -0.146 C  
HETATM   26  C   UNL     1     -10.842   6.685  68.583  1.00  0.00    -0.319 C  
ENDBRANCH  22  25
ENDBRANCH  19  22
ENDBRANCH  17  19
ENDBRANCH   3  17
BRANCH   7  27
HETATM   27  C   UNL     1     -10.972  15.202  66.385  1.00  0.00    -0.329 C  
BRANCH  27  28
HETATM   28  C   UNL     1      -9.587  15.615  65.870  1.00  0.00    -0.385 C  
HETATM   29  C   UNL     1      -9.140  16.938  66.475  1.00  0.00    -0.302 C  
ENDBRANCH  27  28
ENDBRANCH   7  27
TORSDOF 7
ENDMDL
MODEL        7
REMARK 921   NORMALIZED FREE ENERGY PREDICTED BY IDOCK:   -6.13 KCAL/MOL
REMARK 922        TOTAL FREE ENERGY PREDICTED BY IDOCK:   -9.85 KCAL/MOL
REMARK 923 INTER-LIGAND FREE ENERGY PREDICTED BY IDOCK:   -8.98 KCAL/MOL
REMARK 924 INTRA-LIGAND FREE ENERGY PREDICTED BY IDOCK:   -0.87 KCAL/MOL
REMARK 927      BINDING AFFINITY PREDICTED BY RF-SCORE:    0.00 PKD
ROOT
HETATM    1  C   UNL     1     -10.245  15.712  65.812  1.00  0.00    -0.391 C  
HETATM    2  C   UNL     1     -10.761  17.144  65.597  1.00  0.00    -0.140 C  
HETATM    3  C   UNL     1     -10.245  18.096  66.681  1.00  0.00    -0.381 C  
HETATM    4  C   UNL     1     -10.606  13.307  65.041  1.00  0.00    -0.360 A  
HETATM    5  C   UNL     1     -10.628  17.503  68.047  1.00  0.00    -0.384 C  
HETATM    6  C   UNL     1     -10.078  10.578  65.449  1.00  0.00    -0.358 A  
HETATM    7  N   UNL     1     -10.016  16.180  68.262  1.00  0.00    -0.223 NA 
HETATM    8  O   UNL     1     -11.442  12.786  62.873  1.00  0.00    -0.716 OA 
HETATM    9  C   UNL     1     -10.481  15.199  67.256  1.00  0.00    -0.271 C  
HETATM   10  C   UNL     1      -9.802  11.503  66.454  1.00  0.00    -0.233 A  
HETATM   11  C   UNL     1     -10.629  11.004  64.246  1.00  0.00    -0.402 A  
HETATM   12  C   UNL     1     -10.080  12.867  66.269  1.00  0.00    -0.281 A  
HETATM   13  C   UNL     1     -10.892  12.358  64.049  1.00  0.00    -0.397 A  
HETATM   14  H   UNL     1     -11.620  13.709  62.739  1.00  0.00     0.000 HD 
HETATM   15  C   UNL     1     -10.920  14.764  64.807  1.00  0.00    -0.393 C  
HETATM   16  C   UNL     1      -9.758  13.836  67.384  1.00  0.00    -0.235 C  
ENDROOT
BRANCH   3  17
HETATM   17  N   UNL     1      -8.760  18.303  66.513  1.00  0.00    -0.280 N  
HETATM   18  H   UNL     1      -8.128  17.560  66.210  1.00  0.00     0.000 HD 
BRANCH  17  19
HETATM   19  S   UNL     1      -8.232  19.861  66.867  1.00  0.00    -0.332 S  
HETATM   20  O   UNL     1      -9.297  20.649  67.427  1.00  0.00    -0.402 OA 
HETATM   21  O   UNL     1      -7.505  20.290  65.696  1.00  0.00    -0.279 OA 
BRANCH  19  22
HETATM   22  N   UNL     1      -7.115  19.504  68.110  1.00  0.00    -0.274 N  
BRANCH  22  23
HETATM   23  C   UNL     1      -5.995  20.493  68.207  1.00  0.00    -0.305 C  
HETATM   24  C   UNL     1      -5.546  20.774  69.634  1.00  0.00    -0.396 C  
ENDBRANCH  22  23
BRANCH  22  25
HETATM   25  C   UNL     1      -6.715  18.069  68.148  1.00  0.00    -0.201 C  
HETATM   26  C   UNL     1      -5.358  17.807  67.515  1.00  0.00    -0.140 C  
ENDBRANCH  22  25
ENDBRANCH  19  22
ENDBRANCH  17  19
ENDBRANCH   3  17
BRANCH   7  27
HETATM   27  C   UNL     1     -10.133  15.769  69.668  1.00  0.00    -0.289 C  
BRANCH  27  28
HETATM   28  C   UNL     1     -11.560  15.718  70.227  1.00  0.00    -0.377 C  
HETATM   29  C   UNL     1     -11.568  15.832  71.744  1.00  0.00    -0.541 C  
ENDBRANCH  27  28
ENDBRANCH   7  27
TORSDOF 7
ENDMDL
MODEL        8
REMARK 921   NORMALIZED FREE ENERGY PREDICTED BY IDOCK:   -6.08 KCAL/MOL
REMARK 922        TOTAL FREE ENERGY PREDICTED BY IDOCK:   -9.78 KCAL/MOL
REMARK 923 INTER-LIGAND FREE ENERGY PREDICTED BY IDOCK:   -8.66 KCAL/MOL
REMARK 924 INTRA-LIGAND FREE ENERGY PREDICTED BY IDOCK:   -1.12 KCAL/MOL
REMARK 927      BINDING AFFINITY PREDICTED BY RF-SCORE:    0.00 PKD
ROOT
HETATM    1  C   UNL     1      -9.631  14.065  67.354  1.00  0.00    -0.227 C  
HETATM    2  C   UNL     1      -8.793  15.154  66.665  1.00  0.00    -0.321 C  
HETATM    3  C   UNL     1      -9.680  16.193  65.972  1.00  0.00    -0.344 C  
HETATM    4  C   UNL     1      -9.440  11.762  68.436  1.00  0.00    -0.188 A  
HETATM    5  C   UNL     1     -10.621  15.443  65.015  1.00  0.00    -0.420 C  
HETATM    6  C   UNL     1     -10.758   9.496  69.445  1.00  0.00    -0.244 A  
HETATM    7  N   UNL     1     -11.490  14.493  65.732  1.00  0.00    -0.340 NA 
HETATM    8  O   UNL     1      -7.435  11.020  69.484  1.00  0.00    -0.275 OA 
HETATM    9  C   UNL     1     -10.700  13.446  66.416  1.00  0.00    -0.286 C  
HETATM   10  C   UNL     1     -11.447  10.412  68.653  1.00  0.00    -0.238 A  
HETATM   11  C   UNL     1      -9.411   9.695  69.726  1.00  0.00    -0.238 A  
HETATM   12  C   UNL     1     -10.793  11.539  68.127  1.00  0.00    -0.259 A  
HETATM   13  C   UNL     1      -8.761  10.819  69.221  1.00  0.00    -0.030 A  
HETATM   14  H   UNL     1      -6.991  11.786  69.140  1.00  0.00     0.000 HD 
HETATM   15  C   UNL     1      -8.704  12.960  67.887  1.00  0.00    -0.186 C  
HETATM   16  C   UNL     1     -11.582  12.510  67.278  1.00  0.00    -0.434 C  
ENDROOT
BRANCH   3  17
HETATM   17  N   UNL     1     -10.410  17.011  67.010  1.00  0.00    -0.309 N  
HETATM   18  H   UNL     1     -10.966  16.592  67.755  1.00  0.00     0.000 HD 
BRANCH  17  19
HETATM   19  S   UNL     1     -10.229  18.675  66.831  1.00  0.00    -0.409 S  
HETATM   20  O   UNL     1     -10.815  19.377  67.942  1.00  0.00    -0.378 OA 
HETATM   21  O   UNL     1     -10.613  18.954  65.468  1.00  0.00    -0.572 OA 
BRANCH  19  22
HETATM   22  N   UNL     1      -8.529  18.789  66.960  1.00  0.00    -0.274 N  
BRANCH  22  23
HETATM   23  C   UNL     1      -8.042  18.863  68.374  1.00  0.00    -0.341 C  
HETATM   24  C   UNL     1      -7.142  17.702  68.776  1.00  0.00    -0.263 C  
ENDBRANCH  22  23
BRANCH  22  25
HETATM   25  C   UNL     1      -7.932  19.778  66.018  1.00  0.00    -0.330 C  
HETATM   26  C   UNL     1      -6.643  19.292  65.375  1.00  0.00    -0.307 C  
ENDBRANCH  22  25
ENDBRANCH  19  22
ENDBRANCH  17  19
ENDBRANCH   3  17
BRANCH   7  27
HETATM   27  C   UNL     1     -12.577  14.018  64.864  1.00  0.00    -0.342 C  
BRANCH  27  28
HETATM   28  C   UNL     1     -12.137  13.351  63.555  1.00  0.00    -0.497 C  
HETATM   29  C   UNL     1     -12.464  11.865  63.550  1.00  0.00    -0.609 C  
ENDBRANCH  27  28
ENDBRANCH   7  27
TORSDOF 7
ENDMDL
MODEL        9
REMARK 921   NORMALIZED FREE ENERGY PREDICTED BY IDOCK:   -6.05 KCAL/MOL
REMARK 922        TOTAL FREE ENERGY PREDICTED BY IDOCK:   -9.75 KCAL/MOL
REMARK 923 INTER-LIGAND FREE ENERGY PREDICTED BY IDOCK:   -8.88 KCAL/MOL
REMARK 924 INTRA-LIGAND FREE ENERGY PREDICTED BY IDOCK:   -0.87 KCAL/MOL
REMARK 927      BINDING AFFINITY PREDICTED BY RF-SCORE:    0.00 PKD
ROOT
HETATM    1  C   UNL     1     -10.685  15.534  68.251  1.00  0.00    -0.271 C  
HETATM    2  C   UNL     1     -11.867  14.784  68.884  1.00  0.00    -0.331 C  
HETATM    3  C   UNL     1     -11.904  13.317  68.443  1.00  0.00    -0.360 C  
HETATM    4  C   UNL     1      -9.763  17.883  67.872  1.00  0.00    -0.288 A  
HETATM    5  C   UNL     1     -11.910  13.290  66.906  1.00  0.00    -0.392 C  
HETATM    6  C   UNL     1      -7.899  19.519  66.552  1.00  0.00    -0.305 A  
HETATM    7  N   UNL     1     -10.701  13.915  66.341  1.00  0.00    -0.280 NA 
HETATM    8  O   UNL     1     -10.236  19.683  69.360  1.00  0.00    -0.636 OA 
HETATM    9  C   UNL     1     -10.605  15.344  66.714  1.00  0.00    -0.309 C  
HETATM   10  C   UNL     1      -8.128  18.218  66.108  1.00  0.00    -0.195 A  
HETATM   11  C   UNL     1      -8.606  20.015  67.643  1.00  0.00    -0.385 A  
HETATM   12  C   UNL     1      -9.072  17.398  66.749  1.00  0.00    -0.276 A  
HETATM   13  C   UNL     1      -9.531  19.201  68.292  1.00  0.00    -0.352 A  
HETATM   14  H   UNL     1     -10.866  19.128  69.803  1.00  0.00     0.000 HD 
HETATM   15  C   UNL     1     -10.786  17.032  68.584  1.00  0.00    -0.333 C  
HETATM   16  C   UNL     1      -9.282  15.990  66.238  1.00  0.00    -0.368 C  
ENDROOT
BRANCH   3  17
HETATM   17  N   UNL     1     -10.739  12.574  69.050  1.00  0.00    -0.405 N  
HETATM   18  H   UNL     1      -9.989  13.042  69.561  1.00  0.00     0.000 HD 
BRANCH  17  19
HETATM   19  S   UNL     1     -10.781  10.908  68.814  1.00  0.00    -0.224 S  
HETATM   20  O   UNL     1     -12.078  10.488  68.354  1.00  0.00    -0.330 OA 
HETATM   21  O   UNL     1     -10.173  10.343  69.994  1.00  0.00    -0.219 OA 
BRANCH  19  22
HETATM   22  N   UNL     1      -9.682  10.781  67.512  1.00  0.00    -0.165 N  
BRANCH  22  23
HETATM   23  C   UNL     1      -9.927   9.590  66.638  1.00  0.00    -0.247 C  
HETATM   24  C   UNL     1      -9.761   9.874  65.152  1.00  0.00    -0.376 C  
ENDBRANCH  22  23
BRANCH  22  25
HETATM   25  C   UNL     1      -8.264  11.006  67.914  1.00  0.00    -0.119 C  
HETATM   26  C   UNL     1      -7.623  12.195  67.217  1.00  0.00    -0.156 C  
ENDBRANCH  22  25
ENDBRANCH  19  22
ENDBRANCH  17  19
ENDBRANCH   3  17
BRANCH   7  27
HETATM   27  C   UNL     1     -10.572  13.612  64.909  1.00  0.00    -0.408 C  
BRANCH  27  28
HETATM   28  C   UNL     1     -11.888  13.560  64.122  1.00  0.00    -0.483 C  
HETATM   29  C   UNL     1     -12.170  12.158  63.601  1.00  0.00    -0.663 C  
ENDBRANCH  27  28
ENDBRANCH   7  27
TORSDOF 7
ENDMDL
MODEL       10
REMARK 921   NORMALIZED FREE ENERGY PREDICTED BY IDOCK:   -6.03 KCAL/MOL
REMARK 922        TOTAL FREE ENERGY PREDICTED BY IDOCK:   -9.72 KCAL/MOL
REMARK 923 INTER-LIGAND FREE ENERGY PREDICTED BY IDOCK:   -8.77 KCAL/MOL
REMARK 924 INTRA-LIGAND FREE ENERGY PREDICTED BY IDOCK:   -0.95 KCAL/MOL
REMARK 927      BINDING AFFINITY PREDICTED BY RF-SCORE:    0.00 PKD
ROOT
HETATM    1  C   UNL     1     -10.219  14.577  66.789  1.00  0.00    -0.266 C  
HETATM    2  C   UNL     1     -10.574  16.051  66.540  1.00  0.00    -0.284 C  
HETATM    3  C   UNL     1     -10.702  16.829  67.854  1.00  0.00    -0.347 C  
HETATM    4  C   UNL     1     -10.095  12.312  65.621  1.00  0.00    -0.275 A  
HETATM    5  C   UNL     1     -11.720  16.091  68.739  1.00  0.00    -0.299 C  
HETATM    6  C   UNL     1      -9.806   9.528  65.861  1.00  0.00    -0.360 A  
HETATM    7  N   UNL     1     -11.284  14.719  69.051  1.00  0.00    -0.255 NA 
HETATM    8  O   UNL     1      -9.693  12.116  63.281  1.00  0.00    -0.588 OA 
HETATM    9  C   UNL     1     -11.153  13.900  67.825  1.00  0.00    -0.262 C  
HETATM   10  C   UNL     1     -10.099  10.302  66.983  1.00  0.00    -0.268 A  
HETATM   11  C   UNL     1      -9.670  10.133  64.617  1.00  0.00    -0.377 A  
HETATM   12  C   UNL     1     -10.265  11.692  66.871  1.00  0.00    -0.244 A  
HETATM   13  C   UNL     1      -9.817  11.514  64.502  1.00  0.00    -0.241 A  
HETATM   14  H   UNL     1      -9.793  13.058  63.203  1.00  0.00     0.000 HD 
HETATM   15  C   UNL     1     -10.267  13.803  65.461  1.00  0.00    -0.332 C  
HETATM   16  C   UNL     1     -10.576  12.493  68.115  1.00  0.00    -0.239 C  
ENDROOT
BRANCH   3  17
HETATM   17  N   UNL     1      -9.343  16.970  68.496  1.00  0.00    -0.258 N  
HETATM   18  H   UNL     1      -8.799  16.170  68.821  1.00  0.00     0.000 HD 
BRANCH  17  19
HETATM   19  S   UNL     1      -8.803  18.558  68.632  1.00  0.00    -0.257 S  
HETATM   20  O   UNL     1      -7.484  18.605  69.203  1.00  0.00    -0.257 OA 
HETATM   21  O   UNL     1      -9.907  19.286  69.211  1.00  0.00    -0.375 OA 
BRANCH  19  22
HETATM   22  N   UNL     1      -8.687  18.959  66.975  1.00  0.00    -0.286 N  
BRANCH  22  23
HETATM   23  C   UNL     1      -7.283  18.950  66.456  1.00  0.00    -0.229 C  
HETATM   24  C   UNL     1      -6.857  17.617  65.857  1.00  0.00    -0.253 C  
ENDBRANCH  22  23
BRANCH  22  25
HETATM   25  C   UNL     1      -9.509  20.143  66.596  1.00  0.00    -0.391 C  
HETATM   26  C   UNL     1     -10.648  19.806  65.649  1.00  0.00    -0.456 C  
ENDBRANCH  22  25
ENDBRANCH  19  22
ENDBRANCH  17  19
ENDBRANCH   3  17
BRANCH   7  27
HETATM   27  C   UNL     1     -12.098  14.141  70.130  1.00  0.00    -0.346 C  
BRANCH  27  28
HETATM   28  C   UNL     1     -12.837  15.152  71.016  1.00  0.00    -0.477 C  
HETATM   29  C   UNL     1     -12.009  15.535  72.233  1.00  0.00    -0.542 C  
ENDBRANCH  27  28
ENDBRANCH   7  27
TORSDOF 7
ENDMDL
MODEL       11
REMARK 921   NORMALIZED FREE ENERGY PREDICTED BY IDOCK:   -6.00 KCAL/MOL
REMARK 922        TOTAL FREE ENERGY PREDICTED BY IDOCK:   -9.68 KCAL/MOL
REMARK 923 INTER-LIGAND FREE ENERGY PREDICTED BY IDOCK:   -8.71 KCAL/MOL
REMARK 924 INTRA-LIGAND FREE ENERGY PREDICTED BY IDOCK:   -0.96 KCAL/MOL
REMARK 927      BINDING AFFINITY PREDICTED BY RF-SCORE:    0.00 PKD
ROOT
HETATM    1  C   UNL     1     -10.707  15.554  68.225  1.00  0.00    -0.271 C  
HETATM    2  C   UNL     1     -11.929  14.853  68.838  1.00  0.00    -0.295 C  
HETATM    3  C   UNL     1     -12.013  13.386  68.405  1.00  0.00    -0.324 C  
HETATM    4  C   UNL     1      -9.687  17.863  67.853  1.00  0.00    -0.288 A  
HETATM    5  C   UNL     1     -11.989  13.349  66.868  1.00  0.00    -0.385 C  
HETATM    6  C   UNL     1      -7.735  19.418  66.562  1.00  0.00    -0.290 A  
HETATM    7  N   UNL     1     -10.746  13.924  66.324  1.00  0.00    -0.284 NA 
HETATM    8  O   UNL     1     -10.121  19.689  69.320  1.00  0.00    -0.593 OA 
HETATM    9  C   UNL     1     -10.603  15.351  66.691  1.00  0.00    -0.306 C  
HETATM   10  C   UNL     1      -8.005  18.124  66.121  1.00  0.00    -0.222 A  
HETATM   11  C   UNL     1      -8.445  19.948  67.635  1.00  0.00    -0.374 A  
HETATM   12  C   UNL     1      -8.993  17.344  66.747  1.00  0.00    -0.272 A  
HETATM   13  C   UNL     1      -9.414  19.174  68.270  1.00  0.00    -0.352 A  
HETATM   14  H   UNL     1     -10.782  19.161  69.753  1.00  0.00     0.000 HD 
HETATM   15  C   UNL     1     -10.757  17.057  68.548  1.00  0.00    -0.352 C  
HETATM   16  C   UNL     1      -9.247  15.943  66.239  1.00  0.00    -0.372 C  
ENDROOT
BRANCH   3  17
HETATM   17  N   UNL     1     -10.891  12.603  69.040  1.00  0.00    -0.393 N  
HETATM   18  H   UNL     1     -10.026  13.038  69.364  1.00  0.00     0.000 HD 
BRANCH  17  19
HETATM   19  S   UNL     1     -11.186  10.951  69.170  1.00  0.00    -0.281 S  
HETATM   20  O   UNL     1     -12.409  10.594  68.503  1.00  0.00    -0.317 OA 
HETATM   21  O   UNL     1     -10.957  10.633  70.559  1.00  0.00    -0.225 OA 
BRANCH  19  22
HETATM   22  N   UNL     1      -9.876  10.358  68.246  1.00  0.00    -0.151 N  
BRANCH  22  23
HETATM   23  C   UNL     1      -8.697  11.281  68.223  1.00  0.00    -0.158 C  
HETATM   24  C   UNL     1      -8.118  11.503  66.832  1.00  0.00    -0.164 C  
ENDBRANCH  22  23
BRANCH  22  25
HETATM   25  C   UNL     1     -10.289   9.804  66.925  1.00  0.00    -0.234 C  
HETATM   26  C   UNL     1     -10.336   8.285  66.899  1.00  0.00    -0.391 C  
ENDBRANCH  22  25
ENDBRANCH  19  22
ENDBRANCH  17  19
ENDBRANCH   3  17
BRANCH   7  27
HETATM   27  C   UNL     1     -10.600  13.607  64.897  1.00  0.00    -0.408 C  
BRANCH  27  28
HETATM   28  C   UNL     1     -11.196  12.265  64.452  1.00  0.00    -0.389 C  
HETATM   29  C   UNL     1     -12.226  12.453  63.348  1.00  0.00    -0.623 C  
ENDBRANCH  27  28
ENDBRANCH   7  27
TORSDOF 7
ENDMDL
MODEL       12
REMARK 921   NORMALIZED FREE ENERGY PREDICTED BY IDOCK:   -5.97 KCAL/MOL
REMARK 922        TOTAL FREE ENERGY PREDICTED BY IDOCK:   -9.62 KCAL/MOL
REMARK 923 INTER-LIGAND FREE ENERGY PREDICTED BY IDOCK:   -8.43 KCAL/MOL
REMARK 924 INTRA-LIGAND FREE ENERGY PREDICTED BY IDOCK:   -1.19 KCAL/MOL
REMARK 927      BINDING AFFINITY PREDICTED BY RF-SCORE:    0.00 PKD
ROOT
HETATM    1  C   UNL     1     -11.583  12.694  69.155  1.00  0.00    -0.374 C  
HETATM    2  C   UNL     1     -11.903  11.523  68.213  1.00  0.00    -0.327 C  
HETATM    3  C   UNL     1     -11.065  11.585  66.932  1.00  0.00    -0.307 C  
HETATM    4  C   UNL     1     -12.437  13.891  71.240  1.00  0.00    -0.440 A  
HETATM    5  C   UNL     1     -11.285  12.966  66.294  1.00  0.00    -0.301 C  
HETATM    6  C   UNL     1     -12.269  16.128  72.931  1.00  0.00    -0.640 A  
HETATM    7  N   UNL     1     -10.855  14.058  67.185  1.00  0.00    -0.283 NA 
HETATM    8  O   UNL     1     -13.713  12.769  72.909  1.00  0.00    -0.676 OA 
HETATM    9  C   UNL     1     -11.635  14.071  68.443  1.00  0.00    -0.331 C  
HETATM   10  C   UNL     1     -11.681  16.159  71.667  1.00  0.00    -0.558 A  
HETATM   11  C   UNL     1     -12.953  14.992  73.351  1.00  0.00    -0.622 A  
HETATM   12  C   UNL     1     -11.776  15.053  70.806  1.00  0.00    -0.371 A  
HETATM   13  C   UNL     1     -13.036  13.887  72.507  1.00  0.00    -0.437 A  
HETATM   14  H   UNL     1     -13.770  12.015  72.334  1.00  0.00     0.000 HD 
HETATM   15  C   UNL     1     -12.561  12.685  70.341  1.00  0.00    -0.115 C  
HETATM   16  C   UNL     1     -11.118  15.128  69.447  1.00  0.00    -0.283 C  
ENDROOT
BRANCH   3  17
HETATM   17  N   UNL     1      -9.618  11.300  67.256  1.00  0.00    -0.173 N  
HETATM   18  H   UNL     1      -9.036  11.938  67.800  1.00  0.00     0.000 HD 
BRANCH  17  19
HETATM   19  S   UNL     1      -9.047   9.839  66.646  1.00  0.00    -0.151 S  
HETATM   20  O   UNL     1      -8.032  10.061  65.651  1.00  0.00    -0.128 OA 
HETATM   21  O   UNL     1     -10.227   9.057  66.366  1.00  0.00    -0.288 OA 
BRANCH  19  22
HETATM   22  N   UNL     1      -8.296   9.222  68.051  1.00  0.00    -0.119 N  
BRANCH  22  23
HETATM   23  C   UNL     1      -8.615  10.001  69.289  1.00  0.00    -0.168 C  
HETATM   24  C   UNL     1      -9.649   9.335  70.186  1.00  0.00    -0.254 C  
ENDBRANCH  22  23
BRANCH  22  25
HETATM   25  C   UNL     1      -6.857   8.886  67.851  1.00  0.00    -0.070 C  
HETATM   26  C   UNL     1      -6.018   9.073  69.105  1.00  0.00    -0.042 C  
ENDBRANCH  22  25
ENDBRANCH  19  22
ENDBRANCH  17  19
ENDBRANCH   3  17
BRANCH   7  27
HETATM   27  C   UNL     1     -10.782  15.333  66.458  1.00  0.00    -0.311 C  
BRANCH  27  28
HETATM   28  C   UNL     1      -9.385  15.739  65.971  1.00  0.00    -0.384 C  
HETATM   29  C   UNL     1      -8.300  15.237  66.911  1.00  0.00    -0.278 C  
ENDBRANCH  27  28
ENDBRANCH   7  27
TORSDOF 7
ENDMDL
MODEL       13
REMARK 921   NORMALIZED FREE ENERGY PREDICTED BY IDOCK:   -5.90 KCAL/MOL
REMARK 922        TOTAL FREE ENERGY PREDICTED BY IDOCK:   -9.53 KCAL/MOL
REMARK 923 INTER-LIGAND FREE ENERGY PREDICTED BY IDOCK:   -8.74 KCAL/MOL
REMARK 924 INTRA-LIGAND FREE ENERGY PREDICTED BY IDOCK:   -0.80 KCAL/MOL
REMARK 927      BINDING AFFINITY PREDICTED BY RF-SCORE:    0.00 PKD
ROOT
HETATM    1  C   UNL     1      -8.910  15.998  66.889  1.00  0.00    -0.258 C  
HETATM    2  C   UNL     1      -8.790  14.467  66.885  1.00  0.00    -0.246 C  
HETATM    3  C   UNL     1     -10.065  13.800  67.411  1.00  0.00    -0.244 C  
HETATM    4  C   UNL     1      -7.522  18.127  66.652  1.00  0.00    -0.254 A  
HETATM    5  C   UNL     1     -10.364  14.390  68.799  1.00  0.00    -0.241 C  
HETATM    6  C   UNL     1      -7.395  20.921  66.914  1.00  0.00    -0.272 A  
HETATM    7  N   UNL     1     -10.589  15.845  68.741  1.00  0.00    -0.233 NA 
HETATM    8  O   UNL     1      -5.511  18.190  65.377  1.00  0.00    -0.170 OA 
HETATM    9  C   UNL     1      -9.389  16.560  68.253  1.00  0.00    -0.217 C  
HETATM   10  C   UNL     1      -8.432  20.207  67.512  1.00  0.00    -0.394 A  
HETATM   11  C   UNL     1      -6.412  20.247  66.198  1.00  0.00    -0.241 A  
HETATM   12  C   UNL     1      -8.495  18.808  67.405  1.00  0.00    -0.288 A  
HETATM   13  C   UNL     1      -6.478  18.861  66.073  1.00  0.00    -0.219 A  
HETATM   14  H   UNL     1      -5.556  17.245  65.292  1.00  0.00     0.000 HD 
HETATM   15  C   UNL     1      -7.555  16.624  66.517  1.00  0.00    -0.327 C  
HETATM   16  C   UNL     1      -9.641  18.075  68.064  1.00  0.00    -0.295 C  
ENDROOT
BRANCH   3  17
HETATM   17  N   UNL     1     -11.188  13.999  66.422  1.00  0.00    -0.313 N  
HETATM   18  H   UNL     1     -11.537  14.921  66.159  1.00  0.00     0.000 HD 
BRANCH  17  19
HETATM   19  S   UNL     1     -11.815  12.570  65.791  1.00  0.00    -0.417 S  
HETATM   20  O   UNL     1     -12.816  12.845  64.795  1.00  0.00    -0.706 OA 
HETATM   21  O   UNL     1     -12.093  11.739  66.938  1.00  0.00    -0.566 OA 
BRANCH  19  22
HETATM   22  N   UNL     1     -10.421  11.975  65.003  1.00  0.00    -0.276 N  
BRANCH  22  23
HETATM   23  C   UNL     1     -10.468  12.124  63.514  1.00  0.00    -0.454 C  
HETATM   24  C   UNL     1      -9.489  11.222  62.774  1.00  0.00    -0.355 C  
ENDBRANCH  22  23
BRANCH  22  25
HETATM   25  C   UNL     1      -9.985  10.641  65.505  1.00  0.00    -0.272 C  
HETATM   26  C   UNL     1      -8.697  10.694  66.310  1.00  0.00    -0.163 C  
ENDBRANCH  22  25
ENDBRANCH  19  22
ENDBRANCH  17  19
ENDBRANCH   3  17
BRANCH   7  27
HETATM   27  C   UNL     1     -11.169  16.338  69.998  1.00  0.00    -0.319 C  
BRANCH  27  28
HETATM   28  C   UNL     1     -11.211  15.326  71.150  1.00  0.00    -0.378 C  
HETATM   29  C   UNL     1     -12.015  15.856  72.327  1.00  0.00    -0.617 C  
ENDBRANCH  27  28
ENDBRANCH   7  27
TORSDOF 7
ENDMDL
MODEL       14
REMARK 921   NORMALIZED FREE ENERGY PREDICTED BY IDOCK:   -5.87 KCAL/MOL
REMARK 922        TOTAL FREE ENERGY PREDICTED BY IDOCK:   -9.49 KCAL/MOL
REMARK 923 INTER-LIGAND FREE ENERGY PREDICTED BY IDOCK:   -8.58 KCAL/MOL
REMARK 924 INTRA-LIGAND FREE ENERGY PREDICTED BY IDOCK:   -0.91 KCAL/MOL
REMARK 927      BINDING AFFINITY PREDICTED BY RF-SCORE:    0.00 PKD
ROOT
HETATM    1  C   UNL     1     -11.645  12.553  69.045  1.00  0.00    -0.365 C  
HETATM    2  C   UNL     1     -11.978  11.365  68.129  1.00  0.00    -0.201 C  
HETATM    3  C   UNL     1     -11.162  11.408  66.832  1.00  0.00    -0.264 C  
HETATM    4  C   UNL     1     -12.467  13.782  71.124  1.00  0.00    -0.450 A  
HETATM    5  C   UNL     1     -11.400  12.778  66.175  1.00  0.00    -0.328 C  
HETATM    6  C   UNL     1     -12.278  16.048  72.774  1.00  0.00    -0.617 A  
HETATM    7  N   UNL     1     -10.958  13.886  67.040  1.00  0.00    -0.292 NA 
HETATM    8  O   UNL     1     -13.709  12.683  72.835  1.00  0.00    -0.650 OA 
HETATM    9  C   UNL     1     -11.716  13.917  68.311  1.00  0.00    -0.361 C  
HETATM   10  C   UNL     1     -11.713  16.059  71.500  1.00  0.00    -0.554 A  
HETATM   11  C   UNL     1     -12.950  14.917  73.226  1.00  0.00    -0.635 A  
HETATM   12  C   UNL     1     -11.819  14.939  70.659  1.00  0.00    -0.357 A  
HETATM   13  C   UNL     1     -13.043  13.796  72.402  1.00  0.00    -0.422 A  
HETATM   14  H   UNL     1     -13.773  11.920  72.274  1.00  0.00     0.000 HD 
HETATM   15  C   UNL     1     -12.603  12.560  70.248  1.00  0.00    -0.026 C  
HETATM   16  C   UNL     1     -11.185  14.993  69.287  1.00  0.00    -0.297 C  
ENDROOT
BRANCH   3  17
HETATM   17  N   UNL     1      -9.710  11.134  67.135  1.00  0.00    -0.176 N  
HETATM   18  H   UNL     1      -9.129  11.768  67.685  1.00  0.00     0.000 HD 
BRANCH  17  19
HETATM   19  S   UNL     1      -9.128   9.692  66.490  1.00  0.00    -0.159 S  
HETATM   20  O   UNL     1     -10.211   8.833  66.094  1.00  0.00    -0.233 OA 
HETATM   21  O   UNL     1      -8.105   9.251  67.408  1.00  0.00    -0.109 OA 
BRANCH  19  22
HETATM   22  N   UNL     1      -8.379  10.298  65.079  1.00  0.00    -0.164 N  
BRANCH  22  23
HETATM   23  C   UNL     1      -9.158  10.031  63.828  1.00  0.00    -0.267 C  
HETATM   24  C   UNL     1      -9.836  11.265  63.251  1.00  0.00    -0.418 C  
ENDBRANCH  22  23
BRANCH  22  25
HETATM   25  C   UNL     1      -6.921   9.994  65.009  1.00  0.00    -0.135 C  
HETATM   26  C   UNL     1      -6.447   9.646  63.608  1.00  0.00    -0.110 C  
ENDBRANCH  22  25
ENDBRANCH  19  22
ENDBRANCH  17  19
ENDBRANCH   3  17
BRANCH   7  27
HETATM   27  C   UNL     1     -10.903  15.148  66.290  1.00  0.00    -0.333 C  
BRANCH  27  28
HETATM   28  C   UNL     1      -9.497  15.695  66.015  1.00  0.00    -0.390 C  
HETATM   29  C   UNL     1      -9.249  16.996  66.764  1.00  0.00    -0.270 C  
ENDBRANCH  27  28
ENDBRANCH   7  27
TORSDOF 7
ENDMDL
MODEL       15
REMARK 921   NORMALIZED FREE ENERGY PREDICTED BY IDOCK:   -5.87 KCAL/MOL
REMARK 922        TOTAL FREE ENERGY PREDICTED BY IDOCK:   -9.49 KCAL/MOL
REMARK 923 INTER-LIGAND FREE ENERGY PREDICTED BY IDOCK:   -8.75 KCAL/MOL
REMARK 924 INTRA-LIGAND FREE ENERGY PREDICTED BY IDOCK:   -0.73 KCAL/MOL
REMARK 927      BINDING AFFINITY PREDICTED BY RF-SCORE:    0.00 PKD
ROOT
HETATM    1  C   UNL     1     -10.784  15.819  68.221  1.00  0.00    -0.281 C  
HETATM    2  C   UNL     1     -11.980  15.069  68.829  1.00  0.00    -0.282 C  
HETATM    3  C   UNL     1     -12.016  13.606  68.377  1.00  0.00    -0.356 C  
HETATM    4  C   UNL     1      -9.845  18.166  67.876  1.00  0.00    -0.317 A  
HETATM    5  C   UNL     1     -11.997  13.590  66.840  1.00  0.00    -0.399 C  
HETATM    6  C   UNL     1      -7.953  19.803  66.599  1.00  0.00    -0.333 A  
HETATM    7  N   UNL     1     -10.776  14.214  66.299  1.00  0.00    -0.290 NA 
HETATM    8  O   UNL     1     -10.335  19.956  69.369  1.00  0.00    -0.636 OA 
HETATM    9  C   UNL     1     -10.680  15.639  66.684  1.00  0.00    -0.296 C  
HETATM   10  C   UNL     1      -8.180  18.506  66.141  1.00  0.00    -0.183 A  
HETATM   11  C   UNL     1      -8.675  20.294  67.681  1.00  0.00    -0.351 A  
HETATM   12  C   UNL     1      -9.138  17.686  66.760  1.00  0.00    -0.273 A  
HETATM   13  C   UNL     1      -9.614  19.479  68.309  1.00  0.00    -0.379 A  
HETATM   14  H   UNL     1     -10.975  19.401  69.797  1.00  0.00     0.000 HD 
HETATM   15  C   UNL     1     -10.884  17.314  68.564  1.00  0.00    -0.240 C  
HETATM   16  C   UNL     1      -9.347  16.283  66.235  1.00  0.00    -0.360 C  
ENDROOT
BRANCH   3  17
HETATM   17  N   UNL     1     -10.864  12.853  68.998  1.00  0.00    -0.394 N  
HETATM   18  H   UNL     1     -10.018  13.313  69.332  1.00  0.00     0.000 HD 
BRANCH  17  19
HETATM   19  S   UNL     1     -11.096  11.188  69.092  1.00  0.00    -0.270 S  
HETATM   20  O   UNL     1     -11.907  10.720  68.000  1.00  0.00    -0.546 OA 
HETATM   21  O   UNL     1     -11.451  10.932  70.467  1.00  0.00    -0.312 OA 
BRANCH  19  22
HETATM   22  N   UNL     1      -9.490  10.666  68.831  1.00  0.00    -0.186 N  
BRANCH  22  23
HETATM   23  C   UNL     1      -8.950   9.818  69.941  1.00  0.00    -0.229 C  
HETATM   24  C   UNL     1      -9.358   8.354  69.849  1.00  0.00    -0.155 C  
ENDBRANCH  22  23
BRANCH  22  25
HETATM   25  C   UNL     1      -8.588  11.752  68.350  1.00  0.00    -0.156 C  
HETATM   26  C   UNL     1      -8.184  11.595  66.893  1.00  0.00    -0.169 C  
ENDBRANCH  22  25
ENDBRANCH  19  22
ENDBRANCH  17  19
ENDBRANCH   3  17
BRANCH   7  27
HETATM   27  C   UNL     1     -10.625  13.920  64.867  1.00  0.00    -0.419 C  
BRANCH  27  28
HETATM   28  C   UNL     1     -11.622  12.906  64.290  1.00  0.00    -0.434 C  
HETATM   29  C   UNL     1     -10.906  11.761  63.588  1.00  0.00    -0.508 C  
ENDBRANCH  27  28
ENDBRANCH   7  27
TORSDOF 7
ENDMDL
MODEL       16
REMARK 921   NORMALIZED FREE ENERGY PREDICTED BY IDOCK:   -5.84 KCAL/MOL
REMARK 922        TOTAL FREE ENERGY PREDICTED BY IDOCK:   -9.45 KCAL/MOL
REMARK 923 INTER-LIGAND FREE ENERGY PREDICTED BY IDOCK:   -8.61 KCAL/MOL
REMARK 924 INTRA-LIGAND FREE ENERGY PREDICTED BY IDOCK:   -0.84 KCAL/MOL
REMARK 927      BINDING AFFINITY PREDICTED BY RF-SCORE:    0.00 PKD
ROOT
HETATM    1  C   UNL     1     -10.105  15.087  65.921  1.00  0.00    -0.343 C  
HETATM    2  C   UNL     1     -10.636  16.479  65.547  1.00  0.00    -0.310 C  
HETATM    3  C   UNL     1     -10.348  17.506  66.647  1.00  0.00    -0.319 C  
HETATM    4  C   UNL     1     -10.233  12.633  65.234  1.00  0.00    -0.302 A  
HETATM    5  C   UNL     1     -10.927  16.960  67.962  1.00  0.00    -0.271 C  
HETATM    6  C   UNL     1      -9.669   9.955  65.872  1.00  0.00    -0.326 A  
HETATM    7  N   UNL     1     -10.306  15.680  68.346  1.00  0.00    -0.228 NA 
HETATM    8  O   UNL     1     -10.674  11.969  62.990  1.00  0.00    -0.661 OA 
HETATM    9  C   UNL     1     -10.557  14.631  67.333  1.00  0.00    -0.265 C  
HETATM   10  C   UNL     1      -9.603  10.939  66.857  1.00  0.00    -0.203 A  
HETATM   11  C   UNL     1     -10.029  10.297  64.573  1.00  0.00    -0.359 A  
HETATM   12  C   UNL     1      -9.902  12.278  66.554  1.00  0.00    -0.240 A  
HETATM   13  C   UNL     1     -10.311  11.626  64.262  1.00  0.00    -0.322 A  
HETATM   14  H   UNL     1     -10.866  12.875  62.778  1.00  0.00     0.000 HD 
HETATM   15  C   UNL     1     -10.563  14.060  64.872  1.00  0.00    -0.442 C  
HETATM   16  C   UNL     1      -9.810  13.313  67.652  1.00  0.00    -0.230 C  
ENDROOT
BRANCH   3  17
HETATM   17  N   UNL     1      -8.864  17.777  66.714  1.00  0.00    -0.252 N  
HETATM   18  H   UNL     1      -8.165  17.120  66.367  1.00  0.00     0.000 HD 
BRANCH  17  19
HETATM   19  S   UNL     1      -8.461  19.256  67.409  1.00  0.00    -0.295 S  
HETATM   20  O   UNL     1      -8.406  19.151  68.843  1.00  0.00    -0.352 OA 
HETATM   21  O   UNL     1      -9.302  20.227  66.750  1.00  0.00    -0.369 OA 
BRANCH  19  22
HETATM   22  N   UNL     1      -6.865  19.418  66.821  1.00  0.00    -0.196 N  
BRANCH  22  23
HETATM   23  C   UNL     1      -6.535  18.456  65.721  1.00  0.00    -0.270 C  
HETATM   24  C   UNL     1      -5.865  19.106  64.518  1.00  0.00    -0.319 C  
ENDBRANCH  22  23
BRANCH  22  25
HETATM   25  C   UNL     1      -5.847  19.536  67.903  1.00  0.00    -0.208 C  
HETATM   26  C   UNL     1      -5.414  20.969  68.166  1.00  0.00    -0.366 C  
ENDBRANCH  22  25
ENDBRANCH  19  22
ENDBRANCH  17  19
ENDBRANCH   3  17
BRANCH   7  27
HETATM   27  C   UNL     1     -10.639  15.331  69.734  1.00  0.00    -0.282 C  
BRANCH  27  28
HETATM   28  C   UNL     1     -12.130  15.117  70.025  1.00  0.00    -0.384 C  
HETATM   29  C   UNL     1     -12.502  15.608  71.416  1.00  0.00    -0.500 C  
ENDBRANCH  27  28
ENDBRANCH   7  27
TORSDOF 7
ENDMDL
MODEL       17
REMARK 921   NORMALIZED FREE ENERGY PREDICTED BY IDOCK:   -5.84 KCAL/MOL
REMARK 922        TOTAL FREE ENERGY PREDICTED BY IDOCK:   -9.44 KCAL/MOL
REMARK 923 INTER-LIGAND FREE ENERGY PREDICTED BY IDOCK:   -8.73 KCAL/MOL
REMARK 924 INTRA-LIGAND FREE ENERGY PREDICTED BY IDOCK:   -0.72 KCAL/MOL
REMARK 927      BINDING AFFINITY PREDICTED BY RF-SCORE:    0.00 PKD
ROOT
HETATM    1  C   UNL     1     -10.721  12.257  67.661  1.00  0.00    -0.250 C  
HETATM    2  C   UNL     1     -11.063  13.331  66.617  1.00  0.00    -0.311 C  
HETATM    3  C   UNL     1     -11.186  14.718  67.256  1.00  0.00    -0.346 C  
HETATM    4  C   UNL     1     -10.616   9.728  67.986  1.00  0.00    -0.291 A  
HETATM    5  C   UNL     1     -12.213  14.620  68.396  1.00  0.00    -0.094 C  
HETATM    6  C   UNL     1     -10.353   7.571  69.767  1.00  0.00    -0.221 A  
HETATM    7  N   UNL     1     -11.790  13.665  69.435  1.00  0.00    -0.319 NA 
HETATM    8  O   UNL     1     -10.212   8.236  66.174  1.00  0.00    -0.457 OA 
HETATM    9  C   UNL     1     -11.663  12.294  68.892  1.00  0.00    -0.328 C  
HETATM   10  C   UNL     1     -10.641   8.847  70.249  1.00  0.00    -0.246 A  
HETATM   11  C   UNL     1     -10.210   7.362  68.400  1.00  0.00    -0.207 A  
HETATM   12  C   UNL     1     -10.794   9.929  69.366  1.00  0.00    -0.265 A  
HETATM   13  C   UNL     1     -10.343   8.434  67.520  1.00  0.00    -0.265 A  
HETATM   14  H   UNL     1     -10.303   8.967  65.575  1.00  0.00     0.000 HD 
HETATM   15  C   UNL     1     -10.775  10.866  67.007  1.00  0.00    -0.323 C  
HETATM   16  C   UNL     1     -11.100  11.297  69.933  1.00  0.00    -0.183 C  
ENDROOT
BRANCH   3  17
HETATM   17  N   UNL     1      -9.827  15.190  67.713  1.00  0.00    -0.222 N  
HETATM   18  H   UNL     1      -9.410  14.900  68.598  1.00  0.00     0.000 HD 
BRANCH  17  19
HETATM   19  S   UNL     1      -9.060  16.235  66.640  1.00  0.00    -0.274 S  
HETATM   20  O   UNL     1      -9.801  16.346  65.413  1.00  0.00    -0.515 OA 
HETATM   21  O   UNL     1      -7.671  15.842  66.656  1.00  0.00    -0.234 OA 
BRANCH  19  22
HETATM   22  N   UNL     1      -9.229  17.699  67.505  1.00  0.00    -0.242 N  
BRANCH  22  23
HETATM   23  C   UNL     1     -10.566  18.349  67.323  1.00  0.00    -0.402 C  
HETATM   24  C   UNL     1     -10.508  19.677  66.581  1.00  0.00    -0.610 C  
ENDBRANCH  22  23
BRANCH  22  25
HETATM   25  C   UNL     1      -8.049  18.601  67.372  1.00  0.00    -0.247 C  
HETATM   26  C   UNL     1      -7.474  19.038  68.710  1.00  0.00    -0.369 C  
ENDBRANCH  22  25
ENDBRANCH  19  22
ENDBRANCH  17  19
ENDBRANCH   3  17
BRANCH   7  27
HETATM   27  C   UNL     1     -12.611  13.807  70.645  1.00  0.00    -0.315 C  
BRANCH  27  28
HETATM   28  C   UNL     1     -13.087  15.231  70.959  1.00  0.00    -0.544 C  
HETATM   29  C   UNL     1     -13.945  15.267  72.216  1.00  0.00    -0.646 C  
ENDBRANCH  27  28
ENDBRANCH   7  27
TORSDOF 7
ENDMDL
MODEL       18
REMARK 921   NORMALIZED FREE ENERGY PREDICTED BY IDOCK:   -5.84 KCAL/MOL
REMARK 922        TOTAL FREE ENERGY PREDICTED BY IDOCK:   -9.44 KCAL/MOL
REMARK 923 INTER-LIGAND FREE ENERGY PREDICTED BY IDOCK:   -8.49 KCAL/MOL
REMARK 924 INTRA-LIGAND FREE ENERGY PREDICTED BY IDOCK:   -0.95 KCAL/MOL
REMARK 927      BINDING AFFINITY PREDICTED BY RF-SCORE:    0.00 PKD
ROOT
HETATM    1  C   UNL     1     -11.162  12.270  67.166  1.00  0.00    -0.365 C  
HETATM    2  C   UNL     1     -12.278  13.034  67.894  1.00  0.00    -0.072 C  
HETATM    3  C   UNL     1     -12.149  12.905  69.415  1.00  0.00    -0.198 C  
HETATM    4  C   UNL     1     -10.477  11.423  64.858  1.00  0.00    -0.363 A  
HETATM    5  C   UNL     1     -12.107  11.406  69.756  1.00  0.00    -0.320 C  
HETATM    6  C   UNL     1      -8.754   9.809  63.335  1.00  0.00    -0.235 A  
HETATM    7  N   UNL     1     -10.953  10.734  69.133  1.00  0.00    -0.225 NA 
HETATM    8  O   UNL     1     -11.178  12.505  62.855  1.00  0.00    -0.655 OA 
HETATM    9  C   UNL     1     -11.017  10.805  67.656  1.00  0.00    -0.306 C  
HETATM   10  C   UNL     1      -8.834   9.641  64.717  1.00  0.00    -0.242 A  
HETATM   11  C   UNL     1      -9.541  10.768  62.707  1.00  0.00    -0.337 A  
HETATM   12  C   UNL     1      -9.706  10.429  65.486  1.00  0.00    -0.307 A  
HETATM   13  C   UNL     1     -10.395  11.564  63.466  1.00  0.00    -0.433 A  
HETATM   14  H   UNL     1     -11.760  13.048  63.373  1.00  0.00     0.000 HD 
HETATM   15  C   UNL     1     -11.427  12.287  65.651  1.00  0.00    -0.416 C  
HETATM   16  C   UNL     1      -9.755  10.217  66.982  1.00  0.00    -0.224 C  
ENDROOT
BRANCH   3  17
HETATM   17  N   UNL     1     -10.932  13.661  69.890  1.00  0.00    -0.437 N  
HETATM   18  H   UNL     1      -9.994  13.259  69.886  1.00  0.00     0.000 HD 
BRANCH  17  19
HETATM   19  S   UNL     1     -11.253  15.224  70.425  1.00  0.00    -0.310 S  
HETATM   20  O   UNL     1     -10.956  15.358  71.826  1.00  0.00    -0.303 OA 
HETATM   21  O   UNL     1     -12.554  15.548  69.890  1.00  0.00    -0.300 OA 
BRANCH  19  22
HETATM   22  N   UNL     1     -10.065  16.074  69.539  1.00  0.00    -0.265 N  
BRANCH  22  23
HETATM   23  C   UNL     1     -10.627  16.885  68.413  1.00  0.00    -0.365 C  
HETATM   24  C   UNL     1     -10.530  16.202  67.056  1.00  0.00    -0.306 C  
ENDBRANCH  22  23
BRANCH  22  25
HETATM   25  C   UNL     1      -8.873  15.244  69.205  1.00  0.00    -0.242 C  
HETATM   26  C   UNL     1      -7.573  16.032  69.206  1.00  0.00    -0.230 C  
ENDBRANCH  22  25
ENDBRANCH  19  22
ENDBRANCH  17  19
ENDBRANCH   3  17
BRANCH   7  27
HETATM   27  C   UNL     1     -10.752   9.396  69.707  1.00  0.00    -0.234 C  
BRANCH  27  28
HETATM   28  C   UNL     1     -11.123   9.247  71.188  1.00  0.00    -0.411 C  
HETATM   29  C   UNL     1      -9.927   8.812  72.021  1.00  0.00    -0.391 C  
ENDBRANCH  27  28
ENDBRANCH   7  27
TORSDOF 7
ENDMDL
MODEL       19
REMARK 921   NORMALIZED FREE ENERGY PREDICTED BY IDOCK:   -5.82 KCAL/MOL
REMARK 922        TOTAL FREE ENERGY PREDICTED BY IDOCK:   -9.42 KCAL/MOL
REMARK 923 INTER-LIGAND FREE ENERGY PREDICTED BY IDOCK:   -8.62 KCAL/MOL
REMARK 924 INTRA-LIGAND FREE ENERGY PREDICTED BY IDOCK:   -0.80 KCAL/MOL
REMARK 927      BINDING AFFINITY PREDICTED BY RF-SCORE:    0.00 PKD
ROOT
HETATM    1  C   UNL     1     -10.872  11.813  68.446  1.00  0.00    -0.260 C  
HETATM    2  C   UNL     1     -11.187  13.085  67.644  1.00  0.00    -0.315 C  
HETATM    3  C   UNL     1     -11.370  14.298  68.562  1.00  0.00    -0.282 C  
HETATM    4  C   UNL     1     -10.727   9.275  68.218  1.00  0.00    -0.195 A  
HETATM    5  C   UNL     1     -12.447  13.942  69.600  1.00  0.00    -0.143 C  
HETATM    6  C   UNL     1     -10.502   6.785  69.498  1.00  0.00    -0.248 A  
HETATM    7  N   UNL     1     -12.052  12.788  70.427  1.00  0.00    -0.352 NA 
HETATM    8  O   UNL     1     -10.206   8.219  66.148  1.00  0.00    -0.457 OA 
HETATM    9  C   UNL     1     -11.871  11.570  69.606  1.00  0.00    -0.354 C  
HETATM   10  C   UNL     1     -10.840   7.922  70.231  1.00  0.00    -0.241 A  
HETATM   11  C   UNL     1     -10.289   6.880  68.127  1.00  0.00    -0.223 A  
HETATM   12  C   UNL     1     -10.974   9.168  69.598  1.00  0.00    -0.168 A  
HETATM   13  C   UNL     1     -10.405   8.117  67.496  1.00  0.00    -0.261 A  
HETATM   14  H   UNL     1     -10.285   9.062  65.718  1.00  0.00     0.000 HD 
HETATM   15  C   UNL     1     -10.864  10.597  67.503  1.00  0.00    -0.351 C  
HETATM   16  C   UNL     1     -11.336  10.376  70.433  1.00  0.00    -0.417 C  
ENDROOT
BRANCH   3  17
HETATM   17  N   UNL     1     -10.045  14.673  69.179  1.00  0.00    -0.339 N  
HETATM   18  H   UNL     1      -9.783  14.412  70.131  1.00  0.00     0.000 HD 
BRANCH  17  19
HETATM   19  S   UNL     1      -9.035  15.560  68.166  1.00  0.00    -0.181 S  
HETATM   20  O   UNL     1      -8.305  14.692  67.281  1.00  0.00    -0.188 OA 
HETATM   21  O   UNL     1      -8.366  16.504  69.028  1.00  0.00    -0.235 OA 
BRANCH  19  22
HETATM   22  N   UNL     1     -10.216  16.391  67.250  1.00  0.00    -0.273 N  
BRANCH  22  23
HETATM   23  C   UNL     1      -9.932  16.400  65.780  1.00  0.00    -0.302 C  
HETATM   24  C   UNL     1     -10.909  15.568  64.960  1.00  0.00    -0.468 C  
ENDBRANCH  22  23
BRANCH  22  25
HETATM   25  C   UNL     1     -10.604  17.703  67.842  1.00  0.00    -0.387 C  
HETATM   26  C   UNL     1     -10.427  18.869  66.884  1.00  0.00    -0.496 C  
ENDBRANCH  22  25
ENDBRANCH  19  22
ENDBRANCH  17  19
ENDBRANCH   3  17
BRANCH   7  27
HETATM   27  C   UNL     1     -12.932  12.653  71.596  1.00  0.00    -0.299 C  
BRANCH  27  28
HETATM   28  C   UNL     1     -13.706  13.918  71.992  1.00  0.00    -0.577 C  
HETATM   29  C   UNL     1     -12.993  14.685  73.095  1.00  0.00    -0.605 C  
ENDBRANCH  27  28
ENDBRANCH   7  27
TORSDOF 7
ENDMDL
MODEL       20
REMARK 921   NORMALIZED FREE ENERGY PREDICTED BY IDOCK:   -5.81 KCAL/MOL
REMARK 922        TOTAL FREE ENERGY PREDICTED BY IDOCK:   -9.41 KCAL/MOL
REMARK 923 INTER-LIGAND FREE ENERGY PREDICTED BY IDOCK:   -8.69 KCAL/MOL
REMARK 924 INTRA-LIGAND FREE ENERGY PREDICTED BY IDOCK:   -0.72 KCAL/MOL
REMARK 927      BINDING AFFINITY PREDICTED BY RF-SCORE:    0.00 PKD
ROOT
HETATM    1  C   UNL     1     -10.299  13.086  67.073  1.00  0.00    -0.247 C  
HETATM    2  C   UNL     1     -10.508  14.373  66.261  1.00  0.00    -0.292 C  
HETATM    3  C   UNL     1     -10.646  15.598  67.172  1.00  0.00    -0.308 C  
HETATM    4  C   UNL     1     -10.305  10.544  66.853  1.00  0.00    -0.293 A  
HETATM    5  C   UNL     1     -11.776  15.312  68.174  1.00  0.00    -0.279 C  
HETATM    6  C   UNL     1     -10.277   8.048  68.142  1.00  0.00    -0.251 A  
HETATM    7  N   UNL     1     -11.481  14.138  69.014  1.00  0.00    -0.265 NA 
HETATM    8  O   UNL     1      -9.783   9.451  64.802  1.00  0.00    -0.428 OA 
HETATM    9  C   UNL     1     -11.349  12.909  68.201  1.00  0.00    -0.289 C  
HETATM   10  C   UNL     1     -10.568   9.205  68.862  1.00  0.00    -0.214 A  
HETATM   11  C   UNL     1     -10.015   8.126  66.778  1.00  0.00    -0.349 A  
HETATM   12  C   UNL     1     -10.604  10.456  68.223  1.00  0.00    -0.245 A  
HETATM   13  C   UNL     1     -10.032   9.366  66.143  1.00  0.00    -0.281 A  
HETATM   14  H   UNL     1      -9.795  10.297  64.368  1.00  0.00     0.000 HD 
HETATM   15  C   UNL     1     -10.336  11.870  66.133  1.00  0.00    -0.261 C  
HETATM   16  C   UNL     1     -10.917  11.686  69.045  1.00  0.00    -0.283 C  
ENDROOT
BRANCH   3  17
HETATM   17  N   UNL     1      -9.321  15.892  67.832  1.00  0.00    -0.207 N  
HETATM   18  H   UNL     1      -9.050  15.494  68.732  1.00  0.00     0.000 HD 
BRANCH  17  19
HETATM   19  S   UNL     1      -8.327  16.931  66.958  1.00  0.00    -0.216 S  
HETATM   20  O   UNL     1      -9.007  17.435  65.795  1.00  0.00    -0.521 OA 
HETATM   21  O   UNL     1      -7.058  16.250  66.860  1.00  0.00    -0.212 OA 
BRANCH  19  22
HETATM   22  N   UNL     1      -8.185  18.203  68.091  1.00  0.00    -0.268 N  
BRANCH  22  23
HETATM   23  C   UNL     1      -8.799  19.487  67.626  1.00  0.00    -0.314 C  
HETATM   24  C   UNL     1     -10.200  19.730  68.170  1.00  0.00    -0.577 C  
ENDBRANCH  22  23
BRANCH  22  25
HETATM   25  C   UNL     1      -6.820  18.316  68.681  1.00  0.00    -0.254 C  
HETATM   26  C   UNL     1      -6.579  19.641  69.386  1.00  0.00    -0.383 C  
ENDBRANCH  22  25
ENDBRANCH  19  22
ENDBRANCH  17  19
ENDBRANCH   3  17
BRANCH   7  27
HETATM   27  C   UNL     1     -12.406  14.062  70.154  1.00  0.00    -0.345 C  
BRANCH  27  28
HETATM   28  C   UNL     1     -12.838  15.409  70.747  1.00  0.00    -0.524 C  
HETATM   29  C   UNL     1     -11.827  15.920  71.763  1.00  0.00    -0.579 C  
ENDBRANCH  27  28
ENDBRANCH   7  27
TORSDOF 7
ENDMDL
MODEL       21
REMARK 921   NORMALIZED FREE ENERGY PREDICTED BY IDOCK:   -5.80 KCAL/MOL
REMARK 922        TOTAL FREE ENERGY PREDICTED BY IDOCK:   -9.38 KCAL/MOL
REMARK 923 INTER-LIGAND FREE ENERGY PREDICTED BY IDOCK:   -8.64 KCAL/MOL
REMARK 924 INTRA-LIGAND FREE ENERGY PREDICTED BY IDOCK:   -0.75 KCAL/MOL
REMARK 927      BINDING AFFINITY PREDICTED BY RF-SCORE:    0.00 PKD
ROOT
HETATM    1  C   UNL     1     -11.288  10.551  68.109  1.00  0.00    -0.324 C  
HETATM    2  C   UNL     1     -10.767   9.837  69.366  1.00  0.00    -0.250 C  
HETATM    3  C   UNL     1     -11.568  10.234  70.611  1.00  0.00    -0.347 C  
HETATM    4  C   UNL     1     -10.686  11.043  65.679  1.00  0.00    -0.217 A  
HETATM    5  C   UNL     1     -11.539  11.767  70.718  1.00  0.00     0.503 C  
HETATM    6  C   UNL     1     -11.240  12.503  63.343  1.00  0.00    -0.460 A  
HETATM    7  N   UNL     1     -12.156  12.411  69.544  1.00  0.00    -0.236 NA 
HETATM    8  O   UNL     1      -9.305   9.585  64.398  1.00  0.00    -0.408 OA 
HETATM    9  C   UNL     1     -11.423  12.084  68.300  1.00  0.00    -0.303 C  
HETATM   10  C   UNL     1     -11.787  12.897  64.563  1.00  0.00    -0.429 A  
HETATM   11  C   UNL     1     -10.404  11.392  63.284  1.00  0.00    -0.422 A  
HETATM   12  C   UNL     1     -11.502  12.186  65.740  1.00  0.00    -0.414 A  
HETATM   13  C   UNL     1     -10.131  10.673  64.446  1.00  0.00    -0.349 A  
HETATM   14  H   UNL     1      -9.118   9.095  65.190  1.00  0.00     0.000 HD 
HETATM   15  C   UNL     1     -10.355  10.256  66.923  1.00  0.00    -0.298 C  
HETATM   16  C   UNL     1     -12.124  12.645  67.040  1.00  0.00    -0.202 C  
ENDROOT
BRANCH   3  17
HETATM   17  N   UNL     1     -12.963   9.666  70.521  1.00  0.00    -0.537 N  
HETATM   18  H   UNL     1     -13.642   9.972  69.823  1.00  0.00     0.000 HD 
BRANCH  17  19
HETATM   19  S   UNL     1     -13.305   8.484  71.670  1.00  0.00    -0.325 S  
HETATM   20  O   UNL     1     -14.317   7.580  71.191  1.00  0.00    -0.370 OA 
HETATM   21  O   UNL     1     -13.452   9.198  72.915  1.00  0.00    -0.335 OA 
BRANCH  19  22
HETATM   22  N   UNL     1     -11.808   7.660  71.679  1.00  0.00    -0.280 N  
BRANCH  22  23
HETATM   23  C   UNL     1     -11.864   6.314  71.025  1.00  0.00    -0.154 C  
HETATM   24  C   UNL     1     -11.278   6.289  69.620  1.00  0.00    -0.506 C  
ENDBRANCH  22  23
BRANCH  22  25
HETATM   25  C   UNL     1     -11.118   7.708  73.000  1.00  0.00    -0.381 C  
HETATM   26  C   UNL     1     -10.632   6.347  73.473  1.00  0.00    -0.297 C  
ENDBRANCH  22  25
ENDBRANCH  19  22
ENDBRANCH  17  19
ENDBRANCH   3  17
BRANCH   7  27
HETATM   27  C   UNL     1     -12.398  13.838  69.795  1.00  0.00    -0.255 C  
BRANCH  27  28
HETATM   28  C   UNL     1     -12.591  14.230  71.266  1.00  0.00    -0.436 C  
HETATM   29  C   UNL     1     -13.597  15.361  71.413  1.00  0.00    -0.604 C  
ENDBRANCH  27  28
ENDBRANCH   7  27
TORSDOF 7
ENDMDL
MODEL       22
REMARK 921   NORMALIZED FREE ENERGY PREDICTED BY IDOCK:   -5.80 KCAL/MOL
REMARK 922        TOTAL FREE ENERGY PREDICTED BY IDOCK:   -9.38 KCAL/MOL
REMARK 923 INTER-LIGAND FREE ENERGY PREDICTED BY IDOCK:   -8.67 KCAL/MOL
REMARK 924 INTRA-LIGAND FREE ENERGY PREDICTED BY IDOCK:   -0.72 KCAL/MOL
REMARK 927      BINDING AFFINITY PREDICTED BY RF-SCORE:    0.00 PKD
ROOT
HETATM    1  C   UNL     1      -9.614  14.785  67.444  1.00  0.00    -0.210 C  
HETATM    2  C   UNL     1      -9.474  13.352  66.909  1.00  0.00    -0.253 C  
HETATM    3  C   UNL     1      -8.933  12.401  67.982  1.00  0.00    -0.194 C  
HETATM    4  C   UNL     1      -9.997  17.190  66.681  1.00  0.00    -0.298 A  
HETATM    5  C   UNL     1      -7.616  12.991  68.511  1.00  0.00    -0.121 C  
HETATM    6  C   UNL     1      -9.988  19.921  67.340  1.00  0.00    -0.558 A  
HETATM    7  N   UNL     1      -7.815  14.317  69.123  1.00  0.00    -0.044 NA 
HETATM    8  O   UNL     1     -11.203  17.709  64.693  1.00  0.00    -0.857 OA 
HETATM    9  C   UNL     1      -8.325  15.297  68.137  1.00  0.00    -0.149 C  
HETATM   10  C   UNL     1      -9.363  18.996  68.175  1.00  0.00    -0.385 A  
HETATM   11  C   UNL     1     -10.606  19.493  66.169  1.00  0.00    -0.585 A  
HETATM   12  C   UNL     1      -9.344  17.631  67.845  1.00  0.00    -0.268 A  
HETATM   13  C   UNL     1     -10.605  18.138  65.846  1.00  0.00    -0.234 A  
HETATM   14  H   UNL     1     -11.202  16.785  64.473  1.00  0.00     0.000 HD 
HETATM   15  C   UNL     1      -9.996  15.731  66.293  1.00  0.00    -0.315 C  
HETATM   16  C   UNL     1      -8.661  16.662  68.784  1.00  0.00    -0.261 C  
ENDROOT
BRANCH   3  17
HETATM   17  N   UNL     1      -9.975  12.201  69.056  1.00  0.00    -0.414 N  
HETATM   18  H   UNL     1     -10.115  12.862  69.821  1.00  0.00     0.000 HD 
BRANCH  17  19
HETATM   19  S   UNL     1     -10.884  10.795  68.887  1.00  0.00    -0.247 S  
HETATM   20  O   UNL     1     -10.077   9.720  68.377  1.00  0.00    -0.155 OA 
HETATM   21  O   UNL     1     -12.101  11.208  68.230  1.00  0.00    -0.620 OA 
BRANCH  19  22
HETATM   22  N   UNL     1     -11.224  10.480  70.532  1.00  0.00    -0.310 N  
BRANCH  22  23
HETATM   23  C   UNL     1     -10.435   9.340  71.096  1.00  0.00    -0.331 C  
HETATM   24  C   UNL     1     -11.174   8.553  72.169  1.00  0.00    -0.432 C  
ENDBRANCH  22  23
BRANCH  22  25
HETATM   25  C   UNL     1     -12.682  10.472  70.841  1.00  0.00    -0.402 C  
HETATM   26  C   UNL     1     -13.103  11.591  71.780  1.00  0.00    -0.503 C  
ENDBRANCH  22  25
ENDBRANCH  19  22
ENDBRANCH  17  19
ENDBRANCH   3  17
BRANCH   7  27
HETATM   27  C   UNL     1      -6.630  14.726  69.887  1.00  0.00    -0.175 C  
BRANCH  27  28
HETATM   28  C   UNL     1      -5.696  13.589  70.322  1.00  0.00    -0.150 C  
HETATM   29  C   UNL     1      -5.352  13.686  71.801  1.00  0.00    -0.196 C  
ENDBRANCH  27  28
ENDBRANCH   7  27
TORSDOF 7
ENDMDL
MODEL       23
REMARK 921   NORMALIZED FREE ENERGY PREDICTED BY IDOCK:   -5.77 KCAL/MOL
REMARK 922        TOTAL FREE ENERGY PREDICTED BY IDOCK:   -9.35 KCAL/MOL
REMARK 923 INTER-LIGAND FREE ENERGY PREDICTED BY IDOCK:   -9.33 KCAL/MOL
REMARK 924 INTRA-LIGAND FREE ENERGY PREDICTED BY IDOCK:   -0.01 KCAL/MOL
REMARK 927      BINDING AFFINITY PREDICTED BY RF-SCORE:    0.00 PKD
ROOT
HETATM    1  C   UNL     1     -10.866  11.809  66.972  1.00  0.00    -0.306 C  
HETATM    2  C   UNL     1     -11.994  12.717  67.483  1.00  0.00    -0.342 C  
HETATM    3  C   UNL     1     -12.032  12.759  69.014  1.00  0.00    -0.242 C  
HETATM    4  C   UNL     1     -10.008  10.659  64.861  1.00  0.00    -0.382 A  
HETATM    5  C   UNL     1     -12.131  11.311  69.521  1.00  0.00    -0.317 C  
HETATM    6  C   UNL     1      -8.256   8.780  63.725  1.00  0.00    -0.163 A  
HETATM    7  N   UNL     1     -10.969  10.504  69.107  1.00  0.00    -0.223 NA 
HETATM    8  O   UNL     1     -10.421  11.537  62.686  1.00  0.00    -0.557 OA 
HETATM    9  C   UNL     1     -10.876  10.406  67.633  1.00  0.00    -0.306 C  
HETATM   10  C   UNL     1      -8.489   8.780  65.099  1.00  0.00    -0.192 A  
HETATM   11  C   UNL     1      -8.904   9.703  62.911  1.00  0.00    -0.252 A  
HETATM   12  C   UNL     1      -9.378   9.702  65.675  1.00  0.00    -0.296 A  
HETATM   13  C   UNL     1      -9.774  10.631  63.479  1.00  0.00    -0.339 A  
HETATM   14  H   UNL     1     -11.014  12.170  63.073  1.00  0.00     0.000 HD 
HETATM   15  C   UNL     1     -10.972  11.663  65.444  1.00  0.00    -0.328 C  
HETATM   16  C   UNL     1      -9.595   9.670  67.171  1.00  0.00    -0.210 C  
ENDROOT
BRANCH   3  17
HETATM   17  N   UNL     1     -10.821  13.494  69.533  1.00  0.00    -0.447 N  
HETATM   18  H   UNL     1      -9.925  13.035  69.701  1.00  0.00     0.000 HD 
BRANCH  17  19
HETATM   19  S   UNL     1     -11.073  15.134  69.813  1.00  0.00    -0.296 S  
HETATM   20  O   UNL     1     -12.013  15.677  68.871  1.00  0.00    -0.367 OA 
HETATM   21  O   UNL     1      -9.754  15.697  69.981  1.00  0.00    -0.242 OA 
BRANCH  19  22
HETATM   22  N   UNL     1     -11.833  15.045  71.341  1.00  0.00    -0.336 N  
BRANCH  22  23
HETATM   23  C   UNL     1     -13.219  14.482  71.286  1.00  0.00    -0.357 C  
HETATM   24  C   UNL     1     -13.459  13.341  72.264  1.00  0.00    -0.679 C  
ENDBRANCH  22  23
BRANCH  22  25
HETATM   25  C   UNL     1     -11.671  16.285  72.154  1.00  0.00    -0.441 C  
HETATM   26  C   UNL     1     -12.297  16.184  73.535  1.00  0.00    -0.664 C  
ENDBRANCH  22  25
ENDBRANCH  19  22
ENDBRANCH  17  19
ENDBRANCH   3  17
BRANCH   7  27
HETATM   27  C   UNL     1     -10.922   9.234  69.843  1.00  0.00    -0.213 C  
BRANCH  27  28
HETATM   28  C   UNL     1     -11.310   9.312  71.325  1.00  0.00    -0.423 C  
HETATM   29  C   UNL     1     -10.376   8.479  72.190  1.00  0.00    -0.409 C  
ENDBRANCH  27  28
ENDBRANCH   7  27
TORSDOF 7
ENDMDL
MODEL       24
REMARK 921   NORMALIZED FREE ENERGY PREDICTED BY IDOCK:   -5.75 KCAL/MOL
REMARK 922        TOTAL FREE ENERGY PREDICTED BY IDOCK:   -9.32 KCAL/MOL
REMARK 923 INTER-LIGAND FREE ENERGY PREDICTED BY IDOCK:   -8.53 KCAL/MOL
REMARK 924 INTRA-LIGAND FREE ENERGY PREDICTED BY IDOCK:   -0.79 KCAL/MOL
REMARK 927      BINDING AFFINITY PREDICTED BY RF-SCORE:    0.00 PKD
ROOT
HETATM    1  C   UNL     1      -8.879  15.429  67.040  1.00  0.00    -0.252 C  
HETATM    2  C   UNL     1      -8.042  14.151  67.208  1.00  0.00    -0.188 C  
HETATM    3  C   UNL     1      -8.930  12.908  67.328  1.00  0.00    -0.208 C  
HETATM    4  C   UNL     1      -8.701  17.973  67.103  1.00  0.00    -0.247 A  
HETATM    5  C   UNL     1      -9.921  13.150  68.478  1.00  0.00    -0.180 C  
HETATM    6  C   UNL     1     -10.033  20.447  67.151  1.00  0.00    -0.568 A  
HETATM    7  N   UNL     1     -10.785  14.316  68.222  1.00  0.00    -0.241 NA 
HETATM    8  O   UNL     1      -6.676  19.113  66.580  1.00  0.00    -0.190 OA 
HETATM    9  C   UNL     1      -9.995  15.562  68.109  1.00  0.00    -0.217 C  
HETATM   10  C   UNL     1     -10.729  19.270  67.423  1.00  0.00    -0.594 A  
HETATM   11  C   UNL     1      -8.672  20.398  66.869  1.00  0.00    -0.345 A  
HETATM   12  C   UNL     1     -10.069  18.030  67.422  1.00  0.00    -0.354 A  
HETATM   13  C   UNL     1      -8.016  19.169  66.849  1.00  0.00    -0.259 A  
HETATM   14  H   UNL     1      -6.229  18.276  66.566  1.00  0.00     0.000 HD 
HETATM   15  C   UNL     1      -7.959  16.660  67.094  1.00  0.00    -0.212 C  
HETATM   16  C   UNL     1     -10.866  16.779  67.716  1.00  0.00    -0.285 C  
ENDROOT
BRANCH   3  17
HETATM   17  N   UNL     1      -9.603  12.634  66.006  1.00  0.00    -0.368 N  
HETATM   18  H   UNL     1      -9.469  13.223  65.184  1.00  0.00     0.000 HD 
BRANCH  17  19
HETATM   19  S   UNL     1     -10.593  11.273  66.002  1.00  0.00    -0.238 S  
HETATM   20  O   UNL     1     -11.918  11.601  66.453  1.00  0.00    -0.433 OA 
HETATM   21  O   UNL     1      -9.812  10.234  66.629  1.00  0.00    -0.188 OA 
BRANCH  19  22
HETATM   22  N   UNL     1     -10.655  10.976  64.320  1.00  0.00    -0.362 N  
BRANCH  22  23
HETATM   23  C   UNL     1      -9.417  10.328  63.782  1.00  0.00    -0.300 C  
HETATM   24  C   UNL     1      -8.872  10.993  62.526  1.00  0.00    -0.358 C  
ENDBRANCH  22  23
BRANCH  22  25
HETATM   25  C   UNL     1     -11.171  12.134  63.536  1.00  0.00    -0.458 C  
HETATM   26  C   UNL     1     -12.623  11.976  63.116  1.00  0.00    -0.352 C  
ENDBRANCH  22  25
ENDBRANCH  19  22
ENDBRANCH  17  19
ENDBRANCH   3  17
BRANCH   7  27
HETATM   27  C   UNL     1     -11.913  14.350  69.163  1.00  0.00    -0.322 C  
BRANCH  27  28
HETATM   28  C   UNL     1     -11.564  14.750  70.603  1.00  0.00    -0.324 C  
HETATM   29  C   UNL     1     -12.585  15.722  71.174  1.00  0.00    -0.487 C  
ENDBRANCH  27  28
ENDBRANCH   7  27
TORSDOF 7
ENDMDL
MODEL       25
REMARK 921   NORMALIZED FREE ENERGY PREDICTED BY IDOCK:   -5.74 KCAL/MOL
REMARK 922        TOTAL FREE ENERGY PREDICTED BY IDOCK:   -9.31 KCAL/MOL
REMARK 923 INTER-LIGAND FREE ENERGY PREDICTED BY IDOCK:   -8.39 KCAL/MOL
REMARK 924 INTRA-LIGAND FREE ENERGY PREDICTED BY IDOCK:   -0.92 KCAL/MOL
REMARK 927      BINDING AFFINITY PREDICTED BY RF-SCORE:    0.00 PKD
ROOT
HETATM    1  C   UNL     1     -11.442  10.634  69.382  1.00  0.00    -0.356 C  
HETATM    2  C   UNL     1     -11.729  12.119  69.110  1.00  0.00    -0.384 C  
HETATM    3  C   UNL     1     -11.082  12.586  67.802  1.00  0.00    -0.249 C  
HETATM    4  C   UNL     1     -11.585   8.860  71.211  1.00  0.00    -0.371 A  
HETATM    5  C   UNL     1      -9.583  12.253  67.875  1.00  0.00    -0.203 C  
HETATM    6  C   UNL     1     -10.885   6.281  72.077  1.00  0.00    -0.286 A  
HETATM    7  N   UNL     1      -9.349  10.805  68.018  1.00  0.00    -0.147 NA 
HETATM    8  O   UNL     1     -13.202   8.969  72.956  1.00  0.00    -0.802 OA 
HETATM    9  C   UNL     1      -9.935  10.283  69.273  1.00  0.00    -0.227 C  
HETATM   10  C   UNL     1     -10.223   6.861  70.996  1.00  0.00    -0.213 A  
HETATM   11  C   UNL     1     -11.885   6.986  72.739  1.00  0.00     0.007 A  
HETATM   12  C   UNL     1     -10.551   8.157  70.567  1.00  0.00    -0.228 A  
HETATM   13  C   UNL     1     -12.226   8.266  72.307  1.00  0.00    -0.370 A  
HETATM   14  H   UNL     1     -13.435   9.842  72.661  1.00  0.00     0.000 HD 
HETATM   15  C   UNL     1     -11.963  10.256  70.779  1.00  0.00    -0.456 C  
HETATM   16  C   UNL     1      -9.812   8.744  69.386  1.00  0.00    -0.186 C  
ENDROOT
BRANCH   3  17
HETATM   17  N   UNL     1     -11.781  11.943  66.630  1.00  0.00    -0.275 N  
HETATM   18  H   UNL     1     -11.941  10.937  66.564  1.00  0.00     0.000 HD 
BRANCH  17  19
HETATM   19  S   UNL     1     -12.276  13.025  65.439  1.00  0.00    -0.487 S  
HETATM   20  O   UNL     1     -12.761  14.246  66.025  1.00  0.00    -0.430 OA 
HETATM   21  O   UNL     1     -13.081  12.246  64.530  1.00  0.00    -0.791 OA 
BRANCH  19  22
HETATM   22  N   UNL     1     -10.766  13.344  64.705  1.00  0.00    -0.389 N  
BRANCH  22  23
HETATM   23  C   UNL     1     -10.438  14.803  64.627  1.00  0.00    -0.141 C  
HETATM   24  C   UNL     1      -9.563  15.298  65.771  1.00  0.00    -0.359 C  
ENDBRANCH  22  23
BRANCH  22  25
HETATM   25  C   UNL     1     -10.543  12.564  63.454  1.00  0.00    -0.250 C  
HETATM   26  C   UNL     1      -9.948  11.188  63.704  1.00  0.00    -0.411 C  
ENDBRANCH  22  25
ENDBRANCH  19  22
ENDBRANCH  17  19
ENDBRANCH   3  17
BRANCH   7  27
HETATM   27  C   UNL     1      -7.937  10.474  67.779  1.00  0.00    -0.106 C  
BRANCH  27  28
HETATM   28  C   UNL     1      -7.637   9.776  66.446  1.00  0.00    -0.099 C  
HETATM   29  C   UNL     1      -8.720   8.770  66.088  1.00  0.00    -0.184 C  
ENDBRANCH  27  28
ENDBRANCH   7  27
TORSDOF 7
ENDMDL
MODEL       26
REMARK 921   NORMALIZED FREE ENERGY PREDICTED BY IDOCK:   -5.73 KCAL/MOL
REMARK 922        TOTAL FREE ENERGY PREDICTED BY IDOCK:   -9.28 KCAL/MOL
REMARK 923 INTER-LIGAND FREE ENERGY PREDICTED BY IDOCK:   -8.30 KCAL/MOL
REMARK 924 INTRA-LIGAND FREE ENERGY PREDICTED BY IDOCK:   -0.99 KCAL/MOL
REMARK 927      BINDING AFFINITY PREDICTED BY RF-SCORE:    0.00 PKD
ROOT
HETATM    1  C   UNL     1     -11.365  11.408  69.448  1.00  0.00    -0.365 C  
HETATM    2  C   UNL     1     -11.343   9.943  68.985  1.00  0.00    -0.073 C  
HETATM    3  C   UNL     1     -10.429   9.749  67.771  1.00  0.00    -0.246 C  
HETATM    4  C   UNL     1     -12.635  13.022  70.962  1.00  0.00    -0.386 A  
HETATM    5  C   UNL     1     -10.885  10.732  66.680  1.00  0.00    -0.164 C  
HETATM    6  C   UNL     1     -13.099  15.681  71.742  1.00  0.00    -0.546 A  
HETATM    7  N   UNL     1     -10.779  12.133  67.123  1.00  0.00    -0.226 NA 
HETATM    8  O   UNL     1     -13.781  12.286  72.916  1.00  0.00    -0.494 OA 
HETATM    9  C   UNL     1     -11.650  12.400  68.290  1.00  0.00    -0.333 C  
HETATM   10  C   UNL     1     -12.424  15.406  70.554  1.00  0.00    -0.468 A  
HETATM   11  C   UNL     1     -13.557  14.636  72.537  1.00  0.00    -0.572 A  
HETATM   12  C   UNL     1     -12.204  14.081  70.144  1.00  0.00    -0.425 A  
HETATM   13  C   UNL     1     -13.327  13.319  72.145  1.00  0.00    -0.523 A  
HETATM   14  H   UNL     1     -13.624  11.388  72.649  1.00  0.00     0.000 HD 
HETATM   15  C   UNL     1     -12.418  11.585  70.554  1.00  0.00    -0.367 C  
HETATM   16  C   UNL     1     -11.461  13.830  68.851  1.00  0.00    -0.344 C  
ENDROOT
BRANCH   3  17
HETATM   17  N   UNL     1      -8.989   9.938  68.183  1.00  0.00    -0.119 N  
HETATM   18  H   UNL     1      -8.633  10.815  68.564  1.00  0.00     0.000 HD 
BRANCH  17  19
HETATM   19  S   UNL     1      -8.022   8.579  67.959  1.00  0.00    -0.112 S  
HETATM   20  O   UNL     1      -6.959   8.541  68.928  1.00  0.00    -0.060 OA 
HETATM   21  O   UNL     1      -7.760   8.529  66.541  1.00  0.00    -0.090 OA 
BRANCH  19  22
HETATM   22  N   UNL     1      -9.153   7.360  68.354  1.00  0.00    -0.133 N  
BRANCH  22  23
HETATM   23  C   UNL     1      -9.022   6.858  69.758  1.00  0.00    -0.141 C  
HETATM   24  C   UNL     1     -10.348   6.465  70.396  1.00  0.00    -0.251 C  
ENDBRANCH  22  23
BRANCH  22  25
HETATM   25  C   UNL     1      -9.281   6.312  67.302  1.00  0.00    -0.118 C  
HETATM   26  C   UNL     1     -10.686   6.203  66.731  1.00  0.00    -0.371 C  
ENDBRANCH  22  25
ENDBRANCH  19  22
ENDBRANCH  17  19
ENDBRANCH   3  17
BRANCH   7  27
HETATM   27  C   UNL     1     -10.918  13.056  65.988  1.00  0.00    -0.275 C  
BRANCH  27  28
HETATM   28  C   UNL     1     -12.255  12.986  65.238  1.00  0.00    -0.513 C  
HETATM   29  C   UNL     1     -12.047  12.947  63.732  1.00  0.00    -0.583 C  
ENDBRANCH  27  28
ENDBRANCH   7  27
TORSDOF 7
ENDMDL
MODEL       27
REMARK 921   NORMALIZED FREE ENERGY PREDICTED BY IDOCK:   -5.62 KCAL/MOL
REMARK 922        TOTAL FREE ENERGY PREDICTED BY IDOCK:   -9.14 KCAL/MOL
REMARK 923 INTER-LIGAND FREE ENERGY PREDICTED BY IDOCK:   -8.24 KCAL/MOL
REMARK 924 INTRA-LIGAND FREE ENERGY PREDICTED BY IDOCK:   -0.90 KCAL/MOL
REMARK 927      BINDING AFFINITY PREDICTED BY RF-SCORE:    0.00 PKD
ROOT
HETATM    1  C   UNL     1     -10.608  11.653  66.577  1.00  0.00    -0.292 C  
HETATM    2  C   UNL     1     -11.711  12.645  66.978  1.00  0.00    -0.438 C  
HETATM    3  C   UNL     1     -11.782  12.824  68.498  1.00  0.00    -0.333 C  
HETATM    4  C   UNL     1      -9.750  10.290  64.598  1.00  0.00    -0.398 A  
HETATM    5  C   UNL     1     -11.948  11.431  69.127  1.00  0.00    -0.328 C  
HETATM    6  C   UNL     1      -8.048   8.254  63.676  1.00  0.00    -0.126 A  
HETATM    7  N   UNL     1     -10.810  10.548  68.815  1.00  0.00    -0.215 NA 
HETATM    8  O   UNL     1     -10.080  10.986  62.344  1.00  0.00    -0.582 OA 
HETATM    9  C   UNL     1     -10.688  10.316  67.358  1.00  0.00    -0.281 C  
HETATM   10  C   UNL     1      -8.311   8.384  65.039  1.00  0.00    -0.169 A  
HETATM   11  C   UNL     1      -8.641   9.124  62.768  1.00  0.00    -0.209 A  
HETATM   12  C   UNL     1      -9.176   9.386  65.509  1.00  0.00    -0.292 A  
HETATM   13  C   UNL     1      -9.486  10.131  63.230  1.00  0.00    -0.257 A  
HETATM   14  H   UNL     1     -10.656  11.672  62.659  1.00  0.00     0.000 HD 
HETATM   15  C   UNL     1     -10.686  11.377  65.066  1.00  0.00    -0.340 C  
HETATM   16  C   UNL     1      -9.427   9.495  66.996  1.00  0.00    -0.197 C  
ENDROOT
BRANCH   3  17
HETATM   17  N   UNL     1     -10.554  13.556  68.981  1.00  0.00    -0.404 N  
HETATM   18  H   UNL     1      -9.655  13.095  69.127  1.00  0.00     0.000 HD 
BRANCH  17  19
HETATM   19  S   UNL     1     -10.792  15.199  69.259  1.00  0.00    -0.268 S  
HETATM   20  O   UNL     1     -10.299  15.577  70.556  1.00  0.00    -0.260 OA 
HETATM   21  O   UNL     1     -12.154  15.458  68.859  1.00  0.00    -0.300 OA 
BRANCH  19  22
HETATM   22  N   UNL     1      -9.738  15.840  68.076  1.00  0.00    -0.211 N  
BRANCH  22  23
HETATM   23  C   UNL     1      -8.601  16.625  68.652  1.00  0.00    -0.253 C  
HETATM   24  C   UNL     1      -8.753  18.132  68.494  1.00  0.00    -0.309 C  
ENDBRANCH  22  23
BRANCH  22  25
HETATM   25  C   UNL     1     -10.453  16.481  66.935  1.00  0.00    -0.282 C  
HETATM   26  C   UNL     1     -10.458  15.629  65.676  1.00  0.00    -0.402 C  
ENDBRANCH  22  25
ENDBRANCH  19  22
ENDBRANCH  17  19
ENDBRANCH   3  17
BRANCH   7  27
HETATM   27  C   UNL     1     -10.830   9.347  69.661  1.00  0.00    -0.228 C  
BRANCH  27  28
HETATM   28  C   UNL     1     -11.377   9.545  71.080  1.00  0.00    -0.440 C  
HETATM   29  C   UNL     1     -10.713   8.598  72.069  1.00  0.00    -0.427 C  
ENDBRANCH  27  28
ENDBRANCH   7  27
TORSDOF 7
ENDMDL
MODEL       28
REMARK 921   NORMALIZED FREE ENERGY PREDICTED BY IDOCK:   -5.62 KCAL/MOL
REMARK 922        TOTAL FREE ENERGY PREDICTED BY IDOCK:   -9.13 KCAL/MOL
REMARK 923 INTER-LIGAND FREE ENERGY PREDICTED BY IDOCK:   -8.42 KCAL/MOL
REMARK 924 INTRA-LIGAND FREE ENERGY PREDICTED BY IDOCK:   -0.71 KCAL/MOL
REMARK 927      BINDING AFFINITY PREDICTED BY RF-SCORE:    0.00 PKD
ROOT
HETATM    1  C   UNL     1     -11.669  11.019  69.681  1.00  0.00    -0.401 C  
HETATM    2  C   UNL     1     -11.917  12.534  69.631  1.00  0.00    -0.339 C  
HETATM    3  C   UNL     1     -11.228  13.178  68.423  1.00  0.00    -0.271 C  
HETATM    4  C   UNL     1     -11.894   8.992  71.215  1.00  0.00    -0.379 A  
HETATM    5  C   UNL     1      -9.739  12.799  68.475  1.00  0.00    -0.126 C  
HETATM    6  C   UNL     1     -11.272   6.295  71.694  1.00  0.00    -0.337 A  
HETATM    7  N   UNL     1      -9.541  11.341  68.401  1.00  0.00    -0.189 NA 
HETATM    8  O   UNL     1     -13.550   8.877  72.923  1.00  0.00    -0.824 OA 
HETATM    9  C   UNL     1     -10.168  10.650  69.550  1.00  0.00    -0.158 C  
HETATM   10  C   UNL     1     -10.572   7.015  70.727  1.00  0.00    -0.240 A  
HETATM   11  C   UNL     1     -12.272   6.917  72.434  1.00  0.00    -0.067 A  
HETATM   12  C   UNL     1     -10.861   8.369  70.493  1.00  0.00    -0.250 A  
HETATM   13  C   UNL     1     -12.575   8.255  72.195  1.00  0.00    -0.337 A  
HETATM   14  H   UNL     1     -13.757   9.790  72.760  1.00  0.00     0.000 HD 
HETATM   15  C   UNL     1     -12.232  10.446  70.992  1.00  0.00    -0.498 C  
HETATM   16  C   UNL     1     -10.082   9.110  69.430  1.00  0.00    -0.198 C  
ENDROOT
BRANCH   3  17
HETATM   17  N   UNL     1     -11.914  12.737  67.152  1.00  0.00    -0.346 N  
HETATM   18  H   UNL     1     -12.324  11.810  67.037  1.00  0.00     0.000 HD 
BRANCH  17  19
HETATM   19  S   UNL     1     -11.945  13.905  65.941  1.00  0.00    -0.432 S  
HETATM   20  O   UNL     1     -11.097  15.017  66.278  1.00  0.00    -0.340 OA 
HETATM   21  O   UNL     1     -13.341  14.083  65.621  1.00  0.00    -0.636 OA 
BRANCH  19  22
HETATM   22  N   UNL     1     -11.199  13.023  64.681  1.00  0.00    -0.311 N  
BRANCH  22  23
HETATM   23  C   UNL     1     -11.976  13.038  63.402  1.00  0.00    -0.520 C  
HETATM   24  C   UNL     1     -12.860  11.814  63.206  1.00  0.00    -0.224 C  
ENDBRANCH  22  23
BRANCH  22  25
HETATM   25  C   UNL     1     -10.693  11.690  65.115  1.00  0.00    -0.296 C  
HETATM   26  C   UNL     1      -9.615  11.130  64.202  1.00  0.00    -0.290 C  
ENDBRANCH  22  25
ENDBRANCH  19  22
ENDBRANCH  17  19
ENDBRANCH   3  17
BRANCH   7  27
HETATM   27  C   UNL     1      -8.131  11.015  68.143  1.00  0.00    -0.122 C  
BRANCH  27  28
HETATM   28  C   UNL     1      -7.451  11.839  67.042  1.00  0.00    -0.137 C  
HETATM   29  C   UNL     1      -6.154  12.463  67.535  1.00  0.00    -0.148 C  
ENDBRANCH  27  28
ENDBRANCH   7  27
TORSDOF 7
ENDMDL
MODEL       29
REMARK 921   NORMALIZED FREE ENERGY PREDICTED BY IDOCK:   -5.59 KCAL/MOL
REMARK 922        TOTAL FREE ENERGY PREDICTED BY IDOCK:   -9.09 KCAL/MOL
REMARK 923 INTER-LIGAND FREE ENERGY PREDICTED BY IDOCK:   -8.22 KCAL/MOL
REMARK 924 INTRA-LIGAND FREE ENERGY PREDICTED BY IDOCK:   -0.87 KCAL/MOL
REMARK 927      BINDING AFFINITY PREDICTED BY RF-SCORE:    0.00 PKD
ROOT
HETATM    1  C   UNL     1     -10.550  11.422  67.490  1.00  0.00    -0.252 C  
HETATM    2  C   UNL     1     -10.569   9.910  67.760  1.00  0.00    -0.313 C  
HETATM    3  C   UNL     1      -9.697   9.542  68.965  1.00  0.00    -0.170 C  
HETATM    4  C   UNL     1     -11.195  13.162  65.738  1.00  0.00    -0.309 A  
HETATM    5  C   UNL     1      -8.288  10.104  68.712  1.00  0.00    -0.122 C  
HETATM    6  C   UNL     1     -11.014  15.823  64.854  1.00  0.00    -0.443 A  
HETATM    7  N   UNL     1      -8.299  11.571  68.576  1.00  0.00    -0.153 NA 
HETATM    8  O   UNL     1     -12.986  12.812  64.207  1.00  0.00    -0.708 OA 
HETATM    9  C   UNL     1      -9.113  12.003  67.418  1.00  0.00    -0.178 C  
HETATM   10  C   UNL     1     -10.139  15.347  65.829  1.00  0.00    -0.391 A  
HETATM   11  C   UNL     1     -11.970  14.974  64.306  1.00  0.00    -0.310 A  
HETATM   12  C   UNL     1     -10.207  14.013  66.264  1.00  0.00    -0.300 A  
HETATM   13  C   UNL     1     -12.054  13.655  64.746  1.00  0.00    -0.402 A  
HETATM   14  H   UNL     1     -13.043  11.912  64.507  1.00  0.00     0.000 HD 
HETATM   15  C   UNL     1     -11.297  11.723  66.180  1.00  0.00    -0.342 C  
HETATM   16  C   UNL     1      -9.243  13.542  67.329  1.00  0.00    -0.233 C  
ENDROOT
BRANCH   3  17
HETATM   17  N   UNL     1     -10.332  10.064  70.231  1.00  0.00    -0.357 N  
HETATM   18  H   UNL     1     -10.255  11.037  70.528  1.00  0.00     0.000 HD 
BRANCH  17  19
HETATM   19  S   UNL     1     -11.176   8.904  71.111  1.00  0.00    -0.310 S  
HETATM   20  O   UNL     1     -10.727   8.870  72.477  1.00  0.00    -0.166 OA 
HETATM   21  O   UNL     1     -11.174   7.723  70.281  1.00  0.00    -0.263 OA 
BRANCH  19  22
HETATM   22  N   UNL     1     -12.735   9.603  71.074  1.00  0.00    -0.299 N  
BRANCH  22  23
HETATM   23  C   UNL     1     -12.723  11.071  70.778  1.00  0.00    -0.323 C  
HETATM   24  C   UNL     1     -13.140  11.938  71.958  1.00  0.00    -0.441 C  
ENDBRANCH  22  23
BRANCH  22  25
HETATM   25  C   UNL     1     -13.597   9.180  72.214  1.00  0.00    -0.489 C  
HETATM   26  C   UNL     1     -14.398   7.920  71.926  1.00  0.00    -0.549 C  
ENDBRANCH  22  25
ENDBRANCH  19  22
ENDBRANCH  17  19
ENDBRANCH   3  17
BRANCH   7  27
HETATM   27  C   UNL     1      -6.935  12.115  68.645  1.00  0.00    -0.097 C  
BRANCH  27  28
HETATM   28  C   UNL     1      -6.188  11.867  69.962  1.00  0.00    -0.123 C  
HETATM   29  C   UNL     1      -5.563  13.146  70.497  1.00  0.00    -0.175 C  
ENDBRANCH  27  28
ENDBRANCH   7  27
TORSDOF 7
ENDMDL
MODEL       30
REMARK 921   NORMALIZED FREE ENERGY PREDICTED BY IDOCK:   -5.55 KCAL/MOL
REMARK 922        TOTAL FREE ENERGY PREDICTED BY IDOCK:   -9.04 KCAL/MOL
REMARK 923 INTER-LIGAND FREE ENERGY PREDICTED BY IDOCK:   -8.14 KCAL/MOL
REMARK 924 INTRA-LIGAND FREE ENERGY PREDICTED BY IDOCK:   -0.89 KCAL/MOL
REMARK 927      BINDING AFFINITY PREDICTED BY RF-SCORE:    0.00 PKD
ROOT
HETATM    1  C   UNL     1     -11.492  13.851  69.036  1.00  0.00    -0.341 C  
HETATM    2  C   UNL     1     -11.768  12.965  67.811  1.00  0.00    -0.412 C  
HETATM    3  C   UNL     1     -10.826  13.302  66.650  1.00  0.00    -0.281 C  
HETATM    4  C   UNL     1     -12.480  14.536  71.287  1.00  0.00    -0.416 A  
HETATM    5  C   UNL     1     -10.956  14.806  66.363  1.00  0.00    -0.331 C  
HETATM    6  C   UNL     1     -12.387  16.277  73.490  1.00  0.00    -0.635 A  
HETATM    7  N   UNL     1     -10.569  15.623  67.526  1.00  0.00    -0.291 NA 
HETATM    8  O   UNL     1     -13.918  13.099  72.527  1.00  0.00    -0.676 OA 
HETATM    9  C   UNL     1     -11.448  15.362  68.688  1.00  0.00    -0.346 C  
HETATM   10  C   UNL     1     -11.699  16.591  72.320  1.00  0.00    -0.348 A  
HETATM   11  C   UNL     1     -13.135  15.106  73.563  1.00  0.00    -0.502 A  
HETATM   12  C   UNL     1     -11.754  15.737  71.205  1.00  0.00    -0.496 A  
HETATM   13  C   UNL     1     -13.180  14.248  72.467  1.00  0.00    -0.490 A  
HETATM   14  H   UNL     1     -13.949  12.514  71.780  1.00  0.00     0.000 HD 
HETATM   15  C   UNL     1     -12.564  13.597  70.109  1.00  0.00    -0.215 C  
HETATM   16  C   UNL     1     -10.985  16.114  69.959  1.00  0.00    -0.364 C  
ENDROOT
BRANCH   3  17
HETATM   17  N   UNL     1      -9.420  12.877  66.996  1.00  0.00    -0.228 N  
HETATM   18  H   UNL     1      -8.684  13.543  67.234  1.00  0.00     0.000 HD 
BRANCH  17  19
HETATM   19  S   UNL     1      -9.169  11.214  66.955  1.00  0.00    -0.165 S  
HETATM   20  O   UNL     1      -9.830  10.622  65.824  1.00  0.00    -0.216 OA 
HETATM   21  O   UNL     1      -9.416  10.760  68.303  1.00  0.00    -0.152 OA 
BRANCH  19  22
HETATM   22  N   UNL     1      -7.484  11.191  66.666  1.00  0.00    -0.144 N  
BRANCH  22  23
HETATM   23  C   UNL     1      -7.038  10.026  65.838  1.00  0.00    -0.114 C  
HETATM   24  C   UNL     1      -5.949   9.187  66.493  1.00  0.00    -0.059 C  
ENDBRANCH  22  23
BRANCH  22  25
HETATM   25  C   UNL     1      -6.673  11.465  67.886  1.00  0.00    -0.064 C  
HETATM   26  C   UNL     1      -5.835  12.728  67.779  1.00  0.00    -0.134 C  
ENDBRANCH  22  25
ENDBRANCH  19  22
ENDBRANCH  17  19
ENDBRANCH   3  17
BRANCH   7  27
HETATM   27  C   UNL     1     -10.402  17.033  67.147  1.00  0.00    -0.305 C  
BRANCH  27  28
HETATM   28  C   UNL     1      -8.980  17.593  67.286  1.00  0.00    -0.242 C  
HETATM   29  C   UNL     1      -7.951  16.477  67.390  1.00  0.00    -0.175 C  
ENDBRANCH  27  28
ENDBRANCH   7  27
TORSDOF 7
ENDMDL
MODEL       31
REMARK 921   NORMALIZED FREE ENERGY PREDICTED BY IDOCK:   -5.53 KCAL/MOL
REMARK 922        TOTAL FREE ENERGY PREDICTED BY IDOCK:   -9.01 KCAL/MOL
REMARK 923 INTER-LIGAND FREE ENERGY PREDICTED BY IDOCK:   -7.79 KCAL/MOL
REMARK 924 INTRA-LIGAND FREE ENERGY PREDICTED BY IDOCK:   -1.22 KCAL/MOL
REMARK 927      BINDING AFFINITY PREDICTED BY RF-SCORE:    0.00 PKD
ROOT
HETATM    1  C   UNL     1      -8.820  15.235  67.632  1.00  0.00    -0.180 C  
HETATM    2  C   UNL     1      -8.337  14.069  68.510  1.00  0.00    -0.143 C  
HETATM    3  C   UNL     1      -8.819  12.720  67.968  1.00  0.00    -0.195 C  
HETATM    4  C   UNL     1      -9.033  17.778  67.603  1.00  0.00    -0.249 A  
HETATM    5  C   UNL     1     -10.348  12.791  67.826  1.00  0.00    -0.221 C  
HETATM    6  C   UNL     1     -10.101  20.057  66.357  1.00  0.00    -0.609 A  
HETATM    7  N   UNL     1     -10.764  13.846  66.884  1.00  0.00    -0.283 NA 
HETATM    8  O   UNL     1      -7.556  19.185  68.832  1.00  0.00    -0.339 OA 
HETATM    9  C   UNL     1     -10.344  15.186  67.351  1.00  0.00    -0.244 C  
HETATM   10  C   UNL     1     -10.603  18.793  66.053  1.00  0.00    -0.442 A  
HETATM   11  C   UNL     1      -9.080  20.193  67.290  1.00  0.00    -0.480 A  
HETATM   12  C   UNL     1     -10.089  17.648  66.685  1.00  0.00    -0.335 A  
HETATM   13  C   UNL     1      -8.555  19.060  67.908  1.00  0.00    -0.301 A  
HETATM   14  H   UNL     1      -7.198  18.412  69.253  1.00  0.00     0.000 HD 
HETATM   15  C   UNL     1      -8.458  16.571  68.303  1.00  0.00    -0.199 C  
HETATM   16  C   UNL     1     -10.658  16.295  66.320  1.00  0.00    -0.256 C  
ENDROOT
BRANCH   3  17
HETATM   17  N   UNL     1      -8.111  12.410  66.671  1.00  0.00    -0.404 N  
HETATM   18  H   UNL     1      -8.077  13.065  65.889  1.00  0.00     0.000 HD 
BRANCH  17  19
HETATM   19  S   UNL     1      -7.384  10.893  66.625  1.00  0.00    -0.144 S  
HETATM   20  O   UNL     1      -7.402  10.275  67.923  1.00  0.00    -0.085 OA 
HETATM   21  O   UNL     1      -6.157  11.083  65.890  1.00  0.00    -0.128 OA 
BRANCH  19  22
HETATM   22  N   UNL     1      -8.504  10.075  65.625  1.00  0.00    -0.142 N  
BRANCH  22  23
HETATM   23  C   UNL     1      -9.359  10.996  64.811  1.00  0.00    -0.209 C  
HETATM   24  C   UNL     1      -9.571  10.530  63.377  1.00  0.00    -0.376 C  
ENDBRANCH  22  23
BRANCH  22  25
HETATM   25  C   UNL     1      -9.224   8.974  66.325  1.00  0.00    -0.206 C  
HETATM   26  C   UNL     1     -10.651   9.337  66.705  1.00  0.00    -0.161 C  
ENDBRANCH  22  25
ENDBRANCH  19  22
ENDBRANCH  17  19
ENDBRANCH   3  17
BRANCH   7  27
HETATM   27  C   UNL     1     -12.182  13.702  66.526  1.00  0.00    -0.404 C  
BRANCH  27  28
HETATM   28  C   UNL     1     -12.466  12.874  65.266  1.00  0.00    -0.552 C  
HETATM   29  C   UNL     1     -11.990  13.589  64.011  1.00  0.00    -0.501 C  
ENDBRANCH  27  28
ENDBRANCH   7  27
TORSDOF 7
ENDMDL
MODEL       32
REMARK 921   NORMALIZED FREE ENERGY PREDICTED BY IDOCK:   -5.47 KCAL/MOL
REMARK 922        TOTAL FREE ENERGY PREDICTED BY IDOCK:   -8.93 KCAL/MOL
REMARK 923 INTER-LIGAND FREE ENERGY PREDICTED BY IDOCK:   -8.03 KCAL/MOL
REMARK 924 INTRA-LIGAND FREE ENERGY PREDICTED BY IDOCK:   -0.89 KCAL/MOL
REMARK 927      BINDING AFFINITY PREDICTED BY RF-SCORE:    0.00 PKD
ROOT
HETATM    1  C   UNL     1     -11.318  11.795  69.486  1.00  0.00    -0.317 C  
HETATM    2  C   UNL     1     -11.200  12.730  68.272  1.00  0.00    -0.308 C  
HETATM    3  C   UNL     1     -11.202  14.203  68.692  1.00  0.00    -0.266 C  
HETATM    4  C   UNL     1     -11.772   9.365  70.119  1.00  0.00    -0.057 A  
HETATM    5  C   UNL     1     -12.463  14.448  69.536  1.00  0.00    -0.125 C  
HETATM    6  C   UNL     1     -12.341   7.505  72.146  1.00  0.00    -0.251 A  
HETATM    7  N   UNL     1     -12.480  13.616  70.753  1.00  0.00    -0.359 NA 
HETATM    8  O   UNL     1     -11.252   7.559  68.656  1.00  0.00    -0.423 OA 
HETATM    9  C   UNL     1     -12.494  12.174  70.423  1.00  0.00    -0.144 C  
HETATM   10  C   UNL     1     -12.485   8.871  72.387  1.00  0.00    -0.405 A  
HETATM   11  C   UNL     1     -11.928   7.061  70.894  1.00  0.00    -0.409 A  
HETATM   12  C   UNL     1     -12.222   9.809  71.374  1.00  0.00    -0.486 A  
HETATM   13  C   UNL     1     -11.650   7.987  69.891  1.00  0.00     0.270 A  
HETATM   14  H   UNL     1     -11.062   8.190  67.972  1.00  0.00     0.000 HD 
HETATM   15  C   UNL     1     -11.482  10.343  69.006  1.00  0.00    -0.258 C  
HETATM   16  C   UNL     1     -12.385  11.280  71.682  1.00  0.00    -0.107 C  
ENDROOT
BRANCH   3  17
HETATM   17  N   UNL     1      -9.921  14.525  69.423  1.00  0.00    -0.423 N  
HETATM   18  H   UNL     1      -9.764  14.278  70.401  1.00  0.00     0.000 HD 
BRANCH  17  19
HETATM   19  S   UNL     1      -8.773  15.326  68.488  1.00  0.00    -0.186 S  
HETATM   20  O   UNL     1      -8.234  14.455  67.479  1.00  0.00    -0.161 OA 
HETATM   21  O   UNL     1      -7.924  16.010  69.435  1.00  0.00    -0.236 OA 
BRANCH  19  22
HETATM   22  N   UNL     1      -9.784  16.474  67.725  1.00  0.00    -0.233 N  
BRANCH  22  23
HETATM   23  C   UNL     1      -9.568  16.568  66.246  1.00  0.00    -0.306 C  
HETATM   24  C   UNL     1     -10.655  15.891  65.423  1.00  0.00    -0.439 C  
ENDBRANCH  22  23
BRANCH  22  25
HETATM   25  C   UNL     1      -9.854  17.773  68.452  1.00  0.00    -0.347 C  
HETATM   26  C   UNL     1     -10.241  18.941  67.559  1.00  0.00    -0.456 C  
ENDBRANCH  22  25
ENDBRANCH  19  22
ENDBRANCH  17  19
ENDBRANCH   3  17
BRANCH   7  27
HETATM   27  C   UNL     1     -13.515  14.075  71.689  1.00  0.00    -0.361 C  
BRANCH  27  28
HETATM   28  C   UNL     1     -13.384  15.529  72.162  1.00  0.00    -0.561 C  
HETATM   29  C   UNL     1     -12.628  15.620  73.479  1.00  0.00    -0.677 C  
ENDBRANCH  27  28
ENDBRANCH   7  27
TORSDOF 7
ENDMDL
MODEL       33
REMARK 921   NORMALIZED FREE ENERGY PREDICTED BY IDOCK:   -5.46 KCAL/MOL
REMARK 922        TOTAL FREE ENERGY PREDICTED BY IDOCK:   -8.91 KCAL/MOL
REMARK 923 INTER-LIGAND FREE ENERGY PREDICTED BY IDOCK:   -7.78 KCAL/MOL
REMARK 924 INTRA-LIGAND FREE ENERGY PREDICTED BY IDOCK:   -1.13 KCAL/MOL
REMARK 927      BINDING AFFINITY PREDICTED BY RF-SCORE:    0.00 PKD
ROOT
HETATM    1  C   UNL     1     -10.502   8.995  68.099  1.00  0.00    -0.257 C  
HETATM    2  C   UNL     1     -11.151  10.235  67.464  1.00  0.00    -0.302 C  
HETATM    3  C   UNL     1     -11.227  11.401  68.455  1.00  0.00    -0.263 C  
HETATM    4  C   UNL     1     -10.139   6.498  67.722  1.00  0.00    -0.176 A  
HETATM    5  C   UNL     1     -11.956  10.900  69.712  1.00  0.00    -0.351 C  
HETATM    6  C   UNL     1      -9.319   4.030  68.786  1.00  0.00    -0.227 A  
HETATM    7  N   UNL     1     -11.238   9.787  70.358  1.00  0.00    -0.278 NA 
HETATM    8  O   UNL     1     -10.051   5.547  65.540  1.00  0.00    -0.375 OA 
HETATM    9  C   UNL     1     -11.139   8.614  69.461  1.00  0.00     0.033 C  
HETATM   10  C   UNL     1      -9.583   5.105  69.632  1.00  0.00    -0.234 A  
HETATM   11  C   UNL     1      -9.477   4.174  67.411  1.00  0.00    -0.223 A  
HETATM   12  C   UNL     1     -10.013   6.338  69.113  1.00  0.00    -0.181 A  
HETATM   13  C   UNL     1      -9.886   5.399  66.889  1.00  0.00    -0.166 A  
HETATM   14  H   UNL     1     -10.330   6.382  65.184  1.00  0.00     0.000 HD 
HETATM   15  C   UNL     1     -10.601   7.806  67.129  1.00  0.00    -0.401 C  
HETATM   16  C   UNL     1     -10.280   7.479  70.069  1.00  0.00    -0.215 C  
ENDROOT
BRANCH   3  17
HETATM   17  N   UNL     1      -9.838  11.921  68.736  1.00  0.00    -0.389 N  
HETATM   18  H   UNL     1      -9.231  11.519  69.450  1.00  0.00     0.000 HD 
BRANCH  17  19
HETATM   19  S   UNL     1      -9.378  13.221  67.771  1.00  0.00    -0.218 S  
HETATM   20  O   UNL     1      -9.045  12.782  66.442  1.00  0.00    -0.192 OA 
HETATM   21  O   UNL     1      -8.450  13.980  68.575  1.00  0.00    -0.160 OA 
BRANCH  19  22
HETATM   22  N   UNL     1     -10.864  14.061  67.703  1.00  0.00    -0.259 N  
BRANCH  22  23
HETATM   23  C   UNL     1     -11.249  14.482  66.319  1.00  0.00    -0.342 C  
HETATM   24  C   UNL     1     -12.537  13.844  65.817  1.00  0.00    -0.533 C  
ENDBRANCH  22  23
BRANCH  22  25
HETATM   25  C   UNL     1     -10.999  15.106  68.757  1.00  0.00    -0.255 C  
HETATM   26  C   UNL     1     -12.024  14.756  69.823  1.00  0.00    -0.368 C  
ENDBRANCH  22  25
ENDBRANCH  19  22
ENDBRANCH  17  19
ENDBRANCH   3  17
BRANCH   7  27
HETATM   27  C   UNL     1     -11.769   9.529  71.703  1.00  0.00    -0.390 C  
BRANCH  27  28
HETATM   28  C   UNL     1     -13.264   9.820  71.893  1.00  0.00    -0.545 C  
HETATM   29  C   UNL     1     -14.093   8.547  71.816  1.00  0.00    -0.515 C  
ENDBRANCH  27  28
ENDBRANCH   7  27
TORSDOF 7
ENDMDL
MODEL       34
REMARK 921   NORMALIZED FREE ENERGY PREDICTED BY IDOCK:   -5.37 KCAL/MOL
REMARK 922        TOTAL FREE ENERGY PREDICTED BY IDOCK:   -8.79 KCAL/MOL
REMARK 923 INTER-LIGAND FREE ENERGY PREDICTED BY IDOCK:   -7.87 KCAL/MOL
REMARK 924 INTRA-LIGAND FREE ENERGY PREDICTED BY IDOCK:   -0.91 KCAL/MOL
REMARK 927      BINDING AFFINITY PREDICTED BY RF-SCORE:    0.00 PKD
ROOT
HETATM    1  C   UNL     1      -9.717  14.896  67.320  1.00  0.00    -0.228 C  
HETATM    2  C   UNL     1      -9.682  13.458  66.781  1.00  0.00    -0.262 C  
HETATM    3  C   UNL     1      -9.151  12.476  67.831  1.00  0.00    -0.199 C  
HETATM    4  C   UNL     1      -9.994  17.320  66.570  1.00  0.00    -0.310 A  
HETATM    5  C   UNL     1      -7.781  12.990  68.303  1.00  0.00    -0.141 C  
HETATM    6  C   UNL     1      -9.801  20.045  67.224  1.00  0.00    -0.563 A  
HETATM    7  N   UNL     1      -7.878  14.325  68.920  1.00  0.00    -0.126 NA 
HETATM    8  O   UNL     1     -11.252  17.909  64.635  1.00  0.00    -0.664 OA 
HETATM    9  C   UNL     1      -8.372  15.333  67.957  1.00  0.00    -0.146 C  
HETATM   10  C   UNL     1      -9.195  19.086  68.033  1.00  0.00    -0.355 A  
HETATM   11  C   UNL     1     -10.491  19.654  66.082  1.00  0.00    -0.624 A  
HETATM   12  C   UNL     1      -9.268  17.722  67.705  1.00  0.00    -0.249 A  
HETATM   13  C   UNL     1     -10.582  18.302  65.760  1.00  0.00    -0.186 A  
HETATM   14  H   UNL     1     -11.314  16.987  64.416  1.00  0.00     0.000 HD 
HETATM   15  C   UNL     1     -10.093  15.864  66.185  1.00  0.00    -0.334 C  
HETATM   16  C   UNL     1      -8.601  16.715  68.615  1.00  0.00    -0.253 C  
ENDROOT
BRANCH   3  17
HETATM   17  N   UNL     1     -10.155  12.336  68.949  1.00  0.00    -0.427 N  
HETATM   18  H   UNL     1     -10.252  13.024  69.696  1.00  0.00     0.000 HD 
BRANCH  17  19
HETATM   19  S   UNL     1     -11.100  10.946  68.861  1.00  0.00    -0.276 S  
HETATM   20  O   UNL     1     -12.108  11.075  67.843  1.00  0.00    -0.600 OA 
HETATM   21  O   UNL     1     -11.435  10.628  70.228  1.00  0.00    -0.295 OA 
BRANCH  19  22
HETATM   22  N   UNL     1      -9.920   9.838  68.311  1.00  0.00    -0.149 N  
BRANCH  22  23
HETATM   23  C   UNL     1     -10.333   9.088  67.083  1.00  0.00    -0.272 C  
HETATM   24  C   UNL     1     -10.471   7.587  67.297  1.00  0.00    -0.391 C  
ENDBRANCH  22  23
BRANCH  22  25
HETATM   25  C   UNL     1      -9.330   9.014  69.404  1.00  0.00    -0.158 C  
HETATM   26  C   UNL     1      -8.019   9.569  69.934  1.00  0.00    -0.154 C  
ENDBRANCH  22  25
ENDBRANCH  19  22
ENDBRANCH  17  19
ENDBRANCH   3  17
BRANCH   7  27
HETATM   27  C   UNL     1      -6.639  14.665  69.633  1.00  0.00    -0.155 C  
BRANCH  27  28
HETATM   28  C   UNL     1      -5.948  13.501  70.355  1.00  0.00    -0.140 C  
HETATM   29  C   UNL     1      -5.296  13.957  71.651  1.00  0.00    -0.215 C  
ENDBRANCH  27  28
ENDBRANCH   7  27
TORSDOF 7
ENDMDL
MODEL       35
REMARK 921   NORMALIZED FREE ENERGY PREDICTED BY IDOCK:   -5.37 KCAL/MOL
REMARK 922        TOTAL FREE ENERGY PREDICTED BY IDOCK:   -8.78 KCAL/MOL
REMARK 923 INTER-LIGAND FREE ENERGY PREDICTED BY IDOCK:   -7.72 KCAL/MOL
REMARK 924 INTRA-LIGAND FREE ENERGY PREDICTED BY IDOCK:   -1.06 KCAL/MOL
REMARK 927      BINDING AFFINITY PREDICTED BY RF-SCORE:    0.00 PKD
ROOT
HETATM    1  C   UNL     1     -11.214  11.232  69.649  1.00  0.00    -0.321 C  
HETATM    2  C   UNL     1     -11.109   9.740  69.297  1.00  0.00    -0.184 C  
HETATM    3  C   UNL     1     -10.110   9.498  68.161  1.00  0.00    -0.182 C  
HETATM    4  C   UNL     1     -12.638  12.896  70.958  1.00  0.00    -0.376 A  
HETATM    5  C   UNL     1     -10.527  10.382  66.975  1.00  0.00    -0.251 C  
HETATM    6  C   UNL     1     -13.247  15.582  71.511  1.00  0.00    -0.589 A  
HETATM    7  N   UNL     1     -10.500  11.814  67.321  1.00  0.00    -0.209 NA 
HETATM    8  O   UNL     1     -13.885  12.254  72.883  1.00  0.00    -0.466 OA 
HETATM    9  C   UNL     1     -11.455  12.127  68.407  1.00  0.00    -0.304 C  
HETATM   10  C   UNL     1     -12.485  15.252  70.391  1.00  0.00    -0.426 A  
HETATM   11  C   UNL     1     -13.720  14.579  72.349  1.00  0.00    -0.583 A  
HETATM   12  C   UNL     1     -12.191  13.911  70.095  1.00  0.00    -0.425 A  
HETATM   13  C   UNL     1     -13.417  13.248  72.069  1.00  0.00    -0.507 A  
HETATM   14  H   UNL     1     -13.679  11.346  72.693  1.00  0.00     0.000 HD 
HETATM   15  C   UNL     1     -12.344  11.444  70.670  1.00  0.00    -0.466 C  
HETATM   16  C   UNL     1     -11.355  13.599  68.873  1.00  0.00    -0.332 C  
ENDROOT
BRANCH   3  17
HETATM   17  N   UNL     1      -8.709   9.772  68.649  1.00  0.00    -0.119 N  
HETATM   18  H   UNL     1      -8.382  10.706  68.899  1.00  0.00     0.000 HD 
BRANCH  17  19
HETATM   19  S   UNL     1      -7.729   8.407  68.746  1.00  0.00    -0.104 S  
HETATM   20  O   UNL     1      -8.523   7.209  68.816  1.00  0.00    -0.125 OA 
HETATM   21  O   UNL     1      -6.738   8.721  69.747  1.00  0.00    -0.044 OA 
BRANCH  19  22
HETATM   22  N   UNL     1      -6.997   8.476  67.204  1.00  0.00    -0.074 N  
BRANCH  22  23
HETATM   23  C   UNL     1      -6.754   9.873  66.721  1.00  0.00    -0.079 C  
HETATM   24  C   UNL     1      -7.220  10.120  65.293  1.00  0.00    -0.141 C  
ENDBRANCH  22  23
BRANCH  22  25
HETATM   25  C   UNL     1      -7.617   7.550  66.214  1.00  0.00    -0.088 C  
HETATM   26  C   UNL     1      -6.689   6.428  65.778  1.00  0.00    -0.048 C  
ENDBRANCH  22  25
ENDBRANCH  19  22
ENDBRANCH  17  19
ENDBRANCH   3  17
BRANCH   7  27
HETATM   27  C   UNL     1     -10.596  12.648  66.115  1.00  0.00    -0.258 C  
BRANCH  27  28
HETATM   28  C   UNL     1     -11.917  12.544  65.341  1.00  0.00    -0.492 C  
HETATM   29  C   UNL     1     -12.677  13.862  65.358  1.00  0.00    -0.525 C  
ENDBRANCH  27  28
ENDBRANCH   7  27
TORSDOF 7
ENDMDL
MODEL       36
REMARK 921   NORMALIZED FREE ENERGY PREDICTED BY IDOCK:   -5.37 KCAL/MOL
REMARK 922        TOTAL FREE ENERGY PREDICTED BY IDOCK:   -8.78 KCAL/MOL
REMARK 923 INTER-LIGAND FREE ENERGY PREDICTED BY IDOCK:   -8.07 KCAL/MOL
REMARK 924 INTRA-LIGAND FREE ENERGY PREDICTED BY IDOCK:   -0.72 KCAL/MOL
REMARK 927      BINDING AFFINITY PREDICTED BY RF-SCORE:    0.00 PKD
ROOT
HETATM    1  C   UNL     1      -9.480  15.063  67.193  1.00  0.00    -0.223 C  
HETATM    2  C   UNL     1      -9.715  13.696  66.533  1.00  0.00    -0.298 C  
HETATM    3  C   UNL     1      -9.108  12.559  67.361  1.00  0.00    -0.185 C  
HETATM    4  C   UNL     1      -9.616  17.570  66.734  1.00  0.00    -0.286 A  
HETATM    5  C   UNL     1      -7.623  12.885  67.586  1.00  0.00    -0.156 C  
HETATM    6  C   UNL     1      -8.988  20.176  67.575  1.00  0.00    -0.442 A  
HETATM    7  N   UNL     1      -7.444  14.147  68.327  1.00  0.00    -0.113 NA 
HETATM    8  O   UNL     1     -11.148  18.485  65.157  1.00  0.00    -0.475 OA 
HETATM    9  C   UNL     1      -7.996  15.298  67.578  1.00  0.00    -0.176 C  
HETATM   10  C   UNL     1      -8.351  19.080  68.154  1.00  0.00    -0.347 A  
HETATM   11  C   UNL     1      -9.927  19.981  66.567  1.00  0.00    -0.603 A  
HETATM   12  C   UNL     1      -8.643  17.774  67.728  1.00  0.00    -0.237 A  
HETATM   13  C   UNL     1     -10.233  18.686  66.152  1.00  0.00    -0.416 A  
HETATM   14  H   UNL     1     -11.357  17.603  64.874  1.00  0.00     0.000 HD 
HETATM   15  C   UNL     1      -9.954  16.181  66.249  1.00  0.00    -0.336 C  
HETATM   16  C   UNL     1      -7.933  16.614  68.389  1.00  0.00    -0.205 C  
ENDROOT
BRANCH   3  17
HETATM   17  N   UNL     1      -9.886  12.392  68.643  1.00  0.00    -0.387 N  
HETATM   18  H   UNL     1      -9.471  12.534  69.565  1.00  0.00     0.000 HD 
BRANCH  17  19
HETATM   19  S   UNL     1     -11.495  11.950  68.424  1.00  0.00    -0.325 S  
HETATM   20  O   UNL     1     -11.652  11.157  67.235  1.00  0.00    -0.514 OA 
HETATM   21  O   UNL     1     -12.252  13.160  68.638  1.00  0.00    -0.252 OA 
BRANCH  19  22
HETATM   22  N   UNL     1     -11.693  10.929  69.781  1.00  0.00    -0.307 N  
BRANCH  22  23
HETATM   23  C   UNL     1     -12.438  11.574  70.909  1.00  0.00    -0.366 C  
HETATM   24  C   UNL     1     -13.141  10.583  71.826  1.00  0.00    -0.570 C  
ENDBRANCH  22  23
BRANCH  22  25
HETATM   25  C   UNL     1     -10.446  10.205  70.160  1.00  0.00    -0.255 C  
HETATM   26  C   UNL     1     -10.557   8.697  70.007  1.00  0.00    -0.233 C  
ENDBRANCH  22  25
ENDBRANCH  19  22
ENDBRANCH  17  19
ENDBRANCH   3  17
BRANCH   7  27
HETATM   27  C   UNL     1      -6.060  14.288  68.799  1.00  0.00    -0.085 C  
BRANCH  27  28
HETATM   28  C   UNL     1      -5.843  14.043  70.298  1.00  0.00    -0.148 C  
HETATM   29  C   UNL     1      -5.217  12.680  70.555  1.00  0.00    -0.127 C  
ENDBRANCH  27  28
ENDBRANCH   7  27
TORSDOF 7
ENDMDL
MODEL       37
REMARK 921   NORMALIZED FREE ENERGY PREDICTED BY IDOCK:   -5.36 KCAL/MOL
REMARK 922        TOTAL FREE ENERGY PREDICTED BY IDOCK:   -8.77 KCAL/MOL
REMARK 923 INTER-LIGAND FREE ENERGY PREDICTED BY IDOCK:   -8.00 KCAL/MOL
REMARK 924 INTRA-LIGAND FREE ENERGY PREDICTED BY IDOCK:   -0.78 KCAL/MOL
REMARK 927      BINDING AFFINITY PREDICTED BY RF-SCORE:    0.00 PKD
ROOT
HETATM    1  C   UNL     1      -9.480  13.025  67.905  1.00  0.00    -0.219 C  
HETATM    2  C   UNL     1      -8.386  13.610  66.998  1.00  0.00    -0.099 C  
HETATM    3  C   UNL     1      -8.880  14.853  66.250  1.00  0.00    -0.073 C  
HETATM    4  C   UNL     1     -10.062  10.954  69.277  1.00  0.00    -0.164 A  
HETATM    5  C   UNL     1     -10.163  14.467  65.496  1.00  0.00    -0.363 C  
HETATM    6  C   UNL     1     -12.011   9.523  70.707  1.00  0.00    -0.326 A  
HETATM    7  N   UNL     1     -11.227  14.023  66.413  1.00  0.00    -0.313 NA 
HETATM    8  O   UNL     1      -8.386   9.558  70.233  1.00  0.00    -0.168 OA 
HETATM    9  C   UNL     1     -10.825  12.812  67.163  1.00  0.00    -0.256 C  
HETATM   10  C   UNL     1     -12.387  10.564  69.860  1.00  0.00    -0.247 A  
HETATM   11  C   UNL     1     -10.669   9.181  70.834  1.00  0.00    -0.343 A  
HETATM   12  C   UNL     1     -11.423  11.273  69.125  1.00  0.00    -0.364 A  
HETATM   13  C   UNL     1      -9.707   9.892  70.121  1.00  0.00    -0.202 A  
HETATM   14  H   UNL     1      -7.730  10.042  69.746  1.00  0.00     0.000 HD 
HETATM   15  C   UNL     1      -8.998  11.692  68.501  1.00  0.00    -0.138 C  
HETATM   16  C   UNL     1     -11.875  12.400  68.223  1.00  0.00    -0.364 C  
ENDROOT
BRANCH   3  17
HETATM   17  N   UNL     1      -9.077  15.988  67.225  1.00  0.00    -0.202 N  
HETATM   18  H   UNL     1      -9.753  15.952  67.988  1.00  0.00     0.000 HD 
BRANCH  17  19
HETATM   19  S   UNL     1      -8.086  17.320  66.945  1.00  0.00    -0.247 S  
HETATM   20  O   UNL     1      -8.552  18.079  65.816  1.00  0.00    -0.490 OA 
HETATM   21  O   UNL     1      -6.738  16.811  67.015  1.00  0.00    -0.167 OA 
BRANCH  19  22
HETATM   22  N   UNL     1      -8.412  18.215  68.365  1.00  0.00    -0.294 N  
BRANCH  22  23
HETATM   23  C   UNL     1      -9.873  18.425  68.615  1.00  0.00    -0.376 C  
HETATM   24  C   UNL     1     -10.386  19.782  68.155  1.00  0.00    -0.561 C  
ENDBRANCH  22  23
BRANCH  22  25
HETATM   25  C   UNL     1      -7.551  19.423  68.510  1.00  0.00    -0.334 C  
HETATM   26  C   UNL     1      -6.527  19.300  69.626  1.00  0.00    -0.307 C  
ENDBRANCH  22  25
ENDBRANCH  19  22
ENDBRANCH  17  19
ENDBRANCH   3  17
BRANCH   7  27
HETATM   27  C   UNL     1     -12.522  13.955  65.723  1.00  0.00    -0.495 C  
BRANCH  27  28
HETATM   28  C   UNL     1     -12.454  13.700  64.211  1.00  0.00    -0.304 C  
HETATM   29  C   UNL     1     -12.528  12.214  63.894  1.00  0.00    -0.581 C  
ENDBRANCH  27  28
ENDBRANCH   7  27
TORSDOF 7
ENDMDL
MODEL       38
REMARK 921   NORMALIZED FREE ENERGY PREDICTED BY IDOCK:   -5.36 KCAL/MOL
REMARK 922        TOTAL FREE ENERGY PREDICTED BY IDOCK:   -8.77 KCAL/MOL
REMARK 923 INTER-LIGAND FREE ENERGY PREDICTED BY IDOCK:   -7.76 KCAL/MOL
REMARK 924 INTRA-LIGAND FREE ENERGY PREDICTED BY IDOCK:   -1.01 KCAL/MOL
REMARK 927      BINDING AFFINITY PREDICTED BY RF-SCORE:    0.00 PKD
ROOT
HETATM    1  C   UNL     1      -9.175  15.320  67.568  1.00  0.00    -0.202 C  
HETATM    2  C   UNL     1      -8.862  14.137  68.497  1.00  0.00    -0.173 C  
HETATM    3  C   UNL     1      -9.226  12.798  67.846  1.00  0.00    -0.205 C  
HETATM    4  C   UNL     1      -9.392  17.862  67.550  1.00  0.00    -0.253 A  
HETATM    5  C   UNL     1     -10.701  12.871  67.417  1.00  0.00    -0.237 C  
HETATM    6  C   UNL     1     -10.215  20.166  66.169  1.00  0.00    -0.518 A  
HETATM    7  N   UNL     1     -10.935  13.944  66.435  1.00  0.00    -0.301 NA 
HETATM    8  O   UNL     1      -8.182  19.245  69.066  1.00  0.00    -0.336 OA 
HETATM    9  C   UNL     1     -10.618  15.275  67.001  1.00  0.00    -0.306 C  
HETATM   10  C   UNL     1     -10.643  18.908  65.750  1.00  0.00    -0.358 A  
HETATM   11  C   UNL     1      -9.390  20.284  67.283  1.00  0.00    -0.538 A  
HETATM   12  C   UNL     1     -10.253  17.751  66.445  1.00  0.00    -0.365 A  
HETATM   13  C   UNL     1      -8.986  19.138  67.966  1.00  0.00    -0.312 A  
HETATM   14  H   UNL     1      -7.907  18.464  69.532  1.00  0.00     0.000 HD 
HETATM   15  C   UNL     1      -8.954  16.642  68.322  1.00  0.00    -0.214 C  
HETATM   16  C   UNL     1     -10.736  16.405  65.951  1.00  0.00    -0.219 C  
ENDROOT
BRANCH   3  17
HETATM   17  N   UNL     1      -8.283  12.516  66.702  1.00  0.00    -0.408 N  
HETATM   18  H   UNL     1      -8.327  13.015  65.813  1.00  0.00     0.000 HD 
BRANCH  17  19
HETATM   19  S   UNL     1      -7.154  11.308  67.016  1.00  0.00    -0.137 S  
HETATM   20  O   UNL     1      -6.193  11.746  67.993  1.00  0.00    -0.049 OA 
HETATM   21  O   UNL     1      -6.751  10.819  65.720  1.00  0.00    -0.118 OA 
BRANCH  19  22
HETATM   22  N   UNL     1      -8.177  10.152  67.750  1.00  0.00    -0.110 N  
BRANCH  22  23
HETATM   23  C   UNL     1      -7.631   9.601  69.031  1.00  0.00    -0.076 C  
HETATM   24  C   UNL     1      -8.642   9.576  70.169  1.00  0.00    -0.250 C  
ENDBRANCH  22  23
BRANCH  22  25
HETATM   25  C   UNL     1      -8.712   9.146  66.789  1.00  0.00    -0.127 C  
HETATM   26  C   UNL     1     -10.229   9.154  66.694  1.00  0.00    -0.328 C  
ENDBRANCH  22  25
ENDBRANCH  19  22
ENDBRANCH  17  19
ENDBRANCH   3  17
BRANCH   7  27
HETATM   27  C   UNL     1     -12.258  13.807  65.811  1.00  0.00    -0.462 C  
BRANCH  27  28
HETATM   28  C   UNL     1     -12.441  12.579  64.909  1.00  0.00    -0.524 C  
HETATM   29  C   UNL     1     -12.115  12.901  63.458  1.00  0.00    -0.633 C  
ENDBRANCH  27  28
ENDBRANCH   7  27
TORSDOF 7
ENDMDL
MODEL       39
REMARK 921   NORMALIZED FREE ENERGY PREDICTED BY IDOCK:   -5.28 KCAL/MOL
REMARK 922        TOTAL FREE ENERGY PREDICTED BY IDOCK:   -8.65 KCAL/MOL
REMARK 923 INTER-LIGAND FREE ENERGY PREDICTED BY IDOCK:   -8.12 KCAL/MOL
REMARK 924 INTRA-LIGAND FREE ENERGY PREDICTED BY IDOCK:   -0.53 KCAL/MOL
REMARK 927      BINDING AFFINITY PREDICTED BY RF-SCORE:    0.00 PKD
ROOT
HETATM    1  C   UNL     1     -11.174  10.390  69.273  1.00  0.00    -0.304 C  
HETATM    2  C   UNL     1     -11.384  11.908  69.156  1.00  0.00    -0.338 C  
HETATM    3  C   UNL     1     -10.653  12.486  67.940  1.00  0.00    -0.218 C  
HETATM    4  C   UNL     1     -11.483   8.434  70.881  1.00  0.00    -0.295 A  
HETATM    5  C   UNL     1      -9.175  12.076  68.044  1.00  0.00    -0.192 C  
HETATM    6  C   UNL     1     -10.937   5.744  71.483  1.00  0.00    -0.304 A  
HETATM    7  N   UNL     1      -9.009  10.611  68.034  1.00  0.00    -0.137 NA 
HETATM    8  O   UNL     1     -13.181   8.426  72.552  1.00  0.00    -0.562 OA 
HETATM    9  C   UNL     1      -9.680   9.982  69.193  1.00  0.00    -0.209 C  
HETATM   10  C   UNL     1     -10.197   6.408  70.505  1.00  0.00    -0.230 A  
HETATM   11  C   UNL     1     -11.938   6.419  72.173  1.00  0.00    -0.346 A  
HETATM   12  C   UNL     1     -10.449   7.758  70.210  1.00  0.00    -0.225 A  
HETATM   13  C   UNL     1     -12.204   7.753  71.873  1.00  0.00    -0.306 A  
HETATM   14  H   UNL     1     -13.362   9.336  72.347  1.00  0.00     0.000 HD 
HETATM   15  C   UNL     1     -11.781   9.885  70.592  1.00  0.00    -0.404 C  
HETATM   16  C   UNL     1      -9.627   8.437  69.137  1.00  0.00    -0.164 C  
ENDROOT
BRANCH   3  17
HETATM   17  N   UNL     1     -11.319  12.010  66.672  1.00  0.00    -0.327 N  
HETATM   18  H   UNL     1     -11.302  11.035  66.371  1.00  0.00     0.000 HD 
BRANCH  17  19
HETATM   19  S   UNL     1     -12.091  13.223  65.798  1.00  0.00    -0.457 S  
HETATM   20  O   UNL     1     -12.510  14.292  66.664  1.00  0.00    -0.407 OA 
HETATM   21  O   UNL     1     -13.021  12.535  64.935  1.00  0.00    -0.821 OA 
BRANCH  19  22
HETATM   22  N   UNL     1     -10.774  13.775  64.860  1.00  0.00    -0.376 N  
BRANCH  22  23
HETATM   23  C   UNL     1      -9.809  12.692  64.491  1.00  0.00    -0.042 C  
HETATM   24  C   UNL     1     -10.178  11.949  63.214  1.00  0.00    -0.428 C  
ENDBRANCH  22  23
BRANCH  22  25
HETATM   25  C   UNL     1     -10.165  15.032  65.382  1.00  0.00    -0.381 C  
HETATM   26  C   UNL     1     -10.847  16.289  64.866  1.00  0.00    -0.315 C  
ENDBRANCH  22  25
ENDBRANCH  19  22
ENDBRANCH  17  19
ENDBRANCH   3  17
BRANCH   7  27
HETATM   27  C   UNL     1      -7.602  10.243  67.823  1.00  0.00    -0.089 C  
BRANCH  27  28
HETATM   28  C   UNL     1      -6.718  11.333  67.204  1.00  0.00    -0.113 C  
HETATM   29  C   UNL     1      -5.825  10.768  66.109  1.00  0.00    -0.133 C  
ENDBRANCH  27  28
ENDBRANCH   7  27
TORSDOF 7
ENDMDL
MODEL       40
REMARK 921   NORMALIZED FREE ENERGY PREDICTED BY IDOCK:   -5.27 KCAL/MOL
REMARK 922        TOTAL FREE ENERGY PREDICTED BY IDOCK:   -8.64 KCAL/MOL
REMARK 923 INTER-LIGAND FREE ENERGY PREDICTED BY IDOCK:   -7.66 KCAL/MOL
REMARK 924 INTRA-LIGAND FREE ENERGY PREDICTED BY IDOCK:   -0.98 KCAL/MOL
REMARK 927      BINDING AFFINITY PREDICTED BY RF-SCORE:    0.00 PKD
ROOT
HETATM    1  C   UNL     1     -10.036   9.630  66.017  1.00  0.00    -0.318 C  
HETATM    2  C   UNL     1      -8.980   8.559  65.702  1.00  0.00    -0.209 C  
HETATM    3  C   UNL     1      -8.773   7.608  66.885  1.00  0.00    -0.129 C  
HETATM    4  C   UNL     1     -10.977  11.842  65.161  1.00  0.00    -0.365 A  
HETATM    5  C   UNL     1      -8.437   8.460  68.119  1.00  0.00    -0.132 C  
HETATM    6  C   UNL     1     -12.597  14.084  65.654  1.00  0.00    -0.542 A  
HETATM    7  N   UNL     1      -9.527   9.392  68.458  1.00  0.00    -0.145 NA 
HETATM    8  O   UNL     1     -10.928  12.428  62.853  1.00  0.00    -0.603 OA 
HETATM    9  C   UNL     1      -9.774  10.356  67.362  1.00  0.00    -0.163 C  
HETATM   10  C   UNL     1     -12.211  13.254  66.704  1.00  0.00    -0.359 A  
HETATM   11  C   UNL     1     -12.167  13.811  64.359  1.00  0.00    -0.440 A  
HETATM   12  C   UNL     1     -11.385  12.141  66.472  1.00  0.00    -0.405 A  
HETATM   13  C   UNL     1     -11.362  12.700  64.121  1.00  0.00    -0.383 A  
HETATM   14  H   UNL     1     -10.379  11.670  62.690  1.00  0.00     0.000 HD 
HETATM   15  C   UNL     1     -10.087  10.657  64.874  1.00  0.00    -0.402 C  
HETATM   16  C   UNL     1     -10.996  11.264  67.641  1.00  0.00    -0.312 C  
ENDROOT
BRANCH   3  17
HETATM   17  N   UNL     1     -10.001   6.749  67.068  1.00  0.00    -0.164 N  
HETATM   18  H   UNL     1     -10.915   7.134  67.307  1.00  0.00     0.000 HD 
BRANCH  17  19
HETATM   19  S   UNL     1      -9.734   5.102  66.843  1.00  0.00    -0.180 S  
HETATM   20  O   UNL     1      -8.344   4.838  66.585  1.00  0.00    -0.107 OA 
HETATM   21  O   UNL     1     -10.771   4.671  65.936  1.00  0.00    -0.307 OA 
BRANCH  19  22
HETATM   22  N   UNL     1     -10.106   4.541  68.414  1.00  0.00    -0.028 N  
BRANCH  22  23
HETATM   23  C   UNL     1     -10.582   5.620  69.336  1.00  0.00    -0.304 C  
HETATM   24  C   UNL     1     -10.357   5.312  70.810  1.00  0.00    -0.309 C  
ENDBRANCH  22  23
BRANCH  22  25
HETATM   25  C   UNL     1      -9.072   3.623  68.971  1.00  0.00    -0.141 C  
HETATM   26  C   UNL     1      -9.295   2.168  68.595  1.00  0.00    -0.235 C  
ENDBRANCH  22  25
ENDBRANCH  19  22
ENDBRANCH  17  19
ENDBRANCH   3  17
BRANCH   7  27
HETATM   27  C   UNL     1      -9.329   9.970  69.794  1.00  0.00    -0.202 C  
BRANCH  27  28
HETATM   28  C   UNL     1      -9.376   8.974  70.960  1.00  0.00    -0.339 C  
HETATM   29  C   UNL     1     -10.731   8.988  71.650  1.00  0.00    -0.441 C  
ENDBRANCH  27  28
ENDBRANCH   7  27
TORSDOF 7
ENDMDL
MODEL       41
REMARK 921   NORMALIZED FREE ENERGY PREDICTED BY IDOCK:   -5.27 KCAL/MOL
REMARK 922        TOTAL FREE ENERGY PREDICTED BY IDOCK:   -8.64 KCAL/MOL
REMARK 923 INTER-LIGAND FREE ENERGY PREDICTED BY IDOCK:   -7.84 KCAL/MOL
REMARK 924 INTRA-LIGAND FREE ENERGY PREDICTED BY IDOCK:   -0.80 KCAL/MOL
REMARK 927      BINDING AFFINITY PREDICTED BY RF-SCORE:    0.00 PKD
ROOT
HETATM    1  C   UNL     1     -10.363  10.216  67.745  1.00  0.00    -0.253 C  
HETATM    2  C   UNL     1     -10.191  10.264  69.271  1.00  0.00    -0.244 C  
HETATM    3  C   UNL     1     -11.372  10.966  69.948  1.00  0.00    -0.305 C  
HETATM    4  C   UNL     1      -9.086   9.724  65.591  1.00  0.00    -0.222 A  
HETATM    5  C   UNL     1     -11.528  12.352  69.302  1.00  0.00    -0.288 C  
HETATM    6  C   UNL     1      -9.027   9.846  62.785  1.00  0.00    -0.272 A  
HETATM    7  N   UNL     1     -11.809  12.257  67.859  1.00  0.00    -0.457 NA 
HETATM    8  O   UNL     1      -7.241   8.219  65.529  1.00  0.00    -0.069 OA 
HETATM    9  C   UNL     1     -10.699  11.600  67.133  1.00  0.00    -0.247 C  
HETATM   10  C   UNL     1      -9.962  10.593  63.499  1.00  0.00    -0.347 A  
HETATM   11  C   UNL     1      -8.111   9.049  63.463  1.00  0.00    -0.164 A  
HETATM   12  C   UNL     1      -9.988  10.555  64.903  1.00  0.00    -0.401 A  
HETATM   13  C   UNL     1      -8.143   8.994  64.854  1.00  0.00    -0.137 A  
HETATM   14  H   UNL     1      -7.263   8.181  66.478  1.00  0.00     0.000 HD 
HETATM   15  C   UNL     1      -9.083   9.659  67.098  1.00  0.00    -0.152 C  
HETATM   16  C   UNL     1     -11.024  11.376  65.637  1.00  0.00    -0.254 C  
ENDROOT
BRANCH   3  17
HETATM   17  N   UNL     1     -12.609  10.108  69.830  1.00  0.00    -0.519 N  
HETATM   18  H   UNL     1     -13.120   9.991  68.955  1.00  0.00     0.000 HD 
BRANCH  17  19
HETATM   19  S   UNL     1     -13.074   9.361  71.265  1.00  0.00    -0.254 S  
HETATM   20  O   UNL     1     -14.334   8.686  71.108  1.00  0.00    -0.277 OA 
HETATM   21  O   UNL     1     -12.866  10.353  72.293  1.00  0.00    -0.334 OA 
BRANCH  19  22
HETATM   22  N   UNL     1     -11.842   8.182  71.380  1.00  0.00    -0.289 N  
BRANCH  22  23
HETATM   23  C   UNL     1     -12.267   6.828  70.900  1.00  0.00    -0.331 C  
HETATM   24  C   UNL     1     -11.107   5.873  70.652  1.00  0.00    -0.335 C  
ENDBRANCH  22  23
BRANCH  22  25
HETATM   25  C   UNL     1     -11.121   8.208  72.684  1.00  0.00    -0.380 C  
HETATM   26  C   UNL     1      -9.624   8.427  72.538  1.00  0.00    -0.358 C  
ENDBRANCH  22  25
ENDBRANCH  19  22
ENDBRANCH  17  19
ENDBRANCH   3  17
BRANCH   7  27
HETATM   27  C   UNL     1     -12.255  13.550  67.324  1.00  0.00    -0.260 C  
BRANCH  27  28
HETATM   28  C   UNL     1     -11.215  14.678  67.363  1.00  0.00    -0.351 C  
HETATM   29  C   UNL     1     -11.607  15.761  68.358  1.00  0.00    -0.343 C  
ENDBRANCH  27  28
ENDBRANCH   7  27
TORSDOF 7
ENDMDL
MODEL       42
REMARK 921   NORMALIZED FREE ENERGY PREDICTED BY IDOCK:   -5.26 KCAL/MOL
REMARK 922        TOTAL FREE ENERGY PREDICTED BY IDOCK:   -8.62 KCAL/MOL
REMARK 923 INTER-LIGAND FREE ENERGY PREDICTED BY IDOCK:   -7.79 KCAL/MOL
REMARK 924 INTRA-LIGAND FREE ENERGY PREDICTED BY IDOCK:   -0.84 KCAL/MOL
REMARK 927      BINDING AFFINITY PREDICTED BY RF-SCORE:    0.00 PKD
ROOT
HETATM    1  C   UNL     1      -9.815  11.892  65.398  1.00  0.00    -0.258 C  
HETATM    2  C   UNL     1     -10.472  13.161  64.834  1.00  0.00    -0.369 C  
HETATM    3  C   UNL     1     -10.982  14.076  65.952  1.00  0.00    -0.286 C  
HETATM    4  C   UNL     1      -8.973   9.584  64.706  1.00  0.00    -0.263 A  
HETATM    5  C   UNL     1     -11.916  13.245  66.848  1.00  0.00    -0.375 C  
HETATM    6  C   UNL     1      -8.064   7.049  65.507  1.00  0.00    -0.132 A  
HETATM    7  N   UNL     1     -11.215  12.104  67.463  1.00  0.00    -0.277 NA 
HETATM    8  O   UNL     1      -8.184   9.133  62.505  1.00  0.00    -0.142 OA 
HETATM    9  C   UNL     1     -10.705  11.165  66.439  1.00  0.00    -0.247 C  
HETATM   10  C   UNL     1      -8.703   7.886  66.421  1.00  0.00    -0.170 A  
HETATM   11  C   UNL     1      -7.890   7.464  64.191  1.00  0.00    -0.120 A  
HETATM   12  C   UNL     1      -9.179   9.148  66.027  1.00  0.00    -0.271 A  
HETATM   13  C   UNL     1      -8.345   8.721  63.798  1.00  0.00    -0.136 A  
HETATM   14  H   UNL     1      -8.494   9.990  62.237  1.00  0.00     0.000 HD 
HETATM   15  C   UNL     1      -9.473  10.932  64.246  1.00  0.00    -0.289 C  
HETATM   16  C   UNL     1      -9.859  10.025  67.053  1.00  0.00    -0.238 C  
ENDROOT
BRANCH   3  17
HETATM   17  N   UNL     1      -9.811  14.670  66.697  1.00  0.00    -0.259 N  
HETATM   18  H   UNL     1      -9.248  14.136  67.360  1.00  0.00     0.000 HD 
BRANCH  17  19
HETATM   19  S   UNL     1      -9.513  16.288  66.340  1.00  0.00    -0.318 S  
HETATM   20  O   UNL     1     -10.500  16.803  65.430  1.00  0.00    -0.592 OA 
HETATM   21  O   UNL     1      -8.101  16.357  66.049  1.00  0.00    -0.257 OA 
BRANCH  19  22
HETATM   22  N   UNL     1      -9.793  16.971  67.881  1.00  0.00    -0.262 N  
BRANCH  22  23
HETATM   23  C   UNL     1     -11.159  16.682  68.423  1.00  0.00    -0.305 C  
HETATM   24  C   UNL     1     -11.149  15.928  69.745  1.00  0.00    -0.324 C  
ENDBRANCH  22  23
BRANCH  22  25
HETATM   25  C   UNL     1      -9.342  18.388  67.988  1.00  0.00    -0.291 C  
HETATM   26  C   UNL     1     -10.487  19.370  68.173  1.00  0.00    -0.476 C  
ENDBRANCH  22  25
ENDBRANCH  19  22
ENDBRANCH  17  19
ENDBRANCH   3  17
BRANCH   7  27
HETATM   27  C   UNL     1     -12.021  11.511  68.539  1.00  0.00    -0.224 C  
BRANCH  27  28
HETATM   28  C   UNL     1     -11.787  12.091  69.939  1.00  0.00    -0.405 C  
HETATM   29  C   UNL     1     -12.483  11.263  71.009  1.00  0.00    -0.503 C  
ENDBRANCH  27  28
ENDBRANCH   7  27
TORSDOF 7
ENDMDL
MODEL       43
REMARK 921   NORMALIZED FREE ENERGY PREDICTED BY IDOCK:   -5.25 KCAL/MOL
REMARK 922        TOTAL FREE ENERGY PREDICTED BY IDOCK:   -8.61 KCAL/MOL
REMARK 923 INTER-LIGAND FREE ENERGY PREDICTED BY IDOCK:   -8.00 KCAL/MOL
REMARK 924 INTRA-LIGAND FREE ENERGY PREDICTED BY IDOCK:   -0.61 KCAL/MOL
REMARK 927      BINDING AFFINITY PREDICTED BY RF-SCORE:    0.00 PKD
ROOT
HETATM    1  C   UNL     1      -8.898  15.576  67.125  1.00  0.00    -0.233 C  
HETATM    2  C   UNL     1      -8.158  14.241  67.304  1.00  0.00    -0.199 C  
HETATM    3  C   UNL     1      -9.129  13.056  67.315  1.00  0.00    -0.209 C  
HETATM    4  C   UNL     1      -8.565  18.100  67.295  1.00  0.00    -0.240 A  
HETATM    5  C   UNL     1     -10.184  13.325  68.401  1.00  0.00    -0.249 C  
HETATM    6  C   UNL     1      -9.738  20.653  67.341  1.00  0.00    -0.552 A  
HETATM    7  N   UNL     1     -10.952  14.553  68.128  1.00  0.00    -0.245 NA 
HETATM    8  O   UNL     1      -6.440  19.121  66.958  1.00  0.00    -0.194 OA 
HETATM    9  C   UNL     1     -10.078  15.747  68.117  1.00  0.00    -0.220 C  
HETATM   10  C   UNL     1     -10.525  19.516  67.520  1.00  0.00    -0.596 A  
HETATM   11  C   UNL     1      -8.366  20.524  67.153  1.00  0.00    -0.348 A  
HETATM   12  C   UNL     1      -9.947  18.236  67.518  1.00  0.00    -0.345 A  
HETATM   13  C   UNL     1      -7.789  19.256  67.134  1.00  0.00    -0.251 A  
HETATM   14  H   UNL     1      -6.046  18.257  66.945  1.00  0.00     0.000 HD 
HETATM   15  C   UNL     1      -7.908  16.742  67.289  1.00  0.00    -0.200 C  
HETATM   16  C   UNL     1     -10.840  17.031  67.709  1.00  0.00    -0.269 C  
ENDROOT
BRANCH   3  17
HETATM   17  N   UNL     1      -9.720  12.870  65.939  1.00  0.00    -0.395 N  
HETATM   18  H   UNL     1      -9.581  13.539  65.181  1.00  0.00     0.000 HD 
BRANCH  17  19
HETATM   19  S   UNL     1     -10.629  11.464  65.760  1.00  0.00    -0.244 S  
HETATM   20  O   UNL     1     -10.504  10.938  64.427  1.00  0.00    -0.355 OA 
HETATM   21  O   UNL     1     -11.915  11.768  66.340  1.00  0.00    -0.515 OA 
BRANCH  19  22
HETATM   22  N   UNL     1      -9.771  10.438  66.825  1.00  0.00    -0.175 N  
BRANCH  22  23
HETATM   23  C   UNL     1      -8.566   9.804  66.202  1.00  0.00    -0.127 C  
HETATM   24  C   UNL     1      -8.707   8.305  65.978  1.00  0.00    -0.181 C  
ENDBRANCH  22  23
BRANCH  22  25
HETATM   25  C   UNL     1     -10.656   9.522  67.600  1.00  0.00    -0.269 C  
HETATM   26  C   UNL     1     -10.567   9.729  69.102  1.00  0.00    -0.237 C  
ENDBRANCH  22  25
ENDBRANCH  19  22
ENDBRANCH  17  19
ENDBRANCH   3  17
BRANCH   7  27
HETATM   27  C   UNL     1     -12.141  14.631  68.988  1.00  0.00    -0.235 C  
BRANCH  27  28
HETATM   28  C   UNL     1     -11.865  14.797  70.488  1.00  0.00    -0.362 C  
HETATM   29  C   UNL     1     -13.017  15.499  71.191  1.00  0.00    -0.560 C  
ENDBRANCH  27  28
ENDBRANCH   7  27
TORSDOF 7
ENDMDL
MODEL       44
REMARK 921   NORMALIZED FREE ENERGY PREDICTED BY IDOCK:   -5.20 KCAL/MOL
REMARK 922        TOTAL FREE ENERGY PREDICTED BY IDOCK:   -8.55 KCAL/MOL
REMARK 923 INTER-LIGAND FREE ENERGY PREDICTED BY IDOCK:   -8.00 KCAL/MOL
REMARK 924 INTRA-LIGAND FREE ENERGY PREDICTED BY IDOCK:   -0.55 KCAL/MOL
REMARK 927      BINDING AFFINITY PREDICTED BY RF-SCORE:    0.00 PKD
ROOT
HETATM    1  C   UNL     1      -9.519  11.714  68.840  1.00  0.00     0.014 C  
HETATM    2  C   UNL     1      -8.385  11.814  67.808  1.00  0.00    -0.146 C  
HETATM    3  C   UNL     1      -8.425  13.148  67.054  1.00  0.00    -0.132 C  
HETATM    4  C   UNL     1     -10.722  10.049  70.353  1.00  0.00    -0.369 A  
HETATM    5  C   UNL     1      -9.827  13.299  66.444  1.00  0.00    -0.281 C  
HETATM    6  C   UNL     1     -12.915   9.514  72.026  1.00  0.00    -0.514 A  
HETATM    7  N   UNL     1     -10.878  13.317  67.477  1.00  0.00    -0.259 NA 
HETATM    8  O   UNL     1      -9.640   8.107  71.208  1.00  0.00    -0.152 OA 
HETATM    9  C   UNL     1     -10.909  12.049  68.240  1.00  0.00    -0.229 C  
HETATM   10  C   UNL     1     -12.937  10.615  71.172  1.00  0.00    -0.483 A  
HETATM   11  C   UNL     1     -11.810   8.669  72.040  1.00  0.00    -0.443 A  
HETATM   12  C   UNL     1     -11.854  10.881  70.317  1.00  0.00    -0.450 A  
HETATM   13  C   UNL     1     -10.727   8.937  71.207  1.00  0.00    -0.287 A  
HETATM   14  H   UNL     1      -8.901   8.289  70.640  1.00  0.00     0.000 HD 
HETATM   15  C   UNL     1      -9.541  10.302  69.447  1.00  0.00    -0.237 C  
HETATM   16  C   UNL     1     -11.918  12.091  69.412  1.00  0.00    -0.334 C  
ENDROOT
BRANCH   3  17
HETATM   17  N   UNL     1      -8.055  14.272  67.990  1.00  0.00    -0.134 N  
HETATM   18  H   UNL     1      -8.032  14.163  69.005  1.00  0.00     0.000 HD 
BRANCH  17  19
HETATM   19  S   UNL     1      -7.684  15.722  67.219  1.00  0.00    -0.220 S  
HETATM   20  O   UNL     1      -8.493  15.899  66.043  1.00  0.00    -0.271 OA 
HETATM   21  O   UNL     1      -6.243  15.763  67.164  1.00  0.00    -0.309 OA 
BRANCH  19  22
HETATM   22  N   UNL     1      -8.222  16.820  68.413  1.00  0.00    -0.215 N  
BRANCH  22  23
HETATM   23  C   UNL     1      -9.482  16.388  69.097  1.00  0.00    -0.236 C  
HETATM   24  C   UNL     1     -10.745  16.993  68.498  1.00  0.00    -0.352 C  
ENDBRANCH  22  23
BRANCH  22  25
HETATM   25  C   UNL     1      -8.185  18.242  67.965  1.00  0.00    -0.264 C  
HETATM   26  C   UNL     1      -7.201  19.093  68.749  1.00  0.00    -0.368 C  
ENDBRANCH  22  25
ENDBRANCH  19  22
ENDBRANCH  17  19
ENDBRANCH   3  17
BRANCH   7  27
HETATM   27  C   UNL     1     -12.159  13.765  66.917  1.00  0.00    -0.413 C  
BRANCH  27  28
HETATM   28  C   UNL     1     -12.190  13.944  65.393  1.00  0.00    -0.463 C  
HETATM   29  C   UNL     1     -12.725  12.701  64.697  1.00  0.00    -0.458 C  
ENDBRANCH  27  28
ENDBRANCH   7  27
TORSDOF 7
ENDMDL
MODEL       45
REMARK 921   NORMALIZED FREE ENERGY PREDICTED BY IDOCK:   -5.18 KCAL/MOL
REMARK 922        TOTAL FREE ENERGY PREDICTED BY IDOCK:   -8.51 KCAL/MOL
REMARK 923 INTER-LIGAND FREE ENERGY PREDICTED BY IDOCK:   -7.63 KCAL/MOL
REMARK 924 INTRA-LIGAND FREE ENERGY PREDICTED BY IDOCK:   -0.88 KCAL/MOL
REMARK 927      BINDING AFFINITY PREDICTED BY RF-SCORE:    0.00 PKD
ROOT
HETATM    1  C   UNL     1     -10.587   9.186  69.420  1.00  0.00    -0.232 C  
HETATM    2  C   UNL     1     -10.814   9.799  68.030  1.00  0.00    -0.276 C  
HETATM    3  C   UNL     1     -10.973  11.321  68.104  1.00  0.00    -0.231 C  
HETATM    4  C   UNL     1     -10.552   6.953  70.655  1.00  0.00    -0.248 A  
HETATM    5  C   UNL     1     -12.102  11.626  69.102  1.00  0.00    -0.251 C  
HETATM    6  C   UNL     1     -10.488   5.601  73.117  1.00  0.00    -0.248 A  
HETATM    7  N   UNL     1     -11.791  11.125  70.453  1.00  0.00    -0.353 NA 
HETATM    8  O   UNL     1     -10.007   4.910  69.558  1.00  0.00    -0.200 OA 
HETATM    9  C   UNL     1     -11.637   9.653  70.462  1.00  0.00    -0.272 C  
HETATM   10  C   UNL     1     -10.799   6.959  73.071  1.00  0.00    -0.328 A  
HETATM   11  C   UNL     1     -10.223   4.910  71.940  1.00  0.00    -0.267 A  
HETATM   12  C   UNL     1     -10.853   7.641  71.844  1.00  0.00    -0.274 A  
HETATM   13  C   UNL     1     -10.259   5.584  70.721  1.00  0.00    -0.235 A  
HETATM   14  H   UNL     1     -10.031   5.370  68.728  1.00  0.00     0.000 HD 
HETATM   15  C   UNL     1     -10.602   7.652  69.318  1.00  0.00    -0.206 C  
HETATM   16  C   UNL     1     -11.187   9.116  71.842  1.00  0.00    -0.400 C  
ENDROOT
BRANCH   3  17
HETATM   17  N   UNL     1      -9.655  11.952  68.479  1.00  0.00    -0.301 N  
HETATM   18  H   UNL     1      -9.111  11.659  69.291  1.00  0.00     0.000 HD 
BRANCH  17  19
HETATM   19  S   UNL     1      -9.157  13.183  67.444  1.00  0.00    -0.219 S  
HETATM   20  O   UNL     1      -9.981  13.228  66.266  1.00  0.00    -0.279 OA 
HETATM   21  O   UNL     1      -7.722  13.053  67.363  1.00  0.00    -0.164 OA 
BRANCH  19  22
HETATM   22  N   UNL     1      -9.534  14.537  68.416  1.00  0.00    -0.204 N  
BRANCH  22  23
HETATM   23  C   UNL     1     -10.590  15.419  67.826  1.00  0.00    -0.274 C  
HETATM   24  C   UNL     1     -11.893  15.429  68.613  1.00  0.00    -0.317 C  
ENDBRANCH  22  23
BRANCH  22  25
HETATM   25  C   UNL     1      -8.329  15.237  68.944  1.00  0.00    -0.196 C  
HETATM   26  C   UNL     1      -8.303  16.721  68.614  1.00  0.00    -0.252 C  
ENDBRANCH  22  25
ENDBRANCH  19  22
ENDBRANCH  17  19
ENDBRANCH   3  17
BRANCH   7  27
HETATM   27  C   UNL     1     -12.717  11.684  71.447  1.00  0.00    -0.339 C  
BRANCH  27  28
HETATM   28  C   UNL     1     -12.802  13.215  71.486  1.00  0.00    -0.401 C  
HETATM   29  C   UNL     1     -13.785  13.691  72.545  1.00  0.00    -0.663 C  
ENDBRANCH  27  28
ENDBRANCH   7  27
TORSDOF 7
ENDMDL
MODEL       46
REMARK 921   NORMALIZED FREE ENERGY PREDICTED BY IDOCK:   -5.18 KCAL/MOL
REMARK 922        TOTAL FREE ENERGY PREDICTED BY IDOCK:   -8.51 KCAL/MOL
REMARK 923 INTER-LIGAND FREE ENERGY PREDICTED BY IDOCK:   -7.37 KCAL/MOL
REMARK 924 INTRA-LIGAND FREE ENERGY PREDICTED BY IDOCK:   -1.14 KCAL/MOL
REMARK 927      BINDING AFFINITY PREDICTED BY RF-SCORE:    0.00 PKD
ROOT
HETATM    1  C   UNL     1      -8.221  15.029  67.024  1.00  0.00    -0.246 C  
HETATM    2  C   UNL     1      -7.324  13.958  67.665  1.00  0.00    -0.186 C  
HETATM    3  C   UNL     1      -7.985  12.576  67.630  1.00  0.00    -0.170 C  
HETATM    4  C   UNL     1      -8.479  17.556  66.784  1.00  0.00    -0.275 A  
HETATM    5  C   UNL     1      -9.367  12.700  68.293  1.00  0.00    -0.195 C  
HETATM    6  C   UNL     1     -10.095  19.714  65.992  1.00  0.00    -0.553 A  
HETATM    7  N   UNL     1     -10.236  13.650  67.577  1.00  0.00    -0.239 NA 
HETATM    8  O   UNL     1      -6.613  19.033  66.878  1.00  0.00    -0.194 OA 
HETATM    9  C   UNL     1      -9.667  15.016  67.583  1.00  0.00    -0.215 C  
HETATM   10  C   UNL     1     -10.650  18.446  66.157  1.00  0.00    -0.346 A  
HETATM   11  C   UNL     1      -8.740  19.915  66.234  1.00  0.00    -0.384 A  
HETATM   12  C   UNL     1      -9.856  17.364  66.572  1.00  0.00    -0.310 A  
HETATM   13  C   UNL     1      -7.944  18.843  66.630  1.00  0.00    -0.270 A  
HETATM   14  H   UNL     1      -6.070  18.302  67.147  1.00  0.00     0.000 HD 
HETATM   15  C   UNL     1      -7.595  16.419  67.233  1.00  0.00    -0.198 C  
HETATM   16  C   UNL     1     -10.499  16.005  66.731  1.00  0.00    -0.308 C  
ENDROOT
BRANCH   3  17
HETATM   17  N   UNL     1      -8.047  12.078  66.206  1.00  0.00    -0.375 N  
HETATM   18  H   UNL     1      -8.297  12.679  65.420  1.00  0.00     0.000 HD 
BRANCH  17  19
HETATM   19  S   UNL     1      -7.670  10.448  66.026  1.00  0.00    -0.139 S  
HETATM   20  O   UNL     1      -7.370   9.847  67.298  1.00  0.00    -0.086 OA 
HETATM   21  O   UNL     1      -6.742  10.394  64.922  1.00  0.00    -0.118 OA 
BRANCH  19  22
HETATM   22  N   UNL     1      -9.188   9.865  65.500  1.00  0.00    -0.186 N  
BRANCH  22  23
HETATM   23  C   UNL     1     -10.073  10.932  64.935  1.00  0.00    -0.312 C  
HETATM   24  C   UNL     1     -10.009  11.044  63.418  1.00  0.00    -0.428 C  
ENDBRANCH  22  23
BRANCH  22  25
HETATM   25  C   UNL     1      -9.833   8.940  66.475  1.00  0.00    -0.274 C  
HETATM   26  C   UNL     1     -10.872   9.620  67.351  1.00  0.00    -0.242 C  
ENDBRANCH  22  25
ENDBRANCH  19  22
ENDBRANCH  17  19
ENDBRANCH   3  17
BRANCH   7  27
HETATM   27  C   UNL     1     -11.630  13.529  68.027  1.00  0.00    -0.337 C  
BRANCH  27  28
HETATM   28  C   UNL     1     -11.825  13.358  69.539  1.00  0.00    -0.391 C  
HETATM   29  C   UNL     1     -12.329  14.640  70.184  1.00  0.00    -0.390 C  
ENDBRANCH  27  28
ENDBRANCH   7  27
TORSDOF 7
ENDMDL
MODEL       47
REMARK 921   NORMALIZED FREE ENERGY PREDICTED BY IDOCK:   -5.17 KCAL/MOL
REMARK 922        TOTAL FREE ENERGY PREDICTED BY IDOCK:   -8.51 KCAL/MOL
REMARK 923 INTER-LIGAND FREE ENERGY PREDICTED BY IDOCK:   -7.56 KCAL/MOL
REMARK 924 INTRA-LIGAND FREE ENERGY PREDICTED BY IDOCK:   -0.95 KCAL/MOL
REMARK 927      BINDING AFFINITY PREDICTED BY RF-SCORE:    0.00 PKD
ROOT
HETATM    1  C   UNL     1     -10.110  15.366  67.409  1.00  0.00    -0.233 C  
HETATM    2  C   UNL     1     -10.353  16.362  68.553  1.00  0.00    -0.270 C  
HETATM    3  C   UNL     1      -9.038  16.808  69.200  1.00  0.00    -0.120 C  
HETATM    4  C   UNL     1     -11.321  13.709  65.892  1.00  0.00    -0.317 A  
HETATM    5  C   UNL     1      -8.277  15.545  69.635  1.00  0.00    -0.117 C  
HETATM    6  C   UNL     1     -11.127  11.619  64.024  1.00  0.00    -0.458 A  
HETATM    7  N   UNL     1      -7.960  14.673  68.490  1.00  0.00    -0.130 NA 
HETATM    8  O   UNL     1     -13.614  13.973  65.307  1.00  0.00    -0.469 OA 
HETATM    9  C   UNL     1      -9.188  14.189  67.822  1.00  0.00    -0.193 C  
HETATM   10  C   UNL     1     -10.019  11.981  64.789  1.00  0.00    -0.241 A  
HETATM   11  C   UNL     1     -12.336  12.285  64.196  1.00  0.00    -0.546 A  
HETATM   12  C   UNL     1     -10.110  13.011  65.740  1.00  0.00    -0.294 A  
HETATM   13  C   UNL     1     -12.428  13.318  65.125  1.00  0.00    -0.470 A  
HETATM   14  H   UNL     1     -13.677  14.677  65.940  1.00  0.00     0.000 HD 
HETATM   15  C   UNL     1     -11.457  14.819  66.905  1.00  0.00    -0.354 C  
HETATM   16  C   UNL     1      -8.881  13.374  66.542  1.00  0.00     0.005 C  
ENDROOT
BRANCH   3  17
HETATM   17  N   UNL     1      -8.263  17.671  68.233  1.00  0.00    -0.267 N  
HETATM   18  H   UNL     1      -7.709  17.285  67.468  1.00  0.00     0.000 HD 
BRANCH  17  19
HETATM   19  S   UNL     1      -8.390  19.323  68.525  1.00  0.00    -0.369 S  
HETATM   20  O   UNL     1      -7.159  19.848  69.053  1.00  0.00    -0.325 OA 
HETATM   21  O   UNL     1      -9.646  19.491  69.217  1.00  0.00    -0.361 OA 
BRANCH  19  22
HETATM   22  N   UNL     1      -8.567  19.879  66.919  1.00  0.00    -0.318 N  
BRANCH  22  23
HETATM   23  C   UNL     1      -9.991  20.125  66.526  1.00  0.00    -0.457 C  
HETATM   24  C   UNL     1     -10.654  18.934  65.846  1.00  0.00    -0.438 C  
ENDBRANCH  22  23
BRANCH  22  25
HETATM   25  C   UNL     1      -7.748  19.113  65.937  1.00  0.00    -0.179 C  
HETATM   26  C   UNL     1      -6.831  19.992  65.103  1.00  0.00    -0.294 C  
ENDBRANCH  22  25
ENDBRANCH  19  22
ENDBRANCH  17  19
ENDBRANCH   3  17
BRANCH   7  27
HETATM   27  C   UNL     1      -6.982  13.644  68.868  1.00  0.00    -0.110 C  
BRANCH  27  28
HETATM   28  C   UNL     1      -6.228  13.897  70.180  1.00  0.00    -0.123 C  
HETATM   29  C   UNL     1      -5.717  12.598  70.787  1.00  0.00    -0.113 C  
ENDBRANCH  27  28
ENDBRANCH   7  27
TORSDOF 7
ENDMDL
MODEL       48
REMARK 921   NORMALIZED FREE ENERGY PREDICTED BY IDOCK:   -5.17 KCAL/MOL
REMARK 922        TOTAL FREE ENERGY PREDICTED BY IDOCK:   -8.50 KCAL/MOL
REMARK 923 INTER-LIGAND FREE ENERGY PREDICTED BY IDOCK:   -7.80 KCAL/MOL
REMARK 924 INTRA-LIGAND FREE ENERGY PREDICTED BY IDOCK:   -0.69 KCAL/MOL
REMARK 927      BINDING AFFINITY PREDICTED BY RF-SCORE:    0.00 PKD
ROOT
HETATM    1  C   UNL     1     -10.454  10.255  67.429  1.00  0.00    -0.303 C  
HETATM    2  C   UNL     1      -9.427   9.441  68.231  1.00  0.00    -0.147 C  
HETATM    3  C   UNL     1      -9.948   9.103  69.632  1.00  0.00    -0.190 C  
HETATM    4  C   UNL     1     -10.696  11.660  65.312  1.00  0.00    -0.346 A  
HETATM    5  C   UNL     1     -10.356  10.420  70.311  1.00  0.00     0.031 C  
HETATM    6  C   UNL     1     -12.264  13.446  63.814  1.00  0.00    -0.482 A  
HETATM    7  N   UNL     1     -11.426  11.111  69.571  1.00  0.00    -0.274 NA 
HETATM    8  O   UNL     1      -9.333  11.302  63.393  1.00  0.00    -0.317 OA 
HETATM    9  C   UNL     1     -10.988  11.485  68.208  1.00  0.00    -0.224 C  
HETATM   10  C   UNL     1     -12.561  13.208  65.155  1.00  0.00    -0.525 A  
HETATM   11  C   UNL     1     -11.181  12.809  63.219  1.00  0.00    -0.160 A  
HETATM   12  C   UNL     1     -11.772  12.333  65.919  1.00  0.00    -0.451 A  
HETATM   13  C   UNL     1     -10.405  11.926  63.967  1.00  0.00    -0.364 A  
HETATM   14  H   UNL     1      -8.803  10.700  63.903  1.00  0.00     0.000 HD 
HETATM   15  C   UNL     1      -9.825  10.715  66.102  1.00  0.00    -0.268 C  
HETATM   16  C   UNL     1     -12.134  12.099  67.368  1.00  0.00     0.036 C  
ENDROOT
BRANCH   3  17
HETATM   17  N   UNL     1     -11.079   8.108  69.527  1.00  0.00    -0.439 N  
HETATM   18  H   UNL     1     -11.968   8.326  69.076  1.00  0.00     0.000 HD 
BRANCH  17  19
HETATM   19  S   UNL     1     -10.749   6.609  70.218  1.00  0.00    -0.267 S  
HETATM   20  O   UNL     1      -9.391   6.549  70.690  1.00  0.00    -0.161 OA 
HETATM   21  O   UNL     1     -11.274   5.639  69.288  1.00  0.00    -0.206 OA 
BRANCH  19  22
HETATM   22  N   UNL     1     -11.785   6.691  71.575  1.00  0.00    -0.305 N  
BRANCH  22  23
HETATM   23  C   UNL     1     -13.238   6.720  71.214  1.00  0.00    -0.041 C  
HETATM   24  C   UNL     1     -14.046   7.744  71.999  1.00  0.00    -0.379 C  
ENDBRANCH  22  23
BRANCH  22  25
HETATM   25  C   UNL     1     -11.352   7.695  72.588  1.00  0.00    -0.370 C  
HETATM   26  C   UNL     1     -10.536   7.091  73.720  1.00  0.00    -0.325 C  
ENDBRANCH  22  25
ENDBRANCH  19  22
ENDBRANCH  17  19
ENDBRANCH   3  17
BRANCH   7  27
HETATM   27  C   UNL     1     -12.012  12.190  70.380  1.00  0.00    -0.272 C  
BRANCH  27  28
HETATM   28  C   UNL     1     -12.925  11.737  71.526  1.00  0.00    -0.446 C  
HETATM   29  C   UNL     1     -13.563  12.924  72.232  1.00  0.00    -0.611 C  
ENDBRANCH  27  28
ENDBRANCH   7  27
TORSDOF 7
ENDMDL
MODEL       49
REMARK 921   NORMALIZED FREE ENERGY PREDICTED BY IDOCK:   -5.17 KCAL/MOL
REMARK 922        TOTAL FREE ENERGY PREDICTED BY IDOCK:   -8.50 KCAL/MOL
REMARK 923 INTER-LIGAND FREE ENERGY PREDICTED BY IDOCK:   -7.62 KCAL/MOL
REMARK 924 INTRA-LIGAND FREE ENERGY PREDICTED BY IDOCK:   -0.88 KCAL/MOL
REMARK 927      BINDING AFFINITY PREDICTED BY RF-SCORE:    0.00 PKD
ROOT
HETATM    1  C   UNL     1     -11.426  10.729  70.291  1.00  0.00    -0.406 C  
HETATM    2  C   UNL     1     -11.527   9.196  70.312  1.00  0.00    -0.174 C  
HETATM    3  C   UNL     1     -10.515   8.552  69.359  1.00  0.00    -0.218 C  
HETATM    4  C   UNL     1     -12.654  12.838  71.039  1.00  0.00    -0.362 A  
HETATM    5  C   UNL     1     -10.730   9.164  67.965  1.00  0.00    -0.147 C  
HETATM    6  C   UNL     1     -12.882  15.634  70.886  1.00  0.00    -0.498 A  
HETATM    7  N   UNL     1     -10.507  10.621  67.964  1.00  0.00    -0.183 NA 
HETATM    8  O   UNL     1     -14.085  12.860  72.942  1.00  0.00    -0.614 OA 
HETATM    9  C   UNL     1     -11.463  11.315  68.856  1.00  0.00    -0.297 C  
HETATM   10  C   UNL     1     -12.119  14.940  69.948  1.00  0.00    -0.379 A  
HETATM   11  C   UNL     1     -13.545  14.939  71.892  1.00  0.00    -0.505 A  
HETATM   12  C   UNL     1     -12.013  13.540  70.003  1.00  0.00    -0.410 A  
HETATM   13  C   UNL     1     -13.430  13.552  71.962  1.00  0.00    -0.494 A  
HETATM   14  H   UNL     1     -14.007  11.914  72.990  1.00  0.00     0.000 HD 
HETATM   15  C   UNL     1     -12.565  11.334  71.129  1.00  0.00    -0.501 C  
HETATM   16  C   UNL     1     -11.169  12.830  68.969  1.00  0.00    -0.317 C  
ENDROOT
BRANCH   3  17
HETATM   17  N   UNL     1      -9.117   8.751  69.891  1.00  0.00    -0.152 N  
HETATM   18  H   UNL     1      -8.707   9.673  70.040  1.00  0.00     0.000 HD 
BRANCH  17  19
HETATM   19  S   UNL     1      -8.291   7.321  70.217  1.00  0.00    -0.137 S  
HETATM   20  O   UNL     1      -7.135   7.571  71.035  1.00  0.00    -0.057 OA 
HETATM   21  O   UNL     1      -8.191   6.643  68.947  1.00  0.00    -0.117 OA 
BRANCH  19  22
HETATM   22  N   UNL     1      -9.465   6.530  71.174  1.00  0.00    -0.167 N  
BRANCH  22  23
HETATM   23  C   UNL     1      -9.324   6.803  72.639  1.00  0.00    -0.139 C  
HETATM   24  C   UNL     1     -10.586   7.358  73.285  1.00  0.00    -0.442 C  
ENDBRANCH  22  23
BRANCH  22  25
HETATM   25  C   UNL     1      -9.665   5.100  70.800  1.00  0.00    -0.190 C  
HETATM   26  C   UNL     1      -8.674   4.161  71.468  1.00  0.00    -0.135 C  
ENDBRANCH  22  25
ENDBRANCH  19  22
ENDBRANCH  17  19
ENDBRANCH   3  17
BRANCH   7  27
HETATM   27  C   UNL     1     -10.412  11.138  66.592  1.00  0.00    -0.250 C  
BRANCH  27  28
HETATM   28  C   UNL     1      -9.008  11.557  66.138  1.00  0.00    -0.201 C  
HETATM   29  C   UNL     1      -7.955  10.556  66.589  1.00  0.00    -0.125 C  
ENDBRANCH  27  28
ENDBRANCH   7  27
TORSDOF 7
ENDMDL
MODEL       50
REMARK 921   NORMALIZED FREE ENERGY PREDICTED BY IDOCK:   -5.17 KCAL/MOL
REMARK 922        TOTAL FREE ENERGY PREDICTED BY IDOCK:   -8.50 KCAL/MOL
REMARK 923 INTER-LIGAND FREE ENERGY PREDICTED BY IDOCK:   -8.30 KCAL/MOL
REMARK 924 INTRA-LIGAND FREE ENERGY PREDICTED BY IDOCK:   -0.20 KCAL/MOL
REMARK 927      BINDING AFFINITY PREDICTED BY RF-SCORE:    0.00 PKD
ROOT
HETATM    1  C   UNL     1      -9.548  12.569  68.079  1.00  0.00    -0.212 C  
HETATM    2  C   UNL     1      -8.437  13.048  67.131  1.00  0.00    -0.176 C  
HETATM    3  C   UNL     1      -8.918  14.193  66.234  1.00  0.00     0.060 C  
HETATM    4  C   UNL     1     -10.154  10.670  69.672  1.00  0.00    -0.120 A  
HETATM    5  C   UNL     1     -10.186  13.717  65.506  1.00  0.00    -0.316 C  
HETATM    6  C   UNL     1     -12.129   9.409  71.223  1.00  0.00    -0.424 A  
HETATM    7  N   UNL     1     -11.267  13.380  66.449  1.00  0.00    -0.299 NA 
HETATM    8  O   UNL     1      -8.495   9.401  70.816  1.00  0.00    -0.200 OA 
HETATM    9  C   UNL     1     -10.878  12.266  67.342  1.00  0.00    -0.239 C  
HETATM   10  C   UNL     1     -12.489  10.343  70.253  1.00  0.00    -0.296 A  
HETATM   11  C   UNL     1     -10.789   9.089  71.414  1.00  0.00    -0.400 A  
HETATM   12  C   UNL     1     -11.512  10.965  69.458  1.00  0.00    -0.372 A  
HETATM   13  C   UNL     1      -9.813   9.715  70.641  1.00  0.00    -0.200 A  
HETATM   14  H   UNL     1      -7.830   9.827  70.289  1.00  0.00     0.000 HD 
HETATM   15  C   UNL     1      -9.076  11.316  68.836  1.00  0.00    -0.064 C  
HETATM   16  C   UNL     1     -11.948  11.977  68.423  1.00  0.00    -0.256 C  
ENDROOT
BRANCH   3  17
HETATM   17  N   UNL     1      -9.135  15.434  67.065  1.00  0.00    -0.214 N  
HETATM   18  H   UNL     1      -9.034  15.445  68.081  1.00  0.00     0.000 HD 
BRANCH  17  19
HETATM   19  S   UNL     1      -9.559  16.798  66.175  1.00  0.00    -0.249 S  
HETATM   20  O   UNL     1     -10.384  16.442  65.052  1.00  0.00    -0.615 OA 
HETATM   21  O   UNL     1      -8.332  17.541  66.013  1.00  0.00    -0.495 OA 
BRANCH  19  22
HETATM   22  N   UNL     1     -10.537  17.594  67.330  1.00  0.00    -0.330 N  
BRANCH  22  23
HETATM   23  C   UNL     1     -10.643  19.070  67.104  1.00  0.00    -0.462 C  
HETATM   24  C   UNL     1     -10.235  19.907  68.309  1.00  0.00    -0.562 C  
ENDBRANCH  22  23
BRANCH  22  25
HETATM   25  C   UNL     1     -10.254  17.173  68.731  1.00  0.00    -0.332 C  
HETATM   26  C   UNL     1     -11.307  16.237  69.301  1.00  0.00    -0.288 C  
ENDBRANCH  22  25
ENDBRANCH  19  22
ENDBRANCH  17  19
ENDBRANCH   3  17
BRANCH   7  27
HETATM   27  C   UNL     1     -12.548  13.228  65.746  1.00  0.00    -0.347 C  
BRANCH  27  28
HETATM   28  C   UNL     1     -12.474  13.276  64.214  1.00  0.00    -0.337 C  
HETATM   29  C   UNL     1     -12.651  11.893  63.605  1.00  0.00    -0.555 C  
ENDBRANCH  27  28
ENDBRANCH   7  27
TORSDOF 7
ENDMDL
MODEL       51
REMARK 921   NORMALIZED FREE ENERGY PREDICTED BY IDOCK:   -5.17 KCAL/MOL
REMARK 922        TOTAL FREE ENERGY PREDICTED BY IDOCK:   -8.50 KCAL/MOL
REMARK 923 INTER-LIGAND FREE ENERGY PREDICTED BY IDOCK:   -7.73 KCAL/MOL
REMARK 924 INTRA-LIGAND FREE ENERGY PREDICTED BY IDOCK:   -0.76 KCAL/MOL
REMARK 927      BINDING AFFINITY PREDICTED BY RF-SCORE:    0.00 PKD
ROOT
HETATM    1  C   UNL     1     -10.364  15.281  68.335  1.00  0.00    -0.227 C  
HETATM    2  C   UNL     1     -10.689  14.214  69.392  1.00  0.00    -0.119 C  
HETATM    3  C   UNL     1     -10.737  12.811  68.779  1.00  0.00    -0.214 C  
HETATM    4  C   UNL     1     -10.355  17.805  67.959  1.00  0.00    -0.395 A  
HETATM    5  C   UNL     1     -11.735  12.843  67.610  1.00  0.00    -0.370 C  
HETATM    6  C   UNL     1     -10.134  19.935  66.141  1.00  0.00    -0.611 A  
HETATM    7  N   UNL     1     -11.324  13.794  66.563  1.00  0.00    -0.316 NA 
HETATM    8  O   UNL     1     -10.063  19.349  69.750  1.00  0.00    -0.404 OA 
HETATM    9  C   UNL     1     -11.270  15.180  67.080  1.00  0.00    -0.308 C  
HETATM   10  C   UNL     1     -10.356  18.639  65.679  1.00  0.00    -0.066 A  
HETATM   11  C   UNL     1     -10.037  20.177  67.507  1.00  0.00    -0.549 A  
HETATM   12  C   UNL     1     -10.487  17.569  66.580  1.00  0.00    -0.270 A  
HETATM   13  C   UNL     1     -10.150  19.118  68.405  1.00  0.00    -0.418 A  
HETATM   14  H   UNL     1     -10.140  18.626  70.362  1.00  0.00     0.000 HD 
HETATM   15  C   UNL     1     -10.493  16.681  68.957  1.00  0.00    -0.328 C  
HETATM   16  C   UNL     1     -10.720  16.178  66.034  1.00  0.00    -0.245 C  
ENDROOT
BRANCH   3  17
HETATM   17  N   UNL     1      -9.347  12.387  68.368  1.00  0.00    -0.314 N  
HETATM   18  H   UNL     1      -8.697  13.012  67.889  1.00  0.00     0.000 HD 
BRANCH  17  19
HETATM   19  S   UNL     1      -8.961  10.798  68.765  1.00  0.00    -0.160 S  
HETATM   20  O   UNL     1     -10.146  10.044  69.073  1.00  0.00    -0.180 OA 
HETATM   21  O   UNL     1      -7.860  10.897  69.693  1.00  0.00    -0.053 OA 
BRANCH  19  22
HETATM   22  N   UNL     1      -8.363  10.268  67.255  1.00  0.00    -0.121 N  
BRANCH  22  23
HETATM   23  C   UNL     1      -6.882  10.432  67.109  1.00  0.00    -0.083 C  
HETATM   24  C   UNL     1      -6.116   9.117  67.103  1.00  0.00    -0.057 C  
ENDBRANCH  22  23
BRANCH  22  25
HETATM   25  C   UNL     1      -9.182  10.735  66.100  1.00  0.00    -0.180 C  
HETATM   26  C   UNL     1      -9.694   9.600  65.228  1.00  0.00    -0.330 C  
ENDBRANCH  22  25
ENDBRANCH  19  22
ENDBRANCH  17  19
ENDBRANCH   3  17
BRANCH   7  27
HETATM   27  C   UNL     1     -12.105  13.593  65.334  1.00  0.00    -0.403 C  
BRANCH  27  28
HETATM   28  C   UNL     1     -11.587  12.499  64.391  1.00  0.00    -0.419 C  
HETATM   29  C   UNL     1     -12.647  12.089  63.380  1.00  0.00    -0.592 C  
ENDBRANCH  27  28
ENDBRANCH   7  27
TORSDOF 7
ENDMDL
MODEL       52
REMARK 921   NORMALIZED FREE ENERGY PREDICTED BY IDOCK:   -5.17 KCAL/MOL
REMARK 922        TOTAL FREE ENERGY PREDICTED BY IDOCK:   -8.50 KCAL/MOL
REMARK 923 INTER-LIGAND FREE ENERGY PREDICTED BY IDOCK:   -7.63 KCAL/MOL
REMARK 924 INTRA-LIGAND FREE ENERGY PREDICTED BY IDOCK:   -0.86 KCAL/MOL
REMARK 927      BINDING AFFINITY PREDICTED BY RF-SCORE:    0.00 PKD
ROOT
HETATM    1  C   UNL     1     -10.527  10.301  68.344  1.00  0.00    -0.228 C  
HETATM    2  C   UNL     1     -10.113  11.780  68.295  1.00  0.00    -0.199 C  
HETATM    3  C   UNL     1     -10.091  12.311  66.858  1.00  0.00    -0.211 C  
HETATM    4  C   UNL     1     -10.596   8.282  69.902  1.00  0.00    -0.232 A  
HETATM    5  C   UNL     1      -9.179  11.389  66.032  1.00  0.00    -0.214 C  
HETATM    6  C   UNL     1     -10.974   5.512  70.186  1.00  0.00    -0.208 A  
HETATM    7  N   UNL     1      -9.676  10.002  66.008  1.00  0.00    -0.222 NA 
HETATM    8  O   UNL     1     -10.780   8.514  72.266  1.00  0.00    -0.323 OA 
HETATM    9  C   UNL     1      -9.712   9.416  67.366  1.00  0.00    -0.159 C  
HETATM   10  C   UNL     1     -10.769   6.066  68.923  1.00  0.00    -0.384 A  
HETATM   11  C   UNL     1     -10.977   6.331  71.311  1.00  0.00    -0.330 A  
HETATM   12  C   UNL     1     -10.559   7.447  68.772  1.00  0.00    -0.189 A  
HETATM   13  C   UNL     1     -10.786   7.703  71.165  1.00  0.00    -0.235 A  
HETATM   14  H   UNL     1     -10.650   9.449  72.167  1.00  0.00     0.000 HD 
HETATM   15  C   UNL     1     -10.372   9.769  69.779  1.00  0.00    -0.274 C  
HETATM   16  C   UNL     1     -10.348   8.005  67.383  1.00  0.00    -0.354 C  
ENDROOT
BRANCH   3  17
HETATM   17  N   UNL     1     -11.500  12.393  66.324  1.00  0.00    -0.351 N  
HETATM   18  H   UNL     1     -12.178  11.639  66.433  1.00  0.00     0.000 HD 
BRANCH  17  19
HETATM   19  S   UNL     1     -11.857  13.835  65.532  1.00  0.00    -0.384 S  
HETATM   20  O   UNL     1     -13.269  14.105  65.569  1.00  0.00    -0.688 OA 
HETATM   21  O   UNL     1     -11.127  13.775  64.288  1.00  0.00    -0.372 OA 
BRANCH  19  22
HETATM   22  N   UNL     1     -11.072  14.933  66.580  1.00  0.00    -0.339 N  
BRANCH  22  23
HETATM   23  C   UNL     1     -11.831  15.198  67.843  1.00  0.00    -0.170 C  
HETATM   24  C   UNL     1     -10.958  15.223  69.090  1.00  0.00    -0.251 C  
ENDBRANCH  22  23
BRANCH  22  25
HETATM   25  C   UNL     1     -10.541  16.138  65.880  1.00  0.00    -0.312 C  
HETATM   26  C   UNL     1      -9.055  16.359  66.111  1.00  0.00    -0.362 C  
ENDBRANCH  22  25
ENDBRANCH  19  22
ENDBRANCH  17  19
ENDBRANCH   3  17
BRANCH   7  27
HETATM   27  C   UNL     1      -8.982   9.213  64.981  1.00  0.00    -0.171 C  
BRANCH  27  28
HETATM   28  C   UNL     1      -8.294  10.023  63.875  1.00  0.00    -0.167 C  
HETATM   29  C   UNL     1      -9.147  10.083  62.617  1.00  0.00    -0.304 C  
ENDBRANCH  27  28
ENDBRANCH   7  27
TORSDOF 7
ENDMDL
MODEL       53
REMARK 921   NORMALIZED FREE ENERGY PREDICTED BY IDOCK:   -5.14 KCAL/MOL
REMARK 922        TOTAL FREE ENERGY PREDICTED BY IDOCK:   -8.46 KCAL/MOL
REMARK 923 INTER-LIGAND FREE ENERGY PREDICTED BY IDOCK:   -7.46 KCAL/MOL
REMARK 924 INTRA-LIGAND FREE ENERGY PREDICTED BY IDOCK:   -1.00 KCAL/MOL
REMARK 927      BINDING AFFINITY PREDICTED BY RF-SCORE:    0.00 PKD
ROOT
HETATM    1  C   UNL     1     -10.318  11.348  67.464  1.00  0.00    -0.224 C  
HETATM    2  C   UNL     1     -10.316   9.845  67.784  1.00  0.00    -0.268 C  
HETATM    3  C   UNL     1      -9.257   9.495  68.835  1.00  0.00    -0.145 C  
HETATM    4  C   UNL     1     -11.224  13.047  65.790  1.00  0.00    -0.316 A  
HETATM    5  C   UNL     1      -7.903  10.017  68.327  1.00  0.00    -0.089 C  
HETATM    6  C   UNL     1     -11.152  15.675  64.799  1.00  0.00    -0.426 A  
HETATM    7  N   UNL     1      -7.912  11.480  68.146  1.00  0.00    -0.128 NA 
HETATM    8  O   UNL     1     -13.256  12.691  64.599  1.00  0.00    -0.828 OA 
HETATM    9  C   UNL     1      -8.906  11.893  67.130  1.00  0.00    -0.180 C  
HETATM   10  C   UNL     1     -10.131  15.210  65.626  1.00  0.00    -0.392 A  
HETATM   11  C   UNL     1     -12.202  14.832  64.451  1.00  0.00    -0.447 A  
HETATM   12  C   UNL     1     -10.147  13.892  66.111  1.00  0.00    -0.317 A  
HETATM   13  C   UNL     1     -12.232  13.529  64.943  1.00  0.00    -0.410 A  
HETATM   14  H   UNL     1     -13.276  11.802  64.935  1.00  0.00     0.000 HD 
HETATM   15  C   UNL     1     -11.273  11.624  66.291  1.00  0.00    -0.332 C  
HETATM   16  C   UNL     1      -9.022  13.432  67.012  1.00  0.00    -0.228 C  
ENDROOT
BRANCH   3  17
HETATM   17  N   UNL     1      -9.657  10.068  70.172  1.00  0.00    -0.398 N  
HETATM   18  H   UNL     1      -9.866  11.058  70.310  1.00  0.00     0.000 HD 
BRANCH  17  19
HETATM   19  S   UNL     1      -9.729   8.938  71.417  1.00  0.00    -0.303 S  
HETATM   20  O   UNL     1     -11.032   8.926  72.025  1.00  0.00    -0.352 OA 
HETATM   21  O   UNL     1      -8.531   9.152  72.192  1.00  0.00    -0.301 OA 
BRANCH  19  22
HETATM   22  N   UNL     1      -9.547   7.504  70.505  1.00  0.00    -0.168 N  
BRANCH  22  23
HETATM   23  C   UNL     1     -10.803   6.694  70.411  1.00  0.00    -0.266 C  
HETATM   24  C   UNL     1     -11.150   6.261  68.993  1.00  0.00    -0.446 C  
ENDBRANCH  22  23
BRANCH  22  25
HETATM   25  C   UNL     1      -8.312   6.742  70.845  1.00  0.00    -0.128 C  
HETATM   26  C   UNL     1      -7.470   6.391  69.629  1.00  0.00    -0.085 C  
ENDBRANCH  22  25
ENDBRANCH  19  22
ENDBRANCH  17  19
ENDBRANCH   3  17
BRANCH   7  27
HETATM   27  C   UNL     1      -6.548  11.995  67.963  1.00  0.00    -0.069 C  
BRANCH  27  28
HETATM   28  C   UNL     1      -5.856  12.504  69.234  1.00  0.00    -0.086 C  
HETATM   29  C   UNL     1      -6.346  13.893  69.615  1.00  0.00    -0.123 C  
ENDBRANCH  27  28
ENDBRANCH   7  27
TORSDOF 7
ENDMDL
MODEL       54
REMARK 921   NORMALIZED FREE ENERGY PREDICTED BY IDOCK:   -5.12 KCAL/MOL
REMARK 922        TOTAL FREE ENERGY PREDICTED BY IDOCK:   -8.44 KCAL/MOL
REMARK 923 INTER-LIGAND FREE ENERGY PREDICTED BY IDOCK:   -7.43 KCAL/MOL
REMARK 924 INTRA-LIGAND FREE ENERGY PREDICTED BY IDOCK:   -1.01 KCAL/MOL
REMARK 927      BINDING AFFINITY PREDICTED BY RF-SCORE:    0.00 PKD
ROOT
HETATM    1  C   UNL     1     -10.822  12.051  68.856  1.00  0.00    -0.252 C  
HETATM    2  C   UNL     1     -11.558  10.789  69.331  1.00  0.00    -0.380 C  
HETATM    3  C   UNL     1     -10.821   9.514  68.907  1.00  0.00    -0.150 C  
HETATM    4  C   UNL     1     -11.119  14.570  68.579  1.00  0.00    -0.271 A  
HETATM    5  C   UNL     1     -10.621   9.573  67.384  1.00  0.00    -0.271 C  
HETATM    6  C   UNL     1     -10.138  16.974  67.506  1.00  0.00    -0.294 A  
HETATM    7  N   UNL     1      -9.809  10.735  66.981  1.00  0.00    -0.183 NA 
HETATM    8  O   UNL     1     -12.589  15.830  69.966  1.00  0.00    -0.501 OA 
HETATM    9  C   UNL     1     -10.468  12.009  67.347  1.00  0.00    -0.216 C  
HETATM   10  C   UNL     1      -9.647  15.751  67.051  1.00  0.00    -0.236 A  
HETATM   11  C   UNL     1     -11.127  17.005  68.483  1.00  0.00    -0.156 A  
HETATM   12  C   UNL     1     -10.145  14.543  67.566  1.00  0.00    -0.228 A  
HETATM   13  C   UNL     1     -11.612  15.810  69.010  1.00  0.00    -0.400 A  
HETATM   14  H   UNL     1     -12.920  15.016  70.325  1.00  0.00     0.000 HD 
HETATM   15  C   UNL     1     -11.679  13.292  69.154  1.00  0.00    -0.379 C  
HETATM   16  C   UNL     1      -9.579  13.240  67.048  1.00  0.00    -0.243 C  
ENDROOT
BRANCH   3  17
HETATM   17  N   UNL     1      -9.529   9.394  69.677  1.00  0.00    -0.177 N  
HETATM   18  H   UNL     1      -8.681   9.900  69.418  1.00  0.00     0.000 HD 
BRANCH  17  19
HETATM   19  S   UNL     1      -9.604   8.354  70.998  1.00  0.00    -0.181 S  
HETATM   20  O   UNL     1     -10.124   9.031  72.155  1.00  0.00    -0.296 OA 
HETATM   21  O   UNL     1      -8.329   7.678  71.022  1.00  0.00    -0.109 OA 
BRANCH  19  22
HETATM   22  N   UNL     1     -10.794   7.266  70.432  1.00  0.00    -0.240 N  
BRANCH  22  23
HETATM   23  C   UNL     1     -11.815   6.907  71.468  1.00  0.00    -0.324 C  
HETATM   24  C   UNL     1     -13.122   7.676  71.334  1.00  0.00    -0.339 C  
ENDBRANCH  22  23
BRANCH  22  25
HETATM   25  C   UNL     1     -10.229   6.124  69.659  1.00  0.00    -0.201 C  
HETATM   26  C   UNL     1     -10.795   6.011  68.253  1.00  0.00    -0.366 C  
ENDBRANCH  22  25
ENDBRANCH  19  22
ENDBRANCH  17  19
ENDBRANCH   3  17
BRANCH   7  27
HETATM   27  C   UNL     1      -9.371  10.612  65.584  1.00  0.00    -0.201 C  
BRANCH  27  28
HETATM   28  C   UNL     1     -10.475  10.754  64.529  1.00  0.00    -0.351 C  
HETATM   29  C   UNL     1     -10.172  11.882  63.554  1.00  0.00    -0.485 C  
ENDBRANCH  27  28
ENDBRANCH   7  27
TORSDOF 7
ENDMDL
MODEL       55
REMARK 921   NORMALIZED FREE ENERGY PREDICTED BY IDOCK:   -5.08 KCAL/MOL
REMARK 922        TOTAL FREE ENERGY PREDICTED BY IDOCK:   -8.37 KCAL/MOL
REMARK 923 INTER-LIGAND FREE ENERGY PREDICTED BY IDOCK:   -7.23 KCAL/MOL
REMARK 924 INTRA-LIGAND FREE ENERGY PREDICTED BY IDOCK:   -1.15 KCAL/MOL
REMARK 927      BINDING AFFINITY PREDICTED BY RF-SCORE:    0.00 PKD
ROOT
HETATM    1  C   UNL     1     -10.206  10.398  67.693  1.00  0.00    -0.240 C  
HETATM    2  C   UNL     1     -11.276  11.450  67.362  1.00  0.00    -0.370 C  
HETATM    3  C   UNL     1     -11.661  12.270  68.597  1.00  0.00    -0.328 C  
HETATM    4  C   UNL     1      -9.062   8.323  66.746  1.00  0.00    -0.190 A  
HETATM    5  C   UNL     1     -12.086  11.286  69.699  1.00  0.00    -0.322 C  
HETATM    6  C   UNL     1      -7.391   6.113  67.208  1.00  0.00    -0.077 A  
HETATM    7  N   UNL     1     -10.993  10.371  70.071  1.00  0.00    -0.295 NA 
HETATM    8  O   UNL     1      -8.826   7.967  64.403  1.00  0.00    -0.370 OA 
HETATM    9  C   UNL     1     -10.576   9.532  68.925  1.00  0.00    -0.216 C  
HETATM   10  C   UNL     1      -7.933   6.818  68.281  1.00  0.00    -0.111 A  
HETATM   11  C   UNL     1      -7.690   6.494  65.904  1.00  0.00    -0.090 A  
HETATM   12  C   UNL     1      -8.786   7.912  68.062  1.00  0.00    -0.124 A  
HETATM   13  C   UNL     1      -8.521   7.590  65.681  1.00  0.00    -0.132 A  
HETATM   14  H   UNL     1      -9.393   8.714  64.250  1.00  0.00     0.000 HD 
HETATM   15  C   UNL     1      -9.976   9.492  66.472  1.00  0.00    -0.329 C  
HETATM   16  C   UNL     1      -9.346   8.652  69.256  1.00  0.00    -0.153 C  
ENDROOT
BRANCH   3  17
HETATM   17  N   UNL     1     -10.508  13.157  68.999  1.00  0.00    -0.432 N  
HETATM   18  H   UNL     1      -9.622  12.789  69.348  1.00  0.00     0.000 HD 
BRANCH  17  19
HETATM   19  S   UNL     1     -10.806  14.804  68.821  1.00  0.00    -0.265 S  
HETATM   20  O   UNL     1     -10.045  15.568  69.773  1.00  0.00    -0.270 OA 
HETATM   21  O   UNL     1     -12.241  14.921  68.726  1.00  0.00    -0.209 OA 
BRANCH  19  22
HETATM   22  N   UNL     1     -10.128  15.047  67.272  1.00  0.00    -0.235 N  
BRANCH  22  23
HETATM   23  C   UNL     1     -11.138  15.009  66.167  1.00  0.00    -0.329 C  
HETATM   24  C   UNL     1     -10.665  14.263  64.927  1.00  0.00    -0.448 C  
ENDBRANCH  22  23
BRANCH  22  25
HETATM   25  C   UNL     1      -8.888  14.253  67.040  1.00  0.00    -0.226 C  
HETATM   26  C   UNL     1      -7.614  15.048  67.276  1.00  0.00    -0.227 C  
ENDBRANCH  22  25
ENDBRANCH  19  22
ENDBRANCH  17  19
ENDBRANCH   3  17
BRANCH   7  27
HETATM   27  C   UNL     1     -11.305   9.656  71.315  1.00  0.00    -0.388 C  
BRANCH  27  28
HETATM   28  C   UNL     1     -12.524   8.726  71.257  1.00  0.00    -0.301 C  
HETATM   29  C   UNL     1     -13.557   9.096  72.311  1.00  0.00    -0.548 C  
ENDBRANCH  27  28
ENDBRANCH   7  27
TORSDOF 7
ENDMDL
MODEL       56
REMARK 921   NORMALIZED FREE ENERGY PREDICTED BY IDOCK:   -5.07 KCAL/MOL
REMARK 922        TOTAL FREE ENERGY PREDICTED BY IDOCK:   -8.36 KCAL/MOL
REMARK 923 INTER-LIGAND FREE ENERGY PREDICTED BY IDOCK:   -7.73 KCAL/MOL
REMARK 924 INTRA-LIGAND FREE ENERGY PREDICTED BY IDOCK:   -0.62 KCAL/MOL
REMARK 927      BINDING AFFINITY PREDICTED BY RF-SCORE:    0.00 PKD
ROOT
HETATM    1  C   UNL     1      -9.176  15.309  67.367  1.00  0.00    -0.201 C  
HETATM    2  C   UNL     1      -8.997  13.905  66.769  1.00  0.00    -0.206 C  
HETATM    3  C   UNL     1      -8.338  12.948  67.768  1.00  0.00    -0.178 C  
HETATM    4  C   UNL     1      -9.734  17.715  66.722  1.00  0.00    -0.300 A  
HETATM    5  C   UNL     1      -7.022  13.591  68.236  1.00  0.00    -0.108 C  
HETATM    6  C   UNL     1      -9.825  20.417  67.484  1.00  0.00    -0.564 A  
HETATM    7  N   UNL     1      -7.250  14.882  68.909  1.00  0.00    -0.119 NA 
HETATM    8  O   UNL     1     -11.092  18.237  64.836  1.00  0.00    -0.615 OA 
HETATM    9  C   UNL     1      -7.873  15.867  67.997  1.00  0.00    -0.136 C  
HETATM   10  C   UNL     1      -9.099  19.500  68.242  1.00  0.00    -0.398 A  
HETATM   11  C   UNL     1     -10.494  19.998  66.339  1.00  0.00    -0.534 A  
HETATM   12  C   UNL     1      -9.030  18.150  67.859  1.00  0.00    -0.273 A  
HETATM   13  C   UNL     1     -10.443  18.657  65.964  1.00  0.00    -0.414 A  
HETATM   14  H   UNL     1     -11.057  17.322  64.581  1.00  0.00     0.000 HD 
HETATM   15  C   UNL     1      -9.681  16.273  66.280  1.00  0.00    -0.329 C  
HETATM   16  C   UNL     1      -8.237  17.188  68.715  1.00  0.00    -0.238 C  
ENDROOT
BRANCH   3  17
HETATM   17  N   UNL     1      -9.295  12.655  68.898  1.00  0.00    -0.382 N  
HETATM   18  H   UNL     1      -9.277  13.159  69.784  1.00  0.00     0.000 HD 
BRANCH  17  19
HETATM   19  S   UNL     1     -10.395  11.424  68.571  1.00  0.00    -0.211 S  
HETATM   20  O   UNL     1     -10.777  10.742  69.778  1.00  0.00    -0.245 OA 
HETATM   21  O   UNL     1      -9.846  10.715  67.439  1.00  0.00    -0.165 OA 
BRANCH  19  22
HETATM   22  N   UNL     1     -11.721  12.365  68.042  1.00  0.00    -0.348 N  
BRANCH  22  23
HETATM   23  C   UNL     1     -11.867  12.404  66.552  1.00  0.00    -0.339 C  
HETATM   24  C   UNL     1     -12.581  13.647  66.038  1.00  0.00    -0.441 C  
ENDBRANCH  22  23
BRANCH  22  25
HETATM   25  C   UNL     1     -11.824  13.680  68.737  1.00  0.00    -0.360 C  
HETATM   26  C   UNL     1     -12.620  13.615  70.029  1.00  0.00    -0.170 C  
ENDBRANCH  22  25
ENDBRANCH  19  22
ENDBRANCH  17  19
ENDBRANCH   3  17
BRANCH   7  27
HETATM   27  C   UNL     1      -6.040  15.329  69.613  1.00  0.00    -0.137 C  
BRANCH  27  28
HETATM   28  C   UNL     1      -5.215  14.221  70.281  1.00  0.00    -0.098 C  
HETATM   29  C   UNL     1      -5.480  14.155  71.777  1.00  0.00    -0.223 C  
ENDBRANCH  27  28
ENDBRANCH   7  27
TORSDOF 7
ENDMDL
MODEL       57
REMARK 921   NORMALIZED FREE ENERGY PREDICTED BY IDOCK:   -5.07 KCAL/MOL
REMARK 922        TOTAL FREE ENERGY PREDICTED BY IDOCK:   -8.35 KCAL/MOL
REMARK 923 INTER-LIGAND FREE ENERGY PREDICTED BY IDOCK:   -7.41 KCAL/MOL
REMARK 924 INTRA-LIGAND FREE ENERGY PREDICTED BY IDOCK:   -0.94 KCAL/MOL
REMARK 927      BINDING AFFINITY PREDICTED BY RF-SCORE:    0.00 PKD
ROOT
HETATM    1  C   UNL     1      -9.845  10.070  69.340  1.00  0.00    -0.240 C  
HETATM    2  C   UNL     1      -8.933   9.268  70.281  1.00  0.00    -0.261 C  
HETATM    3  C   UNL     1      -9.727   8.241  71.095  1.00  0.00    -0.165 C  
HETATM    4  C   UNL     1      -9.879  12.144  67.854  1.00  0.00    -0.199 A  
HETATM    5  C   UNL     1     -10.855   8.991  71.823  1.00  0.00    -0.367 C  
HETATM    6  C   UNL     1     -11.400  13.958  66.340  1.00  0.00    -0.335 A  
HETATM    7  N   UNL     1     -11.776   9.649  70.879  1.00  0.00    -0.310 NA 
HETATM    8  O   UNL     1      -7.905  12.997  66.828  1.00  0.00    -0.398 OA 
HETATM    9  C   UNL     1     -11.079  10.669  70.064  1.00  0.00    -0.289 C  
HETATM   10  C   UNL     1     -12.026  13.099  67.243  1.00  0.00    -0.389 A  
HETATM   11  C   UNL     1     -10.016  13.927  66.199  1.00  0.00    -0.322 A  
HETATM   12  C   UNL     1     -11.273  12.202  68.019  1.00  0.00    -0.319 A  
HETATM   13  C   UNL     1      -9.266  13.028  66.954  1.00  0.00    -0.236 A  
HETATM   14  H   UNL     1      -7.394  12.384  67.342  1.00  0.00     0.000 HD 
HETATM   15  C   UNL     1      -9.037  11.196  68.673  1.00  0.00    -0.166 C  
HETATM   16  C   UNL     1     -11.995  11.285  68.980  1.00  0.00    -0.393 C  
ENDROOT
BRANCH   3  17
HETATM   17  N   UNL     1     -10.227   7.147  70.184  1.00  0.00    -0.192 N  
HETATM   18  H   UNL     1     -11.050   7.253  69.590  1.00  0.00     0.000 HD 
BRANCH  17  19
HETATM   19  S   UNL     1      -9.312   5.735  70.232  1.00  0.00    -0.159 S  
HETATM   20  O   UNL     1      -8.003   5.953  69.676  1.00  0.00    -0.098 OA 
HETATM   21  O   UNL     1     -10.186   4.700  69.735  1.00  0.00    -0.234 OA 
BRANCH  19  22
HETATM   22  N   UNL     1      -9.155   5.559  71.924  1.00  0.00    -0.138 N  
BRANCH  22  23
HETATM   23  C   UNL     1      -7.743   5.342  72.373  1.00  0.00    -0.102 C  
HETATM   24  C   UNL     1      -7.571   4.157  73.314  1.00  0.00    -0.080 C  
ENDBRANCH  22  23
BRANCH  22  25
HETATM   25  C   UNL     1     -10.169   4.641  72.518  1.00  0.00    -0.185 C  
HETATM   26  C   UNL     1     -11.412   5.360  73.014  1.00  0.00    -0.324 C  
ENDBRANCH  22  25
ENDBRANCH  19  22
ENDBRANCH  17  19
ENDBRANCH   3  17
BRANCH   7  27
HETATM   27  C   UNL     1     -13.000  10.092  71.560  1.00  0.00    -0.444 C  
BRANCH  27  28
HETATM   28  C   UNL     1     -13.732   9.017  72.373  1.00  0.00    -0.539 C  
HETATM   29  C   UNL     1     -14.227   7.887  71.483  1.00  0.00    -0.527 C  
ENDBRANCH  27  28
ENDBRANCH   7  27
TORSDOF 7
ENDMDL
MODEL       58
REMARK 921   NORMALIZED FREE ENERGY PREDICTED BY IDOCK:   -5.04 KCAL/MOL
REMARK 922        TOTAL FREE ENERGY PREDICTED BY IDOCK:   -8.32 KCAL/MOL
REMARK 923 INTER-LIGAND FREE ENERGY PREDICTED BY IDOCK:   -7.43 KCAL/MOL
REMARK 924 INTRA-LIGAND FREE ENERGY PREDICTED BY IDOCK:   -0.89 KCAL/MOL
REMARK 927      BINDING AFFINITY PREDICTED BY RF-SCORE:    0.00 PKD
ROOT
HETATM    1  C   UNL     1     -10.084  11.302  69.323  1.00  0.00    -0.018 C  
HETATM    2  C   UNL     1      -9.184  11.539  68.101  1.00  0.00    -0.181 C  
HETATM    3  C   UNL     1      -8.923  13.032  67.874  1.00  0.00    -0.200 C  
HETATM    4  C   UNL     1     -11.470   9.500  70.483  1.00  0.00    -0.337 A  
HETATM    5  C   UNL     1     -10.286  13.736  67.781  1.00  0.00    -0.241 C  
HETATM    6  C   UNL     1     -13.379   8.867  72.444  1.00  0.00    -0.488 A  
HETATM    7  N   UNL     1     -11.070  13.584  69.020  1.00  0.00    -0.257 NA 
HETATM    8  O   UNL     1     -10.943   7.185  70.298  1.00  0.00    -0.248 OA 
HETATM    9  C   UNL     1     -11.374  12.162  69.296  1.00  0.00    -0.266 C  
HETATM   10  C   UNL     1     -13.196  10.190  72.045  1.00  0.00    -0.534 A  
HETATM   11  C   UNL     1     -12.626   7.855  71.859  1.00  0.00    -0.348 A  
HETATM   12  C   UNL     1     -12.258  10.516  71.052  1.00  0.00    -0.505 A  
HETATM   13  C   UNL     1     -11.682   8.174  70.884  1.00  0.00    -0.244 A  
HETATM   14  H   UNL     1     -10.299   7.402  69.634  1.00  0.00     0.000 HD 
HETATM   15  C   UNL     1     -10.454   9.812  69.411  1.00  0.00    -0.241 C  
HETATM   16  C   UNL     1     -12.087  11.965  70.656  1.00  0.00    -0.389 C  
ENDROOT
BRANCH   3  17
HETATM   17  N   UNL     1      -8.046  13.568  68.980  1.00  0.00    -0.335 N  
HETATM   18  H   UNL     1      -8.354  13.627  69.951  1.00  0.00     0.000 HD 
BRANCH  17  19
HETATM   19  S   UNL     1      -6.519  14.062  68.474  1.00  0.00    -0.104 S  
HETATM   20  O   UNL     1      -6.190  13.487  67.197  1.00  0.00    -0.244 OA 
HETATM   21  O   UNL     1      -5.666  13.894  69.626  1.00  0.00    -0.089 OA 
BRANCH  19  22
HETATM   22  N   UNL     1      -6.823  15.729  68.251  1.00  0.00    -0.114 N  
BRANCH  22  23
HETATM   23  C   UNL     1      -7.765  16.305  69.262  1.00  0.00    -0.186 C  
HETATM   24  C   UNL     1      -9.053  16.851  68.661  1.00  0.00    -0.265 C  
ENDBRANCH  22  23
BRANCH  22  25
HETATM   25  C   UNL     1      -7.097  16.093  66.831  1.00  0.00    -0.187 C  
HETATM   26  C   UNL     1      -6.293  17.291  66.352  1.00  0.00    -0.258 C  
ENDBRANCH  22  25
ENDBRANCH  19  22
ENDBRANCH  17  19
ENDBRANCH   3  17
BRANCH   7  27
HETATM   27  C   UNL     1     -12.215  14.504  69.034  1.00  0.00    -0.180 C  
BRANCH  27  28
HETATM   28  C   UNL     1     -12.204  15.558  70.148  1.00  0.00    -0.404 C  
HETATM   29  C   UNL     1     -13.316  15.313  71.157  1.00  0.00    -0.568 C  
ENDBRANCH  27  28
ENDBRANCH   7  27
TORSDOF 7
ENDMDL
MODEL       59
REMARK 921   NORMALIZED FREE ENERGY PREDICTED BY IDOCK:   -5.03 KCAL/MOL
REMARK 922        TOTAL FREE ENERGY PREDICTED BY IDOCK:   -8.30 KCAL/MOL
REMARK 923 INTER-LIGAND FREE ENERGY PREDICTED BY IDOCK:   -7.45 KCAL/MOL
REMARK 924 INTRA-LIGAND FREE ENERGY PREDICTED BY IDOCK:   -0.86 KCAL/MOL
REMARK 927      BINDING AFFINITY PREDICTED BY RF-SCORE:    0.00 PKD
ROOT
HETATM    1  C   UNL     1     -10.064  14.232  67.918  1.00  0.00    -0.233 C  
HETATM    2  C   UNL     1     -10.666  15.530  68.477  1.00  0.00    -0.259 C  
HETATM    3  C   UNL     1      -9.764  16.736  68.196  1.00  0.00    -0.247 C  
HETATM    4  C   UNL     1     -10.315  11.694  68.009  1.00  0.00    -0.208 A  
HETATM    5  C   UNL     1      -8.367  16.417  68.752  1.00  0.00    -0.242 C  
HETATM    6  C   UNL     1      -9.233   9.177  67.390  1.00  0.00    -0.150 A  
HETATM    7  N   UNL     1      -7.776  15.233  68.104  1.00  0.00    -0.114 NA 
HETATM    8  O   UNL     1     -12.405  10.646  68.462  1.00  0.00    -0.814 OA 
HETATM    9  C   UNL     1      -8.589  14.020  68.346  1.00  0.00    -0.174 C  
HETATM   10  C   UNL     1      -8.434  10.317  67.331  1.00  0.00    -0.125 A  
HETATM   11  C   UNL     1     -10.566   9.283  67.771  1.00  0.00    -0.307 A  
HETATM   12  C   UNL     1      -8.959  11.579  67.658  1.00  0.00    -0.160 A  
HETATM   13  C   UNL     1     -11.098  10.533  68.079  1.00  0.00    -0.300 A  
HETATM   14  H   UNL     1     -12.768  11.498  68.672  1.00  0.00     0.000 HD 
HETATM   15  C   UNL     1     -10.914  13.032  68.369  1.00  0.00    -0.288 C  
HETATM   16  C   UNL     1      -8.057  12.789  67.573  1.00  0.00    -0.180 C  
ENDROOT
BRANCH   3  17
HETATM   17  N   UNL     1      -9.765  17.038  66.717  1.00  0.00    -0.258 N  
HETATM   18  H   UNL     1      -9.466  16.362  66.014  1.00  0.00     0.000 HD 
BRANCH  17  19
HETATM   19  S   UNL     1     -10.302  18.585  66.327  1.00  0.00    -0.401 S  
HETATM   20  O   UNL     1     -11.031  19.167  67.421  1.00  0.00    -0.475 OA 
HETATM   21  O   UNL     1     -10.878  18.465  65.009  1.00  0.00    -0.641 OA 
BRANCH  19  22
HETATM   22  N   UNL     1      -8.795  19.382  66.200  1.00  0.00    -0.335 N  
BRANCH  22  23
HETATM   23  C   UNL     1      -7.657  18.459  65.889  1.00  0.00    -0.132 C  
HETATM   24  C   UNL     1      -6.510  19.127  65.144  1.00  0.00    -0.286 C  
ENDBRANCH  22  23
BRANCH  22  25
HETATM   25  C   UNL     1      -8.552  20.361  67.297  1.00  0.00    -0.329 C  
HETATM   26  C   UNL     1      -7.656  19.818  68.399  1.00  0.00    -0.336 C  
ENDBRANCH  22  25
ENDBRANCH  19  22
ENDBRANCH  17  19
ENDBRANCH   3  17
BRANCH   7  27
HETATM   27  C   UNL     1      -6.344  15.123  68.415  1.00  0.00    -0.109 C  
BRANCH  27  28
HETATM   28  C   UNL     1      -5.939  15.552  69.831  1.00  0.00    -0.149 C  
HETATM   29  C   UNL     1      -5.802  14.354  70.758  1.00  0.00    -0.195 C  
ENDBRANCH  27  28
ENDBRANCH   7  27
TORSDOF 7
ENDMDL
MODEL       60
REMARK 921   NORMALIZED FREE ENERGY PREDICTED BY IDOCK:   -5.01 KCAL/MOL
REMARK 922        TOTAL FREE ENERGY PREDICTED BY IDOCK:   -8.28 KCAL/MOL
REMARK 923 INTER-LIGAND FREE ENERGY PREDICTED BY IDOCK:   -7.41 KCAL/MOL
REMARK 924 INTRA-LIGAND FREE ENERGY PREDICTED BY IDOCK:   -0.87 KCAL/MOL
REMARK 927      BINDING AFFINITY PREDICTED BY RF-SCORE:    0.00 PKD
ROOT
HETATM    1  C   UNL     1     -10.284   9.948  67.954  1.00  0.00    -0.234 C  
HETATM    2  C   UNL     1     -11.384  10.932  67.526  1.00  0.00    -0.309 C  
HETATM    3  C   UNL     1     -11.821  11.829  68.688  1.00  0.00    -0.310 C  
HETATM    4  C   UNL     1      -9.050   7.850  67.188  1.00  0.00    -0.158 A  
HETATM    5  C   UNL     1     -12.232  10.917  69.856  1.00  0.00    -0.336 C  
HETATM    6  C   UNL     1      -7.311   5.744  67.845  1.00  0.00    -0.077 A  
HETATM    7  N   UNL     1     -11.113  10.074  70.314  1.00  0.00    -0.295 NA 
HETATM    8  O   UNL     1      -8.758   7.326  64.883  1.00  0.00    -0.357 OA 
HETATM    9  C   UNL     1     -10.646   9.166  69.243  1.00  0.00    -0.216 C  
HETATM   10  C   UNL     1      -7.898   6.509  68.852  1.00  0.00    -0.110 A  
HETATM   11  C   UNL     1      -7.598   6.015  66.511  1.00  0.00    -0.094 A  
HETATM   12  C   UNL     1      -8.784   7.552  68.536  1.00  0.00    -0.128 A  
HETATM   13  C   UNL     1      -8.464   7.058  66.191  1.00  0.00    -0.135 A  
HETATM   14  H   UNL     1      -9.348   8.038  64.664  1.00  0.00     0.000 HD 
HETATM   15  C   UNL     1      -9.999   8.961  66.810  1.00  0.00    -0.338 C  
HETATM   16  C   UNL     1      -9.392   8.360  69.660  1.00  0.00    -0.161 C  
ENDROOT
BRANCH   3  17
HETATM   17  N   UNL     1     -10.707  12.786  69.039  1.00  0.00    -0.415 N  
HETATM   18  H   UNL     1     -10.119  12.671  69.865  1.00  0.00     0.000 HD 
BRANCH  17  19
HETATM   19  S   UNL     1     -10.518  14.057  67.952  1.00  0.00    -0.245 S  
HETATM   20  O   UNL     1     -11.697  14.221  67.144  1.00  0.00    -0.366 OA 
HETATM   21  O   UNL     1      -9.215  13.862  67.364  1.00  0.00    -0.206 OA 
BRANCH  19  22
HETATM   22  N   UNL     1     -10.437  15.360  69.055  1.00  0.00    -0.238 N  
BRANCH  22  23
HETATM   23  C   UNL     1     -11.754  15.690  69.686  1.00  0.00    -0.361 C  
HETATM   24  C   UNL     1     -11.699  15.800  71.203  1.00  0.00    -0.476 C  
ENDBRANCH  22  23
BRANCH  22  25
HETATM   25  C   UNL     1      -9.658  16.521  68.539  1.00  0.00    -0.233 C  
HETATM   26  C   UNL     1     -10.503  17.505  67.746  1.00  0.00    -0.381 C  
ENDBRANCH  22  25
ENDBRANCH  19  22
ENDBRANCH  17  19
ENDBRANCH   3  17
BRANCH   7  27
HETATM   27  C   UNL     1     -11.424   9.445  71.605  1.00  0.00    -0.393 C  
BRANCH  27  28
HETATM   28  C   UNL     1     -12.896   9.073  71.824  1.00  0.00    -0.437 C  
HETATM   29  C   UNL     1     -13.135   7.589  71.592  1.00  0.00    -0.401 C  
ENDBRANCH  27  28
ENDBRANCH   7  27
TORSDOF 7
ENDMDL
MODEL       61
REMARK 921   NORMALIZED FREE ENERGY PREDICTED BY IDOCK:   -4.96 KCAL/MOL
REMARK 922        TOTAL FREE ENERGY PREDICTED BY IDOCK:   -8.21 KCAL/MOL
REMARK 923 INTER-LIGAND FREE ENERGY PREDICTED BY IDOCK:   -7.69 KCAL/MOL
REMARK 924 INTRA-LIGAND FREE ENERGY PREDICTED BY IDOCK:   -0.52 KCAL/MOL
REMARK 927      BINDING AFFINITY PREDICTED BY RF-SCORE:    0.00 PKD
ROOT
HETATM    1  C   UNL     1      -8.864  16.193  67.803  1.00  0.00    -0.184 C  
HETATM    2  C   UNL     1      -9.643  15.052  67.130  1.00  0.00    -0.222 C  
HETATM    3  C   UNL     1      -9.447  13.724  67.868  1.00  0.00    -0.214 C  
HETATM    4  C   UNL     1      -8.085  18.593  67.428  1.00  0.00    -0.258 A  
HETATM    5  C   UNL     1      -7.935  13.462  67.969  1.00  0.00    -0.148 C  
HETATM    6  C   UNL     1      -6.467  20.726  68.279  1.00  0.00    -0.302 A  
HETATM    7  N   UNL     1      -7.243  14.521  68.725  1.00  0.00    -0.119 NA 
HETATM    8  O   UNL     1      -9.273  20.103  66.020  1.00  0.00    -0.566 OA 
HETATM    9  C   UNL     1      -7.377  15.837  68.060  1.00  0.00    -0.125 C  
HETATM   10  C   UNL     1      -6.246  19.440  68.769  1.00  0.00    -0.279 A  
HETATM   11  C   UNL     1      -7.481  20.952  67.355  1.00  0.00    -0.339 A  
HETATM   12  C   UNL     1      -7.037  18.362  68.335  1.00  0.00    -0.276 A  
HETATM   13  C   UNL     1      -8.279  19.891  66.934  1.00  0.00    -0.318 A  
HETATM   14  H   UNL     1      -9.817  19.380  65.733  1.00  0.00     0.000 HD 
HETATM   15  C   UNL     1      -8.953  17.460  66.937  1.00  0.00    -0.260 C  
HETATM   16  C   UNL     1      -6.766  16.985  68.898  1.00  0.00    -0.203 C  
ENDROOT
BRANCH   3  17
HETATM   17  N   UNL     1     -10.135  13.782  69.210  1.00  0.00    -0.414 N  
HETATM   18  H   UNL     1      -9.705  14.201  70.035  1.00  0.00     0.000 HD 
BRANCH  17  19
HETATM   19  S   UNL     1     -11.672  13.096  69.231  1.00  0.00    -0.325 S  
HETATM   20  O   UNL     1     -11.637  11.777  69.802  1.00  0.00    -0.295 OA 
HETATM   21  O   UNL     1     -12.214  13.341  67.916  1.00  0.00    -0.275 OA 
BRANCH  19  22
HETATM   22  N   UNL     1     -12.432  14.145  70.345  1.00  0.00    -0.349 N  
BRANCH  22  23
HETATM   23  C   UNL     1     -11.745  15.468  70.483  1.00  0.00    -0.349 C  
HETATM   24  C   UNL     1     -11.574  15.924  71.926  1.00  0.00    -0.542 C  
ENDBRANCH  22  23
BRANCH  22  25
HETATM   25  C   UNL     1     -12.807  13.475  71.624  1.00  0.00    -0.329 C  
HETATM   26  C   UNL     1     -14.185  13.871  72.128  1.00  0.00    -0.595 C  
ENDBRANCH  22  25
ENDBRANCH  19  22
ENDBRANCH  17  19
ENDBRANCH   3  17
BRANCH   7  27
HETATM   27  C   UNL     1      -5.877  14.110  69.074  1.00  0.00    -0.089 C  
BRANCH  27  28
HETATM   28  C   UNL     1      -5.710  13.475  70.461  1.00  0.00    -0.170 C  
HETATM   29  C   UNL     1      -5.527  11.968  70.364  1.00  0.00    -0.148 C  
ENDBRANCH  27  28
ENDBRANCH   7  27
TORSDOF 7
ENDMDL
MODEL       62
REMARK 921   NORMALIZED FREE ENERGY PREDICTED BY IDOCK:   -4.92 KCAL/MOL
REMARK 922        TOTAL FREE ENERGY PREDICTED BY IDOCK:   -8.15 KCAL/MOL
REMARK 923 INTER-LIGAND FREE ENERGY PREDICTED BY IDOCK:   -7.26 KCAL/MOL
REMARK 924 INTRA-LIGAND FREE ENERGY PREDICTED BY IDOCK:   -0.89 KCAL/MOL
REMARK 927      BINDING AFFINITY PREDICTED BY RF-SCORE:    0.00 PKD
ROOT
HETATM    1  C   UNL     1     -10.116   8.683  69.914  1.00  0.00    -0.197 C  
HETATM    2  C   UNL     1      -9.340   9.754  69.132  1.00  0.00    -0.185 C  
HETATM    3  C   UNL     1      -9.822   9.853  67.682  1.00  0.00    -0.163 C  
HETATM    4  C   UNL     1     -10.074   7.356  72.093  1.00  0.00    -0.223 A  
HETATM    5  C   UNL     1      -9.729   8.450  67.060  1.00  0.00    -0.206 C  
HETATM    6  C   UNL     1     -11.109   5.216  73.591  1.00  0.00    -0.299 A  
HETATM    7  N   UNL     1     -10.580   7.478  67.768  1.00  0.00    -0.223 NA 
HETATM    8  O   UNL     1      -9.064   8.208  74.074  1.00  0.00    -0.333 OA 
HETATM    9  C   UNL     1     -10.162   7.318  69.179  1.00  0.00    -0.197 C  
HETATM   10  C   UNL     1     -11.352   5.294  72.221  1.00  0.00    -0.135 A  
HETATM   11  C   UNL     1     -10.340   6.192  74.217  1.00  0.00    -0.291 A  
HETATM   12  C   UNL     1     -10.823   6.349  71.458  1.00  0.00    -0.299 A  
HETATM   13  C   UNL     1      -9.827   7.249  73.469  1.00  0.00    -0.301 A  
HETATM   14  H   UNL     1      -8.714   8.929  73.564  1.00  0.00     0.000 HD 
HETATM   15  C   UNL     1      -9.488   8.502  71.306  1.00  0.00    -0.265 C  
HETATM   16  C   UNL     1     -11.117   6.398  69.976  1.00  0.00    -0.442 C  
ENDROOT
BRANCH   3  17
HETATM   17  N   UNL     1     -11.216  10.431  67.647  1.00  0.00    -0.379 N  
HETATM   18  H   UNL     1     -12.053   9.868  67.799  1.00  0.00     0.000 HD 
BRANCH  17  19
HETATM   19  S   UNL     1     -11.273  12.084  67.336  1.00  0.00    -0.329 S  
HETATM   20  O   UNL     1     -11.120  12.840  68.550  1.00  0.00    -0.238 OA 
HETATM   21  O   UNL     1     -12.408  12.267  66.464  1.00  0.00    -0.504 OA 
BRANCH  19  22
HETATM   22  N   UNL     1      -9.840  12.246  66.418  1.00  0.00    -0.225 N  
BRANCH  22  23
HETATM   23  C   UNL     1      -8.885  13.255  66.976  1.00  0.00    -0.212 C  
HETATM   24  C   UNL     1      -9.149  14.678  66.504  1.00  0.00    -0.267 C  
ENDBRANCH  22  23
BRANCH  22  25
HETATM   25  C   UNL     1     -10.088  12.334  64.950  1.00  0.00    -0.250 C  
HETATM   26  C   UNL     1     -10.096  10.980  64.261  1.00  0.00    -0.398 C  
ENDBRANCH  22  25
ENDBRANCH  19  22
ENDBRANCH  17  19
ENDBRANCH   3  17
BRANCH   7  27
HETATM   27  C   UNL     1     -10.720   6.238  66.992  1.00  0.00    -0.362 C  
BRANCH  27  28
HETATM   28  C   UNL     1      -9.433   5.424  66.805  1.00  0.00    -0.144 C  
HETATM   29  C   UNL     1      -9.733   3.945  66.616  1.00  0.00    -0.189 C  
ENDBRANCH  27  28
ENDBRANCH   7  27
TORSDOF 7
ENDMDL
MODEL       63
REMARK 921   NORMALIZED FREE ENERGY PREDICTED BY IDOCK:   -4.91 KCAL/MOL
REMARK 922        TOTAL FREE ENERGY PREDICTED BY IDOCK:   -8.13 KCAL/MOL
REMARK 923 INTER-LIGAND FREE ENERGY PREDICTED BY IDOCK:   -7.52 KCAL/MOL
REMARK 924 INTRA-LIGAND FREE ENERGY PREDICTED BY IDOCK:   -0.61 KCAL/MOL
REMARK 927      BINDING AFFINITY PREDICTED BY RF-SCORE:    0.00 PKD
ROOT
HETATM    1  C   UNL     1     -11.356  11.799  68.592  1.00  0.00    -0.327 C  
HETATM    2  C   UNL     1     -11.239  10.463  67.842  1.00  0.00    -0.332 C  
HETATM    3  C   UNL     1     -10.463  10.620  66.530  1.00  0.00    -0.224 C  
HETATM    4  C   UNL     1     -12.593  12.923  70.520  1.00  0.00    -0.204 A  
HETATM    5  C   UNL     1     -11.146  11.727  65.712  1.00  0.00    -0.297 C  
HETATM    6  C   UNL     1     -13.232  15.305  71.865  1.00  0.00    -0.506 A  
HETATM    7  N   UNL     1     -11.132  13.020  66.418  1.00  0.00    -0.281 NA 
HETATM    8  O   UNL     1     -13.413  11.690  72.387  1.00  0.00    -0.602 OA 
HETATM    9  C   UNL     1     -11.879  12.949  67.694  1.00  0.00    -0.346 C  
HETATM   10  C   UNL     1     -12.681  15.348  70.586  1.00  0.00    -0.490 A  
HETATM   11  C   UNL     1     -13.480  14.079  72.473  1.00  0.00    -0.661 A  
HETATM   12  C   UNL     1     -12.376  14.163  69.896  1.00  0.00    -0.382 A  
HETATM   13  C   UNL     1     -13.164  12.900  71.800  1.00  0.00    -0.384 A  
HETATM   14  H   UNL     1     -13.197  10.887  71.928  1.00  0.00     0.000 HD 
HETATM   15  C   UNL     1     -12.281  11.629  69.809  1.00  0.00    -0.285 C  
HETATM   16  C   UNL     1     -11.773  14.258  68.513  1.00  0.00    -0.376 C  
ENDROOT
BRANCH   3  17
HETATM   17  N   UNL     1      -9.011  10.905  66.829  1.00  0.00    -0.148 N  
HETATM   18  H   UNL     1      -8.577  11.811  66.649  1.00  0.00     0.000 HD 
BRANCH  17  19
HETATM   19  S   UNL     1      -8.170   9.602  67.482  1.00  0.00    -0.114 S  
HETATM   20  O   UNL     1      -8.283   8.443  66.638  1.00  0.00    -0.102 OA 
HETATM   21  O   UNL     1      -8.545   9.568  68.875  1.00  0.00    -0.122 OA 
BRANCH  19  22
HETATM   22  N   UNL     1      -6.576  10.205  67.355  1.00  0.00    -0.068 N  
BRANCH  22  23
HETATM   23  C   UNL     1      -5.797   9.600  66.228  1.00  0.00    -0.058 C  
HETATM   24  C   UNL     1      -5.632  10.523  65.029  1.00  0.00    -0.140 C  
ENDBRANCH  22  23
BRANCH  22  25
HETATM   25  C   UNL     1      -5.867  10.278  68.664  1.00  0.00    -0.037 C  
HETATM   26  C   UNL     1      -5.209  11.624  68.917  1.00  0.00    -0.046 C  
ENDBRANCH  22  25
ENDBRANCH  19  22
ENDBRANCH  17  19
ENDBRANCH   3  17
BRANCH   7  27
HETATM   27  C   UNL     1     -11.503  14.117  65.513  1.00  0.00    -0.324 C  
BRANCH  27  28
HETATM   28  C   UNL     1     -10.370  15.086  65.148  1.00  0.00    -0.422 C  
HETATM   29  C   UNL     1     -10.880  16.514  65.018  1.00  0.00    -0.245 C  
ENDBRANCH  27  28
ENDBRANCH   7  27
TORSDOF 7
ENDMDL
MODEL       64
REMARK 921   NORMALIZED FREE ENERGY PREDICTED BY IDOCK:   -4.90 KCAL/MOL
REMARK 922        TOTAL FREE ENERGY PREDICTED BY IDOCK:   -8.13 KCAL/MOL
REMARK 923 INTER-LIGAND FREE ENERGY PREDICTED BY IDOCK:   -7.36 KCAL/MOL
REMARK 924 INTRA-LIGAND FREE ENERGY PREDICTED BY IDOCK:   -0.76 KCAL/MOL
REMARK 927      BINDING AFFINITY PREDICTED BY RF-SCORE:    0.00 PKD
ROOT
HETATM    1  C   UNL     1     -10.342  10.595  66.870  1.00  0.00    -0.288 C  
HETATM    2  C   UNL     1     -10.305   9.059  66.869  1.00  0.00    -0.324 C  
HETATM    3  C   UNL     1      -9.379   8.518  67.963  1.00  0.00    -0.136 C  
HETATM    4  C   UNL     1     -11.102  12.591  65.474  1.00  0.00    -0.336 A  
HETATM    5  C   UNL     1      -7.999   9.167  67.773  1.00  0.00    -0.101 C  
HETATM    6  C   UNL     1     -11.035  15.370  65.069  1.00  0.00    -0.450 A  
HETATM    7  N   UNL     1      -8.059  10.634  67.899  1.00  0.00    -0.110 NA 
HETATM    8  O   UNL     1     -12.935  12.450  63.959  1.00  0.00    -0.748 OA 
HETATM    9  C   UNL     1      -8.928  11.231  66.860  1.00  0.00    -0.162 C  
HETATM   10  C   UNL     1     -10.112  14.763  65.918  1.00  0.00    -0.343 A  
HETATM   11  C   UNL     1     -11.984  14.597  64.408  1.00  0.00    -0.454 A  
HETATM   12  C   UNL     1     -10.123  13.372  66.113  1.00  0.00    -0.304 A  
HETATM   13  C   UNL     1     -12.011  13.219  64.610  1.00  0.00    -0.394 A  
HETATM   14  H   UNL     1     -12.954  11.510  64.096  1.00  0.00     0.000 HD 
HETATM   15  C   UNL     1     -11.144  11.094  65.656  1.00  0.00    -0.078 C  
HETATM   16  C   UNL     1      -9.107  12.757  67.048  1.00  0.00    -0.220 C  
ENDROOT
BRANCH   3  17
HETATM   17  N   UNL     1      -9.984   8.785  69.320  1.00  0.00    -0.188 N  
HETATM   18  H   UNL     1     -10.223   9.723  69.644  1.00  0.00     0.000 HD 
BRANCH  17  19
HETATM   19  S   UNL     1     -10.231   7.406  70.252  1.00  0.00    -0.203 S  
HETATM   20  O   UNL     1      -8.979   6.792  70.602  1.00  0.00    -0.150 OA 
HETATM   21  O   UNL     1     -11.274   6.673  69.575  1.00  0.00    -0.317 OA 
BRANCH  19  22
HETATM   22  N   UNL     1     -10.887   8.128  71.655  1.00  0.00    -0.238 N  
BRANCH  22  23
HETATM   23  C   UNL     1     -11.426   9.505  71.420  1.00  0.00    -0.392 C  
HETATM   24  C   UNL     1     -12.929   9.621  71.632  1.00  0.00    -0.501 C  
ENDBRANCH  22  23
BRANCH  22  25
HETATM   25  C   UNL     1     -10.021   7.970  72.858  1.00  0.00    -0.290 C  
HETATM   26  C   UNL     1     -10.484   6.862  73.789  1.00  0.00    -0.390 C  
ENDBRANCH  22  25
ENDBRANCH  19  22
ENDBRANCH  17  19
ENDBRANCH   3  17
BRANCH   7  27
HETATM   27  C   UNL     1      -6.712  11.207  68.022  1.00  0.00    -0.062 C  
BRANCH  27  28
HETATM   28  C   UNL     1      -6.301  11.636  69.437  1.00  0.00    -0.106 C  
HETATM   29  C   UNL     1      -5.733  10.468  70.229  1.00  0.00    -0.079 C  
ENDBRANCH  27  28
ENDBRANCH   7  27
TORSDOF 7
ENDMDL
MODEL       65
REMARK 921   NORMALIZED FREE ENERGY PREDICTED BY IDOCK:   -4.86 KCAL/MOL
REMARK 922        TOTAL FREE ENERGY PREDICTED BY IDOCK:   -8.06 KCAL/MOL
REMARK 923 INTER-LIGAND FREE ENERGY PREDICTED BY IDOCK:   -7.76 KCAL/MOL
REMARK 924 INTRA-LIGAND FREE ENERGY PREDICTED BY IDOCK:   -0.30 KCAL/MOL
REMARK 927      BINDING AFFINITY PREDICTED BY RF-SCORE:    0.00 PKD
ROOT
HETATM    1  C   UNL     1     -10.684  10.893  68.365  1.00  0.00    -0.240 C  
HETATM    2  C   UNL     1     -10.949  10.432  69.807  1.00  0.00    -0.345 C  
HETATM    3  C   UNL     1     -10.136   9.181  70.156  1.00  0.00    -0.202 C  
HETATM    4  C   UNL     1     -11.575  12.458  66.557  1.00  0.00    -0.447 A  
HETATM    5  C   UNL     1     -10.449   8.109  69.099  1.00  0.00    -0.206 C  
HETATM    6  C   UNL     1     -11.513  13.254  63.863  1.00  0.00    -0.409 A  
HETATM    7  N   UNL     1     -10.070   8.546  67.744  1.00  0.00    -0.198 NA 
HETATM    8  O   UNL     1     -12.756  14.458  67.085  1.00  0.00    -0.446 OA 
HETATM    9  C   UNL     1     -10.830   9.747  67.330  1.00  0.00    -0.197 C  
HETATM   10  C   UNL     1     -10.949  12.039  64.248  1.00  0.00    -0.401 A  
HETATM   11  C   UNL     1     -12.122  14.068  64.812  1.00  0.00    -0.455 A  
HETATM   12  C   UNL     1     -10.992  11.622  65.589  1.00  0.00    -0.322 A  
HETATM   13  C   UNL     1     -12.152  13.668  66.146  1.00  0.00    -0.436 A  
HETATM   14  H   UNL     1     -12.776  14.185  67.994  1.00  0.00     0.000 HD 
HETATM   15  C   UNL     1     -11.641  12.042  68.006  1.00  0.00    -0.407 C  
HETATM   16  C   UNL     1     -10.361  10.300  65.963  1.00  0.00    -0.248 C  
ENDROOT
BRANCH   3  17
HETATM   17  N   UNL     1      -8.671   9.533  70.236  1.00  0.00    -0.224 N  
HETATM   18  H   UNL     1      -8.286  10.394  69.848  1.00  0.00     0.000 HD 
BRANCH  17  19
HETATM   19  S   UNL     1      -7.725   8.382  71.020  1.00  0.00    -0.109 S  
HETATM   20  O   UNL     1      -6.956   8.983  72.077  1.00  0.00    -0.292 OA 
HETATM   21  O   UNL     1      -7.100   7.622  69.964  1.00  0.00    -0.057 OA 
BRANCH  19  22
HETATM   22  N   UNL     1      -8.960   7.435  71.725  1.00  0.00    -0.122 N  
BRANCH  22  23
HETATM   23  C   UNL     1      -9.386   7.920  73.076  1.00  0.00    -0.265 C  
HETATM   24  C   UNL     1     -10.370   6.995  73.779  1.00  0.00    -0.408 C  
ENDBRANCH  22  23
BRANCH  22  25
HETATM   25  C   UNL     1      -8.716   5.969  71.612  1.00  0.00    -0.135 C  
HETATM   26  C   UNL     1      -9.710   5.263  70.705  1.00  0.00    -0.247 C  
ENDBRANCH  22  25
ENDBRANCH  19  22
ENDBRANCH  17  19
ENDBRANCH   3  17
BRANCH   7  27
HETATM   27  C   UNL     1     -10.085   7.417  66.804  1.00  0.00    -0.235 C  
BRANCH  27  28
HETATM   28  C   UNL     1     -10.950   6.220  67.219  1.00  0.00    -0.455 C  
HETATM   29  C   UNL     1     -10.275   4.900  66.877  1.00  0.00    -0.254 C  
ENDBRANCH  27  28
ENDBRANCH   7  27
TORSDOF 7
ENDMDL
MODEL       66
REMARK 921   NORMALIZED FREE ENERGY PREDICTED BY IDOCK:   -4.83 KCAL/MOL
REMARK 922        TOTAL FREE ENERGY PREDICTED BY IDOCK:   -8.02 KCAL/MOL
REMARK 923 INTER-LIGAND FREE ENERGY PREDICTED BY IDOCK:   -7.13 KCAL/MOL
REMARK 924 INTRA-LIGAND FREE ENERGY PREDICTED BY IDOCK:   -0.89 KCAL/MOL
REMARK 927      BINDING AFFINITY PREDICTED BY RF-SCORE:    0.00 PKD
ROOT
HETATM    1  C   UNL     1     -10.639  13.448  68.673  1.00  0.00    -0.257 C  
HETATM    2  C   UNL     1     -11.384  12.470  69.595  1.00  0.00    -0.182 C  
HETATM    3  C   UNL     1     -11.190  11.018  69.149  1.00  0.00    -0.255 C  
HETATM    4  C   UNL     1     -10.448  15.929  68.105  1.00  0.00    -0.270 A  
HETATM    5  C   UNL     1     -11.617  10.919  67.675  1.00  0.00    -0.085 C  
HETATM    6  C   UNL     1      -9.473  17.895  66.352  1.00  0.00    -0.278 A  
HETATM    7  N   UNL     1     -10.799  11.785  66.808  1.00  0.00    -0.257 NA 
HETATM    8  O   UNL     1     -10.904  17.632  69.706  1.00  0.00    -0.183 OA 
HETATM    9  C   UNL     1     -10.948  13.212  67.172  1.00  0.00    -0.268 C  
HETATM   10  C   UNL     1      -9.498  16.558  65.960  1.00  0.00    -0.317 A  
HETATM   11  C   UNL     1      -9.945  18.260  67.608  1.00  0.00    -0.348 A  
HETATM   12  C   UNL     1     -10.002  15.569  66.821  1.00  0.00    -0.257 A  
HETATM   13  C   UNL     1     -10.430  17.281  68.473  1.00  0.00    -0.375 A  
HETATM   14  H   UNL     1     -11.235  16.965  70.296  1.00  0.00     0.000 HD 
HETATM   15  C   UNL     1     -10.998  14.894  69.056  1.00  0.00    -0.251 C  
HETATM   16  C   UNL     1     -10.004  14.130  66.358  1.00  0.00    -0.302 C  
ENDROOT
BRANCH   3  17
HETATM   17  N   UNL     1      -9.760  10.598  69.387  1.00  0.00    -0.387 N  
HETATM   18  H   UNL     1      -8.973  10.995  68.871  1.00  0.00     0.000 HD 
BRANCH  17  19
HETATM   19  S   UNL     1      -9.572   9.421  70.575  1.00  0.00    -0.262 S  
HETATM   20  O   UNL     1     -10.707   9.397  71.458  1.00  0.00    -0.346 OA 
HETATM   21  O   UNL     1      -8.227   9.594  71.070  1.00  0.00    -0.270 OA 
BRANCH  19  22
HETATM   22  N   UNL     1      -9.623   8.022  69.595  1.00  0.00    -0.167 N  
BRANCH  22  23
HETATM   23  C   UNL     1      -9.050   8.231  68.227  1.00  0.00    -0.135 C  
HETATM   24  C   UNL     1      -7.761   7.459  67.977  1.00  0.00    -0.116 C  
ENDBRANCH  22  23
BRANCH  22  25
HETATM   25  C   UNL     1     -10.934   7.316  69.644  1.00  0.00    -0.186 C  
HETATM   26  C   UNL     1     -10.800   5.803  69.700  1.00  0.00    -0.418 C  
ENDBRANCH  22  25
ENDBRANCH  19  22
ENDBRANCH  17  19
ENDBRANCH   3  17
BRANCH   7  27
HETATM   27  C   UNL     1     -11.006  11.455  65.391  1.00  0.00    -0.184 C  
BRANCH  27  28
HETATM   28  C   UNL     1     -10.001  10.466  64.787  1.00  0.00    -0.409 C  
HETATM   29  C   UNL     1      -9.561  10.898  63.396  1.00  0.00    -0.364 C  
ENDBRANCH  27  28
ENDBRANCH   7  27
TORSDOF 7
ENDMDL
MODEL       67
REMARK 921   NORMALIZED FREE ENERGY PREDICTED BY IDOCK:   -4.82 KCAL/MOL
REMARK 922        TOTAL FREE ENERGY PREDICTED BY IDOCK:   -8.01 KCAL/MOL
REMARK 923 INTER-LIGAND FREE ENERGY PREDICTED BY IDOCK:   -7.06 KCAL/MOL
REMARK 924 INTRA-LIGAND FREE ENERGY PREDICTED BY IDOCK:   -0.95 KCAL/MOL
REMARK 927      BINDING AFFINITY PREDICTED BY RF-SCORE:    0.00 PKD
ROOT
HETATM    1  C   UNL     1     -10.009   9.588  66.035  1.00  0.00    -0.348 C  
HETATM    2  C   UNL     1      -8.947   8.528  65.702  1.00  0.00    -0.209 C  
HETATM    3  C   UNL     1      -9.075   7.299  66.607  1.00  0.00    -0.154 C  
HETATM    4  C   UNL     1     -10.626  12.025  65.598  1.00  0.00    -0.303 A  
HETATM    5  C   UNL     1      -9.024   7.783  68.065  1.00  0.00    -0.126 C  
HETATM    6  C   UNL     1     -12.234  14.226  66.276  1.00  0.00    -0.433 A  
HETATM    7  N   UNL     1     -10.129   8.707  68.376  1.00  0.00    -0.185 NA 
HETATM    8  O   UNL     1      -9.985  13.153  63.601  1.00  0.00    -0.675 OA 
HETATM    9  C   UNL     1     -10.062   9.931  67.547  1.00  0.00    -0.197 C  
HETATM   10  C   UNL     1     -12.151  13.128  67.131  1.00  0.00    -0.343 A  
HETATM   11  C   UNL     1     -11.507  14.239  65.091  1.00  0.00    -0.351 A  
HETATM   12  C   UNL     1     -11.335  12.031  66.812  1.00  0.00    -0.398 A  
HETATM   13  C   UNL     1     -10.709  13.146  64.760  1.00  0.00    -0.364 A  
HETATM   14  H   UNL     1      -9.440  12.408  63.375  1.00  0.00     0.000 HD 
HETATM   15  C   UNL     1      -9.737  10.864  65.222  1.00  0.00    -0.296 C  
HETATM   16  C   UNL     1     -11.281  10.859  67.765  1.00  0.00    -0.384 C  
ENDROOT
BRANCH   3  17
HETATM   17  N   UNL     1     -10.340   6.548  66.270  1.00  0.00    -0.436 N  
HETATM   18  H   UNL     1     -11.237   7.012  66.120  1.00  0.00     0.000 HD 
BRANCH  17  19
HETATM   19  S   UNL     1     -10.148   4.879  66.162  1.00  0.00    -0.264 S  
HETATM   20  O   UNL     1     -10.947   4.338  65.095  1.00  0.00    -0.231 OA 
HETATM   21  O   UNL     1     -10.261   4.396  67.517  1.00  0.00    -0.061 OA 
BRANCH  19  22
HETATM   22  N   UNL     1      -8.507   4.816  65.689  1.00  0.00    -0.118 N  
BRANCH  22  23
HETATM   23  C   UNL     1      -8.317   4.552  64.227  1.00  0.00    -0.114 C  
HETATM   24  C   UNL     1      -7.967   5.793  63.418  1.00  0.00    -0.108 C  
ENDBRANCH  22  23
BRANCH  22  25
HETATM   25  C   UNL     1      -7.659   4.004  66.608  1.00  0.00    -0.088 C  
HETATM   26  C   UNL     1      -7.070   2.768  65.946  1.00  0.00    -0.065 C  
ENDBRANCH  22  25
ENDBRANCH  19  22
ENDBRANCH  17  19
ENDBRANCH   3  17
BRANCH   7  27
HETATM   27  C   UNL     1     -10.248   8.915  69.826  1.00  0.00    -0.202 C  
BRANCH  27  28
HETATM   28  C   UNL     1     -11.517   8.346  70.475  1.00  0.00    -0.189 C  
HETATM   29  C   UNL     1     -11.603   6.837  70.299  1.00  0.00    -0.417 C  
ENDBRANCH  27  28
ENDBRANCH   7  27
TORSDOF 7
ENDMDL
MODEL       68
REMARK 921   NORMALIZED FREE ENERGY PREDICTED BY IDOCK:   -4.80 KCAL/MOL
REMARK 922        TOTAL FREE ENERGY PREDICTED BY IDOCK:   -7.99 KCAL/MOL
REMARK 923 INTER-LIGAND FREE ENERGY PREDICTED BY IDOCK:   -7.26 KCAL/MOL
REMARK 924 INTRA-LIGAND FREE ENERGY PREDICTED BY IDOCK:   -0.73 KCAL/MOL
REMARK 927      BINDING AFFINITY PREDICTED BY RF-SCORE:    0.00 PKD
ROOT
HETATM    1  C   UNL     1      -9.632   9.099  69.671  1.00  0.00    -0.182 C  
HETATM    2  C   UNL     1      -8.730   9.956  68.770  1.00  0.00    -0.132 C  
HETATM    3  C   UNL     1      -9.299  10.075  67.353  1.00  0.00    -0.148 C  
HETATM    4  C   UNL     1      -9.671   7.901  71.924  1.00  0.00    -0.231 A  
HETATM    5  C   UNL     1      -9.529   8.651  66.819  1.00  0.00    -0.191 C  
HETATM    6  C   UNL     1     -10.975   6.087  73.627  1.00  0.00    -0.065 A  
HETATM    7  N   UNL     1     -10.492   7.903  67.646  1.00  0.00    -0.238 NA 
HETATM    8  O   UNL     1      -8.358   8.637  73.770  1.00  0.00    -0.363 OA 
HETATM    9  C   UNL     1     -10.000   7.735  69.032  1.00  0.00    -0.182 C  
HETATM   10  C   UNL     1     -11.308   6.142  72.275  1.00  0.00    -0.346 A  
HETATM   11  C   UNL     1      -9.984   6.922  74.133  1.00  0.00    -0.351 A  
HETATM   12  C   UNL     1     -10.649   7.032  71.410  1.00  0.00    -0.236 A  
HETATM   13  C   UNL     1      -9.339   7.818  73.284  1.00  0.00    -0.270 A  
HETATM   14  H   UNL     1      -7.918   9.248  73.192  1.00  0.00     0.000 HD 
HETATM   15  C   UNL     1      -8.940   8.869  71.025  1.00  0.00    -0.298 C  
HETATM   16  C   UNL     1     -11.047   7.063  69.952  1.00  0.00    -0.301 C  
ENDROOT
BRANCH   3  17
HETATM   17  N   UNL     1     -10.553  10.914  67.377  1.00  0.00    -0.227 N  
HETATM   18  H   UNL     1     -11.254  10.842  68.116  1.00  0.00     0.000 HD 
BRANCH  17  19
HETATM   19  S   UNL     1     -10.699  11.980  66.083  1.00  0.00    -0.287 S  
HETATM   20  O   UNL     1     -11.206  11.306  64.918  1.00  0.00    -0.176 OA 
HETATM   21  O   UNL     1      -9.457  12.715  66.056  1.00  0.00    -0.225 OA 
BRANCH  19  22
HETATM   22  N   UNL     1     -11.929  12.997  66.693  1.00  0.00    -0.403 N  
BRANCH  22  23
HETATM   23  C   UNL     1     -12.825  13.554  65.630  1.00  0.00    -0.321 C  
HETATM   24  C   UNL     1     -12.134  14.541  64.699  1.00  0.00    -0.486 C  
ENDBRANCH  22  23
BRANCH  22  25
HETATM   25  C   UNL     1     -11.435  13.979  67.701  1.00  0.00    -0.334 C  
HETATM   26  C   UNL     1     -11.824  13.622  69.127  1.00  0.00    -0.394 C  
ENDBRANCH  22  25
ENDBRANCH  19  22
ENDBRANCH  17  19
ENDBRANCH   3  17
BRANCH   7  27
HETATM   27  C   UNL     1     -10.931   6.678  66.964  1.00  0.00    -0.393 C  
BRANCH  27  28
HETATM   28  C   UNL     1      -9.836   5.635  66.704  1.00  0.00    -0.191 C  
HETATM   29  C   UNL     1     -10.313   4.554  65.746  1.00  0.00    -0.287 C  
ENDBRANCH  27  28
ENDBRANCH   7  27
TORSDOF 7
ENDMDL
MODEL       69
REMARK 921   NORMALIZED FREE ENERGY PREDICTED BY IDOCK:   -4.76 KCAL/MOL
REMARK 922        TOTAL FREE ENERGY PREDICTED BY IDOCK:   -7.93 KCAL/MOL
REMARK 923 INTER-LIGAND FREE ENERGY PREDICTED BY IDOCK:   -7.53 KCAL/MOL
REMARK 924 INTRA-LIGAND FREE ENERGY PREDICTED BY IDOCK:   -0.39 KCAL/MOL
REMARK 927      BINDING AFFINITY PREDICTED BY RF-SCORE:    0.00 PKD
ROOT
HETATM    1  C   UNL     1     -11.072  10.078  69.349  1.00  0.00    -0.265 C  
HETATM    2  C   UNL     1     -11.141  11.611  69.261  1.00  0.00    -0.291 C  
HETATM    3  C   UNL     1     -10.656  12.119  67.900  1.00  0.00    -0.207 C  
HETATM    4  C   UNL     1     -11.205   8.150  71.015  1.00  0.00    -0.284 A  
HETATM    5  C   UNL     1      -9.247  11.552  67.662  1.00  0.00    -0.171 C  
HETATM    6  C   UNL     1     -10.823   5.412  71.514  1.00  0.00    -0.218 A  
HETATM    7  N   UNL     1      -9.245  10.078  67.636  1.00  0.00    -0.137 NA 
HETATM    8  O   UNL     1     -12.457   8.308  73.035  1.00  0.00    -0.673 OA 
HETATM    9  C   UNL     1      -9.690   9.513  68.930  1.00  0.00    -0.164 C  
HETATM   10  C   UNL     1     -10.266   6.002  70.381  1.00  0.00    -0.261 A  
HETATM   11  C   UNL     1     -11.558   6.183  72.408  1.00  0.00    -0.338 A  
HETATM   12  C   UNL     1     -10.434   7.375  70.132  1.00  0.00    -0.228 A  
HETATM   13  C   UNL     1     -11.743   7.541  72.157  1.00  0.00    -0.303 A  
HETATM   14  H   UNL     1     -12.583   9.234  72.864  1.00  0.00     0.000 HD 
HETATM   15  C   UNL     1     -11.405   9.627  70.781  1.00  0.00    -0.409 C  
HETATM   16  C   UNL     1      -9.817   7.971  68.887  1.00  0.00    -0.176 C  
ENDROOT
BRANCH   3  17
HETATM   17  N   UNL     1     -11.646  11.730  66.829  1.00  0.00    -0.283 N  
HETATM   18  H   UNL     1     -12.202  10.876  66.874  1.00  0.00     0.000 HD 
BRANCH  17  19
HETATM   19  S   UNL     1     -11.754  12.824  65.555  1.00  0.00    -0.418 S  
HETATM   20  O   UNL     1     -13.115  12.960  65.109  1.00  0.00    -0.753 OA 
HETATM   21  O   UNL     1     -10.690  12.459  64.650  1.00  0.00    -0.278 OA 
BRANCH  19  22
HETATM   22  N   UNL     1     -11.312  14.256  66.377  1.00  0.00    -0.334 N  
BRANCH  22  23
HETATM   23  C   UNL     1     -12.277  14.648  67.453  1.00  0.00    -0.051 C  
HETATM   24  C   UNL     1     -11.722  15.674  68.431  1.00  0.00    -0.301 C  
ENDBRANCH  22  23
BRANCH  22  25
HETATM   25  C   UNL     1     -10.886  15.353  65.461  1.00  0.00    -0.374 C  
HETATM   26  C   UNL     1      -9.425  15.740  65.628  1.00  0.00    -0.252 C  
ENDBRANCH  22  25
ENDBRANCH  19  22
ENDBRANCH  17  19
ENDBRANCH   3  17
BRANCH   7  27
HETATM   27  C   UNL     1      -7.974   9.563  67.110  1.00  0.00    -0.102 C  
BRANCH  27  28
HETATM   28  C   UNL     1      -7.684   9.891  65.639  1.00  0.00    -0.121 C  
HETATM   29  C   UNL     1      -8.001   8.711  64.733  1.00  0.00    -0.141 C  
ENDBRANCH  27  28
ENDBRANCH   7  27
TORSDOF 7
ENDMDL
MODEL       70
REMARK 921   NORMALIZED FREE ENERGY PREDICTED BY IDOCK:   -4.75 KCAL/MOL
REMARK 922        TOTAL FREE ENERGY PREDICTED BY IDOCK:   -7.91 KCAL/MOL
REMARK 923 INTER-LIGAND FREE ENERGY PREDICTED BY IDOCK:   -7.90 KCAL/MOL
REMARK 924 INTRA-LIGAND FREE ENERGY PREDICTED BY IDOCK:   -0.00 KCAL/MOL
REMARK 927      BINDING AFFINITY PREDICTED BY RF-SCORE:    0.00 PKD
ROOT
HETATM    1  C   UNL     1     -10.281  15.796  69.303  1.00  0.00    -0.248 C  
HETATM    2  C   UNL     1      -8.840  16.241  69.009  1.00  0.00    -0.243 C  
HETATM    3  C   UNL     1      -8.426  15.899  67.574  1.00  0.00    -0.165 C  
HETATM    4  C   UNL     1     -11.928  15.445  71.220  1.00  0.00    -0.431 A  
HETATM    5  C   UNL     1      -8.660  14.394  67.365  1.00  0.00    -0.202 C  
HETATM    6  C   UNL     1     -14.391  14.398  72.073  1.00  0.00    -0.636 A  
HETATM    7  N   UNL     1     -10.077  14.029  67.540  1.00  0.00    -0.235 NA 
HETATM    8  O   UNL     1     -11.797  16.693  73.244  1.00  0.00    -0.451 OA 
HETATM    9  C   UNL     1     -10.545  14.318  68.914  1.00  0.00    -0.245 C  
HETATM   10  C   UNL     1     -13.849  14.006  70.850  1.00  0.00     0.190 A  
HETATM   11  C   UNL     1     -13.705  15.299  72.880  1.00  0.00    -0.531 A  
HETATM   12  C   UNL     1     -12.608  14.508  70.423  1.00  0.00    -0.405 A  
HETATM   13  C   UNL     1     -12.482  15.813  72.454  1.00  0.00    -0.453 A  
HETATM   14  H   UNL     1     -10.963  17.044  72.954  1.00  0.00     0.000 HD 
HETATM   15  C   UNL     1     -10.592  16.004  70.794  1.00  0.00     0.193 C  
HETATM   16  C   UNL     1     -12.061  14.060  69.086  1.00  0.00    -0.375 C  
ENDROOT
BRANCH   3  17
HETATM   17  N   UNL     1      -9.193  16.765  66.604  1.00  0.00    -0.242 N  
HETATM   18  H   UNL     1     -10.065  16.467  66.166  1.00  0.00     0.000 HD 
BRANCH  17  19
HETATM   19  S   UNL     1      -8.486  18.263  66.305  1.00  0.00    -0.131 S  
HETATM   20  O   UNL     1      -9.465  19.209  65.841  1.00  0.00    -0.437 OA 
HETATM   21  O   UNL     1      -7.290  17.974  65.550  1.00  0.00    -0.539 OA 
BRANCH  19  22
HETATM   22  N   UNL     1      -8.042  18.687  67.900  1.00  0.00    -0.259 N  
BRANCH  22  23
HETATM   23  C   UNL     1      -8.734  19.916  68.405  1.00  0.00    -0.172 C  
HETATM   24  C   UNL     1     -10.024  19.629  69.160  1.00  0.00    -0.416 C  
ENDBRANCH  22  23
BRANCH  22  25
HETATM   25  C   UNL     1      -6.572  18.630  68.138  1.00  0.00    -0.222 C  
HETATM   26  C   UNL     1      -6.033  19.851  68.864  1.00  0.00    -0.298 C  
ENDBRANCH  22  25
ENDBRANCH  19  22
ENDBRANCH  17  19
ENDBRANCH   3  17
BRANCH   7  27
HETATM   27  C   UNL     1     -10.335  12.671  67.042  1.00  0.00    -0.232 C  
BRANCH  27  28
HETATM   28  C   UNL     1     -10.617  12.559  65.538  1.00  0.00    -0.304 C  
HETATM   29  C   UNL     1     -10.795  13.929  64.901  1.00  0.00    -0.413 C  
ENDBRANCH  27  28
ENDBRANCH   7  27
TORSDOF 7
ENDMDL
MODEL       71
REMARK 921   NORMALIZED FREE ENERGY PREDICTED BY IDOCK:   -4.74 KCAL/MOL
REMARK 922        TOTAL FREE ENERGY PREDICTED BY IDOCK:   -7.89 KCAL/MOL
REMARK 923 INTER-LIGAND FREE ENERGY PREDICTED BY IDOCK:   -7.26 KCAL/MOL
REMARK 924 INTRA-LIGAND FREE ENERGY PREDICTED BY IDOCK:   -0.63 KCAL/MOL
REMARK 927      BINDING AFFINITY PREDICTED BY RF-SCORE:    0.00 PKD
ROOT
HETATM    1  C   UNL     1     -10.612  15.321  66.749  1.00  0.00    -0.304 C  
HETATM    2  C   UNL     1     -11.311  16.465  67.502  1.00  0.00     0.091 C  
HETATM    3  C   UNL     1     -10.300  17.372  68.211  1.00  0.00    -0.374 C  
HETATM    4  C   UNL     1     -11.078  13.099  65.583  1.00  0.00    -0.296 A  
HETATM    5  C   UNL     1      -9.426  16.485  69.113  1.00  0.00    -0.212 C  
HETATM    6  C   UNL     1     -10.039  10.747  64.452  1.00  0.00    -0.419 A  
HETATM    7  N   UNL     1      -8.682  15.477  68.338  1.00  0.00    -0.169 NA 
HETATM    8  O   UNL     1     -13.175  12.623  64.560  1.00  0.00    -0.783 OA 
HETATM    9  C   UNL     1      -9.598  14.551  67.634  1.00  0.00    -0.214 C  
HETATM   10  C   UNL     1      -9.236  11.550  65.262  1.00  0.00    -0.094 A  
HETATM   11  C   UNL     1     -11.362  11.103  64.216  1.00  0.00     0.058 A  
HETATM   12  C   UNL     1      -9.751  12.718  65.848  1.00  0.00    -0.203 A  
HETATM   13  C   UNL     1     -11.873  12.270  64.781  1.00  0.00    -0.364 A  
HETATM   14  H   UNL     1     -13.524  13.418  64.946  1.00  0.00     0.000 HD 
HETATM   15  C   UNL     1     -11.666  14.346  66.198  1.00  0.00    -0.384 C  
HETATM   16  C   UNL     1      -8.843  13.562  66.713  1.00  0.00    -0.146 C  
ENDROOT
BRANCH   3  17
HETATM   17  N   UNL     1      -9.508  18.148  67.187  1.00  0.00    -0.259 N  
HETATM   18  H   UNL     1      -8.996  17.700  66.427  1.00  0.00     0.000 HD 
BRANCH  17  19
HETATM   19  S   UNL     1      -9.541  19.817  67.407  1.00  0.00    -0.380 S  
HETATM   20  O   UNL     1     -10.186  20.159  68.646  1.00  0.00    -0.403 OA 
HETATM   21  O   UNL     1      -9.984  20.357  66.144  1.00  0.00    -0.370 OA 
BRANCH  19  22
HETATM   22  N   UNL     1      -7.865  20.111  67.575  1.00  0.00    -0.300 N  
BRANCH  22  23
HETATM   23  C   UNL     1      -7.095  19.913  66.306  1.00  0.00    -0.255 C  
HETATM   24  C   UNL     1      -6.749  18.459  66.018  1.00  0.00    -0.298 C  
ENDBRANCH  22  23
BRANCH  22  25
HETATM   25  C   UNL     1      -7.276  19.484  68.792  1.00  0.00    -0.356 C  
HETATM   26  C   UNL     1      -6.130  20.287  69.386  1.00  0.00    -0.374 C  
ENDBRANCH  22  25
ENDBRANCH  19  22
ENDBRANCH  17  19
ENDBRANCH   3  17
BRANCH   7  27
HETATM   27  C   UNL     1      -7.635  14.851  69.157  1.00  0.00    -0.160 C  
BRANCH  27  28
HETATM   28  C   UNL     1      -6.208  15.356  68.907  1.00  0.00    -0.098 C  
HETATM   29  C   UNL     1      -5.724  16.243  70.044  1.00  0.00    -0.191 C  
ENDBRANCH  27  28
ENDBRANCH   7  27
TORSDOF 7
ENDMDL
MODEL       72
REMARK 921   NORMALIZED FREE ENERGY PREDICTED BY IDOCK:   -4.73 KCAL/MOL
REMARK 922        TOTAL FREE ENERGY PREDICTED BY IDOCK:   -7.88 KCAL/MOL
REMARK 923 INTER-LIGAND FREE ENERGY PREDICTED BY IDOCK:   -6.88 KCAL/MOL
REMARK 924 INTRA-LIGAND FREE ENERGY PREDICTED BY IDOCK:   -1.00 KCAL/MOL
REMARK 927      BINDING AFFINITY PREDICTED BY RF-SCORE:    0.00 PKD
ROOT
HETATM    1  C   UNL     1     -11.508  10.486  71.013  1.00  0.00    -0.207 C  
HETATM    2  C   UNL     1     -11.748   9.066  71.549  1.00  0.00    -0.415 C  
HETATM    3  C   UNL     1     -10.815   8.049  70.886  1.00  0.00    -0.230 C  
HETATM    4  C   UNL     1     -12.526  12.826  70.984  1.00  0.00    -0.369 A  
HETATM    5  C   UNL     1     -10.995   8.170  69.364  1.00  0.00    -0.002 C  
HETATM    6  C   UNL     1     -12.501  15.414  69.891  1.00  0.00    -0.274 A  
HETATM    7  N   UNL     1     -10.640   9.514  68.874  1.00  0.00    -0.219 NA 
HETATM    8  O   UNL     1     -13.919  13.621  72.745  1.00  0.00    -0.725 OA 
HETATM    9  C   UNL     1     -11.514  10.553  69.464  1.00  0.00    -0.272 C  
HETATM   10  C   UNL     1     -11.819  14.378  69.255  1.00  0.00    -0.365 A  
HETATM   11  C   UNL     1     -13.208  15.163  71.062  1.00  0.00    -0.510 A  
HETATM   12  C   UNL     1     -11.841  13.076  69.782  1.00  0.00    -0.381 A  
HETATM   13  C   UNL     1     -13.220  13.878  71.599  1.00  0.00    -0.370 A  
HETATM   14  H   UNL     1     -13.927  12.744  73.111  1.00  0.00     0.000 HD 
HETATM   15  C   UNL     1     -12.574  11.439  71.579  1.00  0.00    -0.393 C  
HETATM   16  C   UNL     1     -11.081  11.984  69.063  1.00  0.00    -0.291 C  
ENDROOT
BRANCH   3  17
HETATM   17  N   UNL     1      -9.396   8.286  71.342  1.00  0.00    -0.159 N  
HETATM   18  H   UNL     1      -8.743   8.881  70.831  1.00  0.00     0.000 HD 
BRANCH  17  19
HETATM   19  S   UNL     1      -8.983   7.488  72.764  1.00  0.00    -0.163 S  
HETATM   20  O   UNL     1     -10.069   6.665  73.225  1.00  0.00    -0.179 OA 
HETATM   21  O   UNL     1      -8.383   8.496  73.605  1.00  0.00    -0.373 OA 
BRANCH  19  22
HETATM   22  N   UNL     1      -7.751   6.466  72.165  1.00  0.00    -0.098 N  
BRANCH  22  23
HETATM   23  C   UNL     1      -6.960   7.076  71.050  1.00  0.00    -0.065 C  
HETATM   24  C   UNL     1      -5.466   7.164  71.333  1.00  0.00    -0.031 C  
ENDBRANCH  22  23
BRANCH  22  25
HETATM   25  C   UNL     1      -8.205   5.064  71.942  1.00  0.00    -0.116 C  
HETATM   26  C   UNL     1      -8.709   4.813  70.531  1.00  0.00    -0.130 C  
ENDBRANCH  22  25
ENDBRANCH  19  22
ENDBRANCH  17  19
ENDBRANCH   3  17
BRANCH   7  27
HETATM   27  C   UNL     1     -10.520   9.526  67.410  1.00  0.00    -0.272 C  
BRANCH  27  28
HETATM   28  C   UNL     1      -9.148   9.937  66.861  1.00  0.00    -0.162 C  
HETATM   29  C   UNL     1      -8.111  10.036  67.970  1.00  0.00    -0.112 C  
ENDBRANCH  27  28
ENDBRANCH   7  27
TORSDOF 7
ENDMDL
MODEL       73
REMARK 921   NORMALIZED FREE ENERGY PREDICTED BY IDOCK:   -4.73 KCAL/MOL
REMARK 922        TOTAL FREE ENERGY PREDICTED BY IDOCK:   -7.87 KCAL/MOL
REMARK 923 INTER-LIGAND FREE ENERGY PREDICTED BY IDOCK:   -6.89 KCAL/MOL
REMARK 924 INTRA-LIGAND FREE ENERGY PREDICTED BY IDOCK:   -0.99 KCAL/MOL
REMARK 927      BINDING AFFINITY PREDICTED BY RF-SCORE:    0.00 PKD
ROOT
HETATM    1  C   UNL     1     -10.162   7.646  68.344  1.00  0.00    -0.226 C  
HETATM    2  C   UNL     1     -10.786   8.613  67.325  1.00  0.00    -0.209 C  
HETATM    3  C   UNL     1     -10.818  10.049  67.858  1.00  0.00    -0.271 C  
HETATM    4  C   UNL     1      -9.871   5.161  68.843  1.00  0.00    -0.241 A  
HETATM    5  C   UNL     1     -11.544  10.030  69.213  1.00  0.00     0.018 C  
HETATM    6  C   UNL     1      -9.104   3.182  70.684  1.00  0.00    -0.191 A  
HETATM    7  N   UNL     1     -10.848   9.184  70.198  1.00  0.00    -0.234 NA 
HETATM    8  O   UNL     1      -9.836   3.520  67.117  1.00  0.00    -0.336 OA 
HETATM    9  C   UNL     1     -10.791   7.773  69.756  1.00  0.00    -0.209 C  
HETATM   10  C   UNL     1      -9.328   4.489  71.113  1.00  0.00    -0.212 A  
HETATM   11  C   UNL     1      -9.275   2.852  69.343  1.00  0.00    -0.212 A  
HETATM   12  C   UNL     1      -9.731   5.482  70.205  1.00  0.00    -0.242 A  
HETATM   13  C   UNL     1      -9.658   3.837  68.435  1.00  0.00    -0.105 A  
HETATM   14  H   UNL     1     -10.097   4.191  66.498  1.00  0.00     0.000 HD 
HETATM   15  C   UNL     1     -10.305   6.201  67.839  1.00  0.00    -0.250 C  
HETATM   16  C   UNL     1      -9.956   6.888  70.713  1.00  0.00    -0.201 C  
ENDROOT
BRANCH   3  17
HETATM   17  N   UNL     1      -9.412  10.593  67.941  1.00  0.00    -0.157 N  
HETATM   18  H   UNL     1      -8.624  10.041  68.281  1.00  0.00     0.000 HD 
BRANCH  17  19
HETATM   19  S   UNL     1      -9.254  12.187  67.423  1.00  0.00    -0.189 S  
HETATM   20  O   UNL     1      -8.042  12.364  66.670  1.00  0.00    -0.055 OA 
HETATM   21  O   UNL     1      -9.554  12.992  68.583  1.00  0.00    -0.149 OA 
BRANCH  19  22
HETATM   22  N   UNL     1     -10.576  12.263  66.342  1.00  0.00    -0.237 N  
BRANCH  22  23
HETATM   23  C   UNL     1     -10.167  12.270  64.901  1.00  0.00    -0.281 C  
HETATM   24  C   UNL     1     -10.062  10.881  64.286  1.00  0.00    -0.413 C  
ENDBRANCH  22  23
BRANCH  22  25
HETATM   25  C   UNL     1     -11.596  13.278  66.729  1.00  0.00    -0.365 C  
HETATM   26  C   UNL     1     -12.641  13.520  65.653  1.00  0.00    -0.512 C  
ENDBRANCH  22  25
ENDBRANCH  19  22
ENDBRANCH  17  19
ENDBRANCH   3  17
BRANCH   7  27
HETATM   27  C   UNL     1     -11.369   9.416  71.552  1.00  0.00    -0.394 C  
BRANCH  27  28
HETATM   28  C   UNL     1     -12.843   9.832  71.633  1.00  0.00    -0.519 C  
HETATM   29  C   UNL     1     -13.705   8.720  72.210  1.00  0.00    -0.494 C  
ENDBRANCH  27  28
ENDBRANCH   7  27
TORSDOF 7
ENDMDL
MODEL       74
REMARK 921   NORMALIZED FREE ENERGY PREDICTED BY IDOCK:   -4.71 KCAL/MOL
REMARK 922        TOTAL FREE ENERGY PREDICTED BY IDOCK:   -7.86 KCAL/MOL
REMARK 923 INTER-LIGAND FREE ENERGY PREDICTED BY IDOCK:   -6.93 KCAL/MOL
REMARK 924 INTRA-LIGAND FREE ENERGY PREDICTED BY IDOCK:   -0.93 KCAL/MOL
REMARK 927      BINDING AFFINITY PREDICTED BY RF-SCORE:    0.00 PKD
ROOT
HETATM    1  C   UNL     1      -9.867   9.743  69.375  1.00  0.00    -0.217 C  
HETATM    2  C   UNL     1      -8.894   8.909  70.223  1.00  0.00    -0.191 C  
HETATM    3  C   UNL     1      -9.637   7.903  71.107  1.00  0.00    -0.158 C  
HETATM    4  C   UNL     1      -9.978  11.825  67.903  1.00  0.00    -0.187 A  
HETATM    5  C   UNL     1     -10.667   8.683  71.940  1.00  0.00    -0.344 C  
HETATM    6  C   UNL     1     -11.581  13.691  66.546  1.00  0.00    -0.392 A  
HETATM    7  N   UNL     1     -11.653   9.373  71.090  1.00  0.00    -0.316 NA 
HETATM    8  O   UNL     1      -8.087  12.622  66.695  1.00  0.00    -0.405 OA 
HETATM    9  C   UNL     1     -11.006  10.376  70.215  1.00  0.00    -0.284 C  
HETATM   10  C   UNL     1     -12.144  12.847  67.502  1.00  0.00    -0.251 A  
HETATM   11  C   UNL     1     -10.219  13.619  66.273  1.00  0.00    -0.296 A  
HETATM   12  C   UNL     1     -11.349  11.924  68.201  1.00  0.00    -0.350 A  
HETATM   13  C   UNL     1      -9.428  12.694  66.951  1.00  0.00    -0.229 A  
HETATM   14  H   UNL     1      -7.548  11.992  67.157  1.00  0.00     0.000 HD 
HETATM   15  C   UNL     1      -9.092  10.847  68.636  1.00  0.00    -0.175 C  
HETATM   16  C   UNL     1     -12.003  11.024  69.225  1.00  0.00    -0.410 C  
ENDROOT
BRANCH   3  17
HETATM   17  N   UNL     1     -10.255   6.828  70.245  1.00  0.00    -0.193 N  
HETATM   18  H   UNL     1     -11.200   6.898  69.866  1.00  0.00     0.000 HD 
BRANCH  17  19
HETATM   19  S   UNL     1      -9.254   5.505  69.965  1.00  0.00    -0.143 S  
HETATM   20  O   UNL     1      -9.994   4.274  70.046  1.00  0.00    -0.223 OA 
HETATM   21  O   UNL     1      -8.080   5.740  70.771  1.00  0.00    -0.113 OA 
BRANCH  19  22
HETATM   22  N   UNL     1      -8.863   5.791  68.326  1.00  0.00    -0.110 N  
BRANCH  22  23
HETATM   23  C   UNL     1      -9.844   5.193  67.366  1.00  0.00    -0.166 C  
HETATM   24  C   UNL     1     -10.866   6.187  66.833  1.00  0.00    -0.411 C  
ENDBRANCH  22  23
BRANCH  22  25
HETATM   25  C   UNL     1      -7.425   5.552  68.013  1.00  0.00    -0.074 C  
HETATM   26  C   UNL     1      -6.765   6.719  67.298  1.00  0.00    -0.067 C  
ENDBRANCH  22  25
ENDBRANCH  19  22
ENDBRANCH  17  19
ENDBRANCH   3  17
BRANCH   7  27
HETATM   27  C   UNL     1     -12.792   9.849  71.887  1.00  0.00    -0.429 C  
BRANCH  27  28
HETATM   28  C   UNL     1     -14.124   9.131  71.634  1.00  0.00    -0.287 C  
HETATM   29  C   UNL     1     -13.942   7.622  71.581  1.00  0.00    -0.510 C  
ENDBRANCH  27  28
ENDBRANCH   7  27
TORSDOF 7
ENDMDL
MODEL       75
REMARK 921   NORMALIZED FREE ENERGY PREDICTED BY IDOCK:   -4.71 KCAL/MOL
REMARK 922        TOTAL FREE ENERGY PREDICTED BY IDOCK:   -7.85 KCAL/MOL
REMARK 923 INTER-LIGAND FREE ENERGY PREDICTED BY IDOCK:   -7.05 KCAL/MOL
REMARK 924 INTRA-LIGAND FREE ENERGY PREDICTED BY IDOCK:   -0.81 KCAL/MOL
REMARK 927      BINDING AFFINITY PREDICTED BY RF-SCORE:    0.00 PKD
ROOT
HETATM    1  C   UNL     1      -8.858  12.299  67.301  1.00  0.00    -0.190 C  
HETATM    2  C   UNL     1      -8.154  13.649  67.097  1.00  0.00    -0.094 C  
HETATM    3  C   UNL     1      -9.150  14.813  67.117  1.00  0.00    -0.217 C  
HETATM    4  C   UNL     1      -8.476   9.783  67.122  1.00  0.00    -0.125 A  
HETATM    5  C   UNL     1     -10.234  14.520  66.067  1.00  0.00    -0.315 C  
HETATM    6  C   UNL     1      -9.594   7.205  67.115  1.00  0.00    -0.191 A  
HETATM    7  N   UNL     1     -10.965  13.276  66.365  1.00  0.00    -0.287 NA 
HETATM    8  O   UNL     1      -6.319   8.809  67.389  1.00  0.00    -0.055 OA 
HETATM    9  C   UNL     1     -10.066  12.101  66.348  1.00  0.00    -0.220 C  
HETATM   10  C   UNL     1     -10.411   8.324  66.961  1.00  0.00    -0.393 A  
HETATM   11  C   UNL     1      -8.219   7.364  67.258  1.00  0.00    -0.115 A  
HETATM   12  C   UNL     1      -9.860   9.616  66.943  1.00  0.00    -0.257 A  
HETATM   13  C   UNL     1      -7.670   8.644  67.258  1.00  0.00    -0.097 A  
HETATM   14  H   UNL     1      -5.944   9.682  67.390  1.00  0.00     0.000 HD 
HETATM   15  C   UNL     1      -7.849  11.155  67.106  1.00  0.00    -0.139 C  
HETATM   16  C   UNL     1     -10.785  10.801  66.781  1.00  0.00    -0.291 C  
ENDROOT
BRANCH   3  17
HETATM   17  N   UNL     1      -9.700  14.988  68.512  1.00  0.00    -0.211 N  
HETATM   18  H   UNL     1      -9.543  14.310  69.258  1.00  0.00     0.000 HD 
BRANCH  17  19
HETATM   19  S   UNL     1     -10.595  16.397  68.731  1.00  0.00    -0.333 S  
HETATM   20  O   UNL     1     -10.500  16.859  70.090  1.00  0.00    -0.014 OA 
HETATM   21  O   UNL     1     -11.868  16.139  68.103  1.00  0.00    -0.152 OA 
BRANCH  19  22
HETATM   22  N   UNL     1      -9.695  17.459  67.739  1.00  0.00    -0.262 N  
BRANCH  22  23
HETATM   23  C   UNL     1      -8.733  18.316  68.501  1.00  0.00    -0.308 C  
HETATM   24  C   UNL     1      -7.334  17.725  68.605  1.00  0.00    -0.269 C  
ENDBRANCH  22  23
BRANCH  22  25
HETATM   25  C   UNL     1     -10.529  18.167  66.726  1.00  0.00    -0.348 C  
HETATM   26  C   UNL     1     -10.651  19.659  66.986  1.00  0.00    -0.602 C  
ENDBRANCH  22  25
ENDBRANCH  19  22
ENDBRANCH  17  19
ENDBRANCH   3  17
BRANCH   7  27
HETATM   27  C   UNL     1     -12.180  13.171  65.544  1.00  0.00    -0.461 C  
BRANCH  27  28
HETATM   28  C   UNL     1     -11.957  13.185  64.026  1.00  0.00    -0.524 C  
HETATM   29  C   UNL     1     -12.361  11.862  63.392  1.00  0.00    -0.577 C  
ENDBRANCH  27  28
ENDBRANCH   7  27
TORSDOF 7
ENDMDL
MODEL       76
REMARK 921   NORMALIZED FREE ENERGY PREDICTED BY IDOCK:   -4.70 KCAL/MOL
REMARK 922        TOTAL FREE ENERGY PREDICTED BY IDOCK:   -7.83 KCAL/MOL
REMARK 923 INTER-LIGAND FREE ENERGY PREDICTED BY IDOCK:   -6.77 KCAL/MOL
REMARK 924 INTRA-LIGAND FREE ENERGY PREDICTED BY IDOCK:   -1.06 KCAL/MOL
REMARK 927      BINDING AFFINITY PREDICTED BY RF-SCORE:    0.00 PKD
ROOT
HETATM    1  C   UNL     1     -10.304   8.040  68.176  1.00  0.00    -0.250 C  
HETATM    2  C   UNL     1     -11.253   9.236  68.003  1.00  0.00     0.237 C  
HETATM    3  C   UNL     1     -10.863  10.401  68.919  1.00  0.00    -0.236 C  
HETATM    4  C   UNL     1     -10.060   5.566  67.601  1.00  0.00    -0.217 A  
HETATM    5  C   UNL     1     -10.805   9.865  70.359  1.00  0.00    -0.319 C  
HETATM    6  C   UNL     1      -8.678   3.156  68.019  1.00  0.00    -0.135 A  
HETATM    7  N   UNL     1      -9.798   8.800  70.508  1.00  0.00    -0.178 NA 
HETATM    8  O   UNL     1     -11.069   4.611  65.667  1.00  0.00    -0.826 OA 
HETATM    9  C   UNL     1     -10.118   7.630  69.660  1.00  0.00    -0.194 C  
HETATM   10  C   UNL     1      -8.519   4.218  68.907  1.00  0.00    -0.097 A  
HETATM   11  C   UNL     1      -9.534   3.283  66.931  1.00  0.00    -0.145 A  
HETATM   12  C   UNL     1      -9.220   5.421  68.719  1.00  0.00    -0.148 A  
HETATM   13  C   UNL     1     -10.219   4.480  66.729  1.00  0.00    -0.132 A  
HETATM   14  H   UNL     1     -11.536   5.427  65.529  1.00  0.00     0.000 HD 
HETATM   15  C   UNL     1     -10.830   6.842  67.368  1.00  0.00    -0.396 C  
HETATM   16  C   UNL     1      -9.011   6.549  69.704  1.00  0.00    -0.141 C  
ENDROOT
BRANCH   3  17
HETATM   17  N   UNL     1      -9.560  11.003  68.451  1.00  0.00    -0.174 N  
HETATM   18  H   UNL     1      -8.664  10.525  68.547  1.00  0.00     0.000 HD 
BRANCH  17  19
HETATM   19  S   UNL     1      -9.712  12.528  67.756  1.00  0.00    -0.208 S  
HETATM   20  O   UNL     1      -8.439  13.009  67.290  1.00  0.00    -0.188 OA 
HETATM   21  O   UNL     1     -10.519  13.287  68.681  1.00  0.00    -0.251 OA 
BRANCH  19  22
HETATM   22  N   UNL     1     -10.666  12.124  66.396  1.00  0.00    -0.248 N  
BRANCH  22  23
HETATM   23  C   UNL     1      -9.859  11.803  65.177  1.00  0.00    -0.235 C  
HETATM   24  C   UNL     1      -9.808  10.317  64.848  1.00  0.00    -0.404 C  
ENDBRANCH  22  23
BRANCH  22  25
HETATM   25  C   UNL     1     -11.814  13.051  66.185  1.00  0.00    -0.409 C  
HETATM   26  C   UNL     1     -12.733  12.620  65.054  1.00  0.00    -0.403 C  
ENDBRANCH  22  25
ENDBRANCH  19  22
ENDBRANCH  17  19
ENDBRANCH   3  17
BRANCH   7  27
HETATM   27  C   UNL     1      -9.538   8.517  71.926  1.00  0.00    -0.283 C  
BRANCH  27  28
HETATM   28  C   UNL     1     -10.745   8.026  72.736  1.00  0.00    -0.431 C  
HETATM   29  C   UNL     1     -10.421   6.749  73.497  1.00  0.00    -0.356 C  
ENDBRANCH  27  28
ENDBRANCH   7  27
TORSDOF 7
ENDMDL
MODEL       77
REMARK 921   NORMALIZED FREE ENERGY PREDICTED BY IDOCK:   -4.69 KCAL/MOL
REMARK 922        TOTAL FREE ENERGY PREDICTED BY IDOCK:   -7.83 KCAL/MOL
REMARK 923 INTER-LIGAND FREE ENERGY PREDICTED BY IDOCK:   -6.87 KCAL/MOL
REMARK 924 INTRA-LIGAND FREE ENERGY PREDICTED BY IDOCK:   -0.96 KCAL/MOL
REMARK 927      BINDING AFFINITY PREDICTED BY RF-SCORE:    0.00 PKD
ROOT
HETATM    1  C   UNL     1      -9.492  11.489  66.896  1.00  0.00    -0.194 C  
HETATM    2  C   UNL     1      -8.751  10.176  67.193  1.00  0.00    -0.131 C  
HETATM    3  C   UNL     1      -7.856  10.301  68.430  1.00  0.00    -0.102 C  
HETATM    4  C   UNL     1     -10.867  12.660  65.094  1.00  0.00    -0.321 A  
HETATM    5  C   UNL     1      -6.920  11.501  68.211  1.00  0.00    -0.073 C  
HETATM    6  C   UNL     1     -12.029  15.045  64.167  1.00  0.00    -0.221 A  
HETATM    7  N   UNL     1      -7.668  12.760  68.048  1.00  0.00    -0.124 NA 
HETATM    8  O   UNL     1     -12.177  11.450  63.515  1.00  0.00    -0.548 OA 
HETATM    9  C   UNL     1      -8.547  12.717  66.858  1.00  0.00    -0.137 C  
HETATM   10  C   UNL     1     -11.069  15.079  65.177  1.00  0.00    -0.408 A  
HETATM   11  C   UNL     1     -12.403  13.828  63.606  1.00  0.00    -0.256 A  
HETATM   12  C   UNL     1     -10.467  13.895  65.635  1.00  0.00    -0.320 A  
HETATM   13  C   UNL     1     -11.821  12.649  64.067  1.00  0.00    -0.431 A  
HETATM   14  H   UNL     1     -11.781  10.646  63.829  1.00  0.00     0.000 HD 
HETATM   15  C   UNL     1     -10.241  11.368  65.558  1.00  0.00    -0.312 C  
HETATM   16  C   UNL     1      -9.435  13.979  66.737  1.00  0.00    -0.292 C  
ENDROOT
BRANCH   3  17
HETATM   17  N   UNL     1      -8.713  10.429  69.666  1.00  0.00    -0.374 N  
HETATM   18  H   UNL     1      -9.070  11.324  70.003  1.00  0.00     0.000 HD 
BRANCH  17  19
HETATM   19  S   UNL     1      -9.029   8.969  70.443  1.00  0.00    -0.226 S  
HETATM   20  O   UNL     1      -8.700   9.050  71.841  1.00  0.00    -0.363 OA 
HETATM   21  O   UNL     1      -8.464   7.954  69.587  1.00  0.00    -0.129 OA 
BRANCH  19  22
HETATM   22  N   UNL     1     -10.731   8.934  70.292  1.00  0.00    -0.215 N  
BRANCH  22  23
HETATM   23  C   UNL     1     -11.375  10.270  70.495  1.00  0.00    -0.341 C  
HETATM   24  C   UNL     1     -12.205  10.738  69.307  1.00  0.00    -0.185 C  
ENDBRANCH  22  23
BRANCH  22  25
HETATM   25  C   UNL     1     -11.363   7.795  71.017  1.00  0.00    -0.271 C  
HETATM   26  C   UNL     1     -12.183   8.230  72.220  1.00  0.00    -0.428 C  
ENDBRANCH  22  25
ENDBRANCH  19  22
ENDBRANCH  17  19
ENDBRANCH   3  17
BRANCH   7  27
HETATM   27  C   UNL     1      -6.772  13.920  68.149  1.00  0.00    -0.125 C  
BRANCH  27  28
HETATM   28  C   UNL     1      -7.132  14.943  69.235  1.00  0.00    -0.160 C  
HETATM   29  C   UNL     1      -7.434  16.308  68.635  1.00  0.00    -0.185 C  
ENDBRANCH  27  28
ENDBRANCH   7  27
TORSDOF 7
ENDMDL
MODEL       78
REMARK 921   NORMALIZED FREE ENERGY PREDICTED BY IDOCK:   -4.64 KCAL/MOL
REMARK 922        TOTAL FREE ENERGY PREDICTED BY IDOCK:   -7.76 KCAL/MOL
REMARK 923 INTER-LIGAND FREE ENERGY PREDICTED BY IDOCK:   -7.11 KCAL/MOL
REMARK 924 INTRA-LIGAND FREE ENERGY PREDICTED BY IDOCK:   -0.65 KCAL/MOL
REMARK 927      BINDING AFFINITY PREDICTED BY RF-SCORE:    0.00 PKD
ROOT
HETATM    1  C   UNL     1     -10.065  10.537  68.322  1.00  0.00    -0.180 C  
HETATM    2  C   UNL     1      -9.486  11.949  68.141  1.00  0.00    -0.195 C  
HETATM    3  C   UNL     1      -9.727  12.479  66.724  1.00  0.00    -0.234 C  
HETATM    4  C   UNL     1     -10.034   8.538  69.907  1.00  0.00    -0.189 A  
HETATM    5  C   UNL     1      -9.157  11.449  65.735  1.00  0.00    -0.184 C  
HETATM    6  C   UNL     1     -10.691   5.841  70.342  1.00  0.00    -0.372 A  
HETATM    7  N   UNL     1      -9.821  10.140  65.862  1.00  0.00    -0.228 NA 
HETATM    8  O   UNL     1      -9.636   8.781  72.243  1.00  0.00    -0.301 OA 
HETATM    9  C   UNL     1      -9.618   9.557  67.207  1.00  0.00    -0.150 C  
HETATM   10  C   UNL     1     -10.712   6.369  69.052  1.00  0.00    -0.339 A  
HETATM   11  C   UNL     1     -10.329   6.647  71.415  1.00  0.00    -0.225 A  
HETATM   12  C   UNL     1     -10.367   7.710  68.820  1.00  0.00    -0.218 A  
HETATM   13  C   UNL     1     -10.001   7.983  71.194  1.00  0.00    -0.174 A  
HETATM   14  H   UNL     1      -9.413   9.692  72.092  1.00  0.00     0.000 HD 
HETATM   15  C   UNL     1      -9.654   9.983  69.697  1.00  0.00    -0.251 C  
HETATM   16  C   UNL     1     -10.411   8.242  67.405  1.00  0.00    -0.350 C  
ENDROOT
BRANCH   3  17
HETATM   17  N   UNL     1     -11.199  12.749  66.525  1.00  0.00    -0.293 N  
HETATM   18  H   UNL     1     -11.922  12.065  66.748  1.00  0.00     0.000 HD 
BRANCH  17  19
HETATM   19  S   UNL     1     -11.545  14.273  65.902  1.00  0.00    -0.366 S  
HETATM   20  O   UNL     1     -12.863  14.306  65.327  1.00  0.00    -0.630 OA 
HETATM   21  O   UNL     1     -10.376  14.647  65.143  1.00  0.00    -0.371 OA 
BRANCH  19  22
HETATM   22  N   UNL     1     -11.570  15.172  67.355  1.00  0.00    -0.294 N  
BRANCH  22  23
HETATM   23  C   UNL     1     -10.336  15.992  67.570  1.00  0.00    -0.287 C  
HETATM   24  C   UNL     1     -10.593  17.493  67.596  1.00  0.00    -0.355 C  
ENDBRANCH  22  23
BRANCH  22  25
HETATM   25  C   UNL     1     -12.031  14.379  68.530  1.00  0.00    -0.298 C  
HETATM   26  C   UNL     1     -11.888  15.121  69.849  1.00  0.00    -0.363 C  
ENDBRANCH  22  25
ENDBRANCH  19  22
ENDBRANCH  17  19
ENDBRANCH   3  17
BRANCH   7  27
HETATM   27  C   UNL     1      -9.491   9.270  64.725  1.00  0.00     0.094 C  
BRANCH  27  28
HETATM   28  C   UNL     1      -8.473   9.840  63.728  1.00  0.00    -0.186 C  
HETATM   29  C   UNL     1      -8.244   8.891  62.561  1.00  0.00    -0.178 C  
ENDBRANCH  27  28
ENDBRANCH   7  27
TORSDOF 7
ENDMDL
MODEL       79
REMARK 921   NORMALIZED FREE ENERGY PREDICTED BY IDOCK:   -4.64 KCAL/MOL
REMARK 922        TOTAL FREE ENERGY PREDICTED BY IDOCK:   -7.75 KCAL/MOL
REMARK 923 INTER-LIGAND FREE ENERGY PREDICTED BY IDOCK:   -6.94 KCAL/MOL
REMARK 924 INTRA-LIGAND FREE ENERGY PREDICTED BY IDOCK:   -0.81 KCAL/MOL
REMARK 927      BINDING AFFINITY PREDICTED BY RF-SCORE:    0.00 PKD
ROOT
HETATM    1  C   UNL     1     -11.455  10.970  69.966  1.00  0.00    -0.398 C  
HETATM    2  C   UNL     1     -11.478   9.467  69.646  1.00  0.00     0.011 C  
HETATM    3  C   UNL     1     -10.461   9.108  68.558  1.00  0.00    -0.204 C  
HETATM    4  C   UNL     1     -12.769  12.788  71.183  1.00  0.00    -0.355 A  
HETATM    5  C   UNL     1     -10.744  10.001  67.339  1.00  0.00    -0.274 C  
HETATM    6  C   UNL     1     -13.144  15.531  71.660  1.00  0.00    -0.561 A  
HETATM    7  N   UNL     1     -10.596  11.432  67.660  1.00  0.00    -0.193 NA 
HETATM    8  O   UNL     1     -14.147  12.307  73.065  1.00  0.00    -0.078 OA 
HETATM    9  C   UNL     1     -11.561  11.856  68.698  1.00  0.00    -0.310 C  
HETATM   10  C   UNL     1     -12.372  15.106  70.580  1.00  0.00    -0.420 A  
HETATM   11  C   UNL     1     -13.743  14.594  72.496  1.00  0.00    -0.572 A  
HETATM   12  C   UNL     1     -12.194  13.737  70.321  1.00  0.00    -0.429 A  
HETATM   13  C   UNL     1     -13.556  13.235  72.254  1.00  0.00    -0.605 A  
HETATM   14  H   UNL     1     -14.020  11.381  72.900  1.00  0.00     0.000 HD 
HETATM   15  C   UNL     1     -12.601  11.309  70.934  1.00  0.00    -0.467 C  
HETATM   16  C   UNL     1     -11.343  13.323  69.142  1.00  0.00    -0.336 C  
ENDROOT
BRANCH   3  17
HETATM   17  N   UNL     1      -9.060   9.262  69.100  1.00  0.00    -0.142 N  
HETATM   18  H   UNL     1      -8.653  10.168  69.334  1.00  0.00     0.000 HD 
BRANCH  17  19
HETATM   19  S   UNL     1      -8.227   7.811  69.285  1.00  0.00    -0.130 S  
HETATM   20  O   UNL     1      -8.730   6.811  68.382  1.00  0.00    -0.124 OA 
HETATM   21  O   UNL     1      -8.166   7.588  70.709  1.00  0.00    -0.107 OA 
BRANCH  19  22
HETATM   22  N   UNL     1      -6.684   8.302  68.737  1.00  0.00    -0.057 N  
BRANCH  22  23
HETATM   23  C   UNL     1      -6.254   7.620  67.475  1.00  0.00    -0.050 C  
HETATM   24  C   UNL     1      -5.743   8.574  66.405  1.00  0.00    -0.047 C  
ENDBRANCH  22  23
BRANCH  22  25
HETATM   25  C   UNL     1      -5.663   8.356  69.822  1.00  0.00    -0.026 C  
HETATM   26  C   UNL     1      -5.149   9.760  70.093  1.00  0.00    -0.032 C  
ENDBRANCH  22  25
ENDBRANCH  19  22
ENDBRANCH  17  19
ENDBRANCH   3  17
BRANCH   7  27
HETATM   27  C   UNL     1     -10.565  12.244  66.436  1.00  0.00    -0.242 C  
BRANCH  27  28
HETATM   28  C   UNL     1     -11.823  12.172  65.560  1.00  0.00    -0.350 C  
HETATM   29  C   UNL     1     -11.669  13.005  64.296  1.00  0.00    -0.444 C  
ENDBRANCH  27  28
ENDBRANCH   7  27
TORSDOF 7
ENDMDL
MODEL       80
REMARK 921   NORMALIZED FREE ENERGY PREDICTED BY IDOCK:   -4.61 KCAL/MOL
REMARK 922        TOTAL FREE ENERGY PREDICTED BY IDOCK:   -7.72 KCAL/MOL
REMARK 923 INTER-LIGAND FREE ENERGY PREDICTED BY IDOCK:   -6.86 KCAL/MOL
REMARK 924 INTRA-LIGAND FREE ENERGY PREDICTED BY IDOCK:   -0.86 KCAL/MOL
REMARK 927      BINDING AFFINITY PREDICTED BY RF-SCORE:    0.00 PKD
ROOT
HETATM    1  C   UNL     1     -10.353   9.644  68.256  1.00  0.00    -0.240 C  
HETATM    2  C   UNL     1     -11.320  10.679  67.660  1.00  0.00    -0.284 C  
HETATM    3  C   UNL     1     -11.758  11.709  68.707  1.00  0.00    -0.330 C  
HETATM    4  C   UNL     1      -9.267   7.388  67.764  1.00  0.00    -0.133 A  
HETATM    5  C   UNL     1     -12.340  10.941  69.905  1.00  0.00    -0.285 C  
HETATM    6  C   UNL     1      -7.787   5.204  68.730  1.00  0.00    -0.079 A  
HETATM    7  N   UNL     1     -11.344  10.046  70.521  1.00  0.00    -0.310 NA 
HETATM    8  O   UNL     1      -8.850   6.643  65.541  1.00  0.00    -0.319 OA 
HETATM    9  C   UNL     1     -10.883   9.011  69.568  1.00  0.00    -0.166 C  
HETATM   10  C   UNL     1      -8.375   6.101  69.620  1.00  0.00    -0.124 A  
HETATM   11  C   UNL     1      -7.946   5.381  67.360  1.00  0.00    -0.101 A  
HETATM   12  C   UNL     1      -9.133   7.186  69.149  1.00  0.00    -0.137 A  
HETATM   13  C   UNL     1      -8.683   6.465  66.886  1.00  0.00    -0.115 A  
HETATM   14  H   UNL     1      -9.352   7.381  65.218  1.00  0.00     0.000 HD 
HETATM   15  C   UNL     1     -10.076   8.541  67.221  1.00  0.00    -0.317 C  
HETATM   16  C   UNL     1      -9.746   8.138  70.151  1.00  0.00    -0.175 C  
ENDROOT
BRANCH   3  17
HETATM   17  N   UNL     1     -10.589  12.591  69.073  1.00  0.00    -0.419 N  
HETATM   18  H   UNL     1      -9.758  12.240  69.550  1.00  0.00     0.000 HD 
BRANCH  17  19
HETATM   19  S   UNL     1     -10.773  14.203  68.627  1.00  0.00    -0.258 S  
HETATM   20  O   UNL     1     -10.349  15.080  69.685  1.00  0.00    -0.232 OA 
HETATM   21  O   UNL     1     -12.093  14.289  68.051  1.00  0.00    -0.338 OA 
BRANCH  19  22
HETATM   22  N   UNL     1      -9.617  14.281  67.370  1.00  0.00    -0.210 N  
BRANCH  22  23
HETATM   23  C   UNL     1      -8.353  13.539  67.676  1.00  0.00    -0.179 C  
HETATM   24  C   UNL     1      -7.198  14.440  68.094  1.00  0.00    -0.129 C  
ENDBRANCH  22  23
BRANCH  22  25
HETATM   25  C   UNL     1      -9.443  15.652  66.813  1.00  0.00    -0.242 C  
HETATM   26  C   UNL     1     -10.459  15.997  65.737  1.00  0.00    -0.391 C  
ENDBRANCH  22  25
ENDBRANCH  19  22
ENDBRANCH  17  19
ENDBRANCH   3  17
BRANCH   7  27
HETATM   27  C   UNL     1     -11.809   9.561  71.827  1.00  0.00    -0.360 C  
BRANCH  27  28
HETATM   28  C   UNL     1     -13.331   9.498  72.007  1.00  0.00    -0.535 C  
HETATM   29  C   UNL     1     -13.855   8.081  71.828  1.00  0.00    -0.452 C  
ENDBRANCH  27  28
ENDBRANCH   7  27
TORSDOF 7
ENDMDL
MODEL       81
REMARK 921   NORMALIZED FREE ENERGY PREDICTED BY IDOCK:   -4.60 KCAL/MOL
REMARK 922        TOTAL FREE ENERGY PREDICTED BY IDOCK:   -7.69 KCAL/MOL
REMARK 923 INTER-LIGAND FREE ENERGY PREDICTED BY IDOCK:   -6.91 KCAL/MOL
REMARK 924 INTRA-LIGAND FREE ENERGY PREDICTED BY IDOCK:   -0.79 KCAL/MOL
REMARK 927      BINDING AFFINITY PREDICTED BY RF-SCORE:    0.00 PKD
ROOT
HETATM    1  C   UNL     1     -10.011  11.863  66.567  1.00  0.00    -0.225 C  
HETATM    2  C   UNL     1     -10.574  13.088  65.830  1.00  0.00    -0.288 C  
HETATM    3  C   UNL     1     -10.898  14.229  66.801  1.00  0.00    -0.298 C  
HETATM    4  C   UNL     1      -9.471   9.390  66.239  1.00  0.00    -0.273 A  
HETATM    5  C   UNL     1     -11.841  13.672  67.879  1.00  0.00    -0.366 C  
HETATM    6  C   UNL     1      -8.773   6.936  67.414  1.00  0.00    -0.119 A  
HETATM    7  N   UNL     1     -11.219  12.576  68.642  1.00  0.00    -0.258 NA 
HETATM    8  O   UNL     1      -8.906   8.491  64.107  1.00  0.00    -0.411 OA 
HETATM    9  C   UNL     1     -10.890  11.427  67.768  1.00  0.00    -0.231 C  
HETATM   10  C   UNL     1      -9.248   7.981  68.204  1.00  0.00    -0.134 A  
HETATM   11  C   UNL     1      -8.658   7.102  66.038  1.00  0.00    -0.158 A  
HETATM   12  C   UNL     1      -9.619   9.206  67.625  1.00  0.00    -0.181 A  
HETATM   13  C   UNL     1      -9.008   8.321  65.460  1.00  0.00    -0.064 A  
HETATM   14  H   UNL     1      -9.144   9.322  63.713  1.00  0.00     0.000 HD 
HETATM   15  C   UNL     1      -9.861  10.691  65.582  1.00  0.00    -0.307 C  
HETATM   16  C   UNL     1     -10.122  10.315  68.521  1.00  0.00    -0.181 C  
ENDROOT
BRANCH   3  17
HETATM   17  N   UNL     1      -9.618  14.798  67.362  1.00  0.00    -0.208 N  
HETATM   18  H   UNL     1      -8.705  14.368  67.206  1.00  0.00     0.000 HD 
BRANCH  17  19
HETATM   19  S   UNL     1      -9.822  16.203  68.265  1.00  0.00    -0.229 S  
HETATM   20  O   UNL     1      -9.970  15.898  69.663  1.00  0.00    -0.265 OA 
HETATM   21  O   UNL     1     -10.809  16.975  67.548  1.00  0.00    -0.305 OA 
BRANCH  19  22
HETATM   22  N   UNL     1      -8.287  16.915  68.030  1.00  0.00    -0.199 N  
BRANCH  22  23
HETATM   23  C   UNL     1      -7.693  16.621  66.687  1.00  0.00    -0.281 C  
HETATM   24  C   UNL     1      -6.699  17.671  66.211  1.00  0.00    -0.317 C  
ENDBRANCH  22  23
BRANCH  22  25
HETATM   25  C   UNL     1      -7.372  16.741  69.194  1.00  0.00    -0.213 C  
HETATM   26  C   UNL     1      -6.491  15.507  69.085  1.00  0.00    -0.128 C  
ENDBRANCH  22  25
ENDBRANCH  19  22
ENDBRANCH  17  19
ENDBRANCH   3  17
BRANCH   7  27
HETATM   27  C   UNL     1     -11.997  12.267  69.849  1.00  0.00    -0.306 C  
BRANCH  27  28
HETATM   28  C   UNL     1     -12.315  13.463  70.757  1.00  0.00    -0.433 C  
HETATM   29  C   UNL     1     -13.213  13.059  71.916  1.00  0.00    -0.527 C  
ENDBRANCH  27  28
ENDBRANCH   7  27
TORSDOF 7
ENDMDL
MODEL       82
REMARK 921   NORMALIZED FREE ENERGY PREDICTED BY IDOCK:   -4.59 KCAL/MOL
REMARK 922        TOTAL FREE ENERGY PREDICTED BY IDOCK:   -7.69 KCAL/MOL
REMARK 923 INTER-LIGAND FREE ENERGY PREDICTED BY IDOCK:   -6.82 KCAL/MOL
REMARK 924 INTRA-LIGAND FREE ENERGY PREDICTED BY IDOCK:   -0.87 KCAL/MOL
REMARK 927      BINDING AFFINITY PREDICTED BY RF-SCORE:    0.00 PKD
ROOT
HETATM    1  C   UNL     1      -9.582  10.045  64.841  1.00  0.00    -0.375 C  
HETATM    2  C   UNL     1      -8.725   9.158  63.925  1.00  0.00    -0.154 C  
HETATM    3  C   UNL     1      -7.940   8.114  64.726  1.00  0.00    -0.147 C  
HETATM    4  C   UNL     1     -10.946  12.202  64.853  1.00  0.00    -0.355 A  
HETATM    5  C   UNL     1      -7.127   8.859  65.798  1.00  0.00    -0.084 C  
HETATM    6  C   UNL     1     -12.294  14.151  66.361  1.00  0.00    -0.431 A  
HETATM    7  N   UNL     1      -7.996   9.602  66.728  1.00  0.00    -0.105 NA 
HETATM    8  O   UNL     1     -11.998  13.043  62.889  1.00  0.00    -0.778 OA 
HETATM    9  C   UNL     1      -8.778  10.643  66.024  1.00  0.00    -0.177 C  
HETATM   10  C   UNL     1     -11.418  13.264  66.985  1.00  0.00    -0.378 A  
HETATM   11  C   UNL     1     -12.490  14.081  64.986  1.00  0.00    -0.446 A  
HETATM   12  C   UNL     1     -10.724  12.298  66.237  1.00  0.00    -0.293 A  
HETATM   13  C   UNL     1     -11.817  13.114  64.242  1.00  0.00    -0.406 A  
HETATM   14  H   UNL     1     -11.540  12.384  62.382  1.00  0.00     0.000 HD 
HETATM   15  C   UNL     1     -10.216  11.178  64.017  1.00  0.00    -0.419 C  
HETATM   16  C   UNL     1      -9.789  11.352  66.957  1.00  0.00    -0.214 C  
ENDROOT
BRANCH   3  17
HETATM   17  N   UNL     1      -8.891   7.092  65.299  1.00  0.00    -0.372 N  
HETATM   18  H   UNL     1      -9.831   7.328  65.618  1.00  0.00     0.000 HD 
BRANCH  17  19
HETATM   19  S   UNL     1      -8.269   5.529  65.368  1.00  0.00    -0.139 S  
HETATM   20  O   UNL     1      -6.964   5.522  65.972  1.00  0.00    -0.063 OA 
HETATM   21  O   UNL     1      -8.504   4.970  64.058  1.00  0.00    -0.132 OA 
BRANCH  19  22
HETATM   22  N   UNL     1      -9.376   4.835  66.470  1.00  0.00    -0.135 N  
BRANCH  22  23
HETATM   23  C   UNL     1      -9.489   3.347  66.344  1.00  0.00    -0.117 C  
HETATM   24  C   UNL     1      -9.122   2.593  67.614  1.00  0.00    -0.223 C  
ENDBRANCH  22  23
BRANCH  22  25
HETATM   25  C   UNL     1     -10.666   5.576  66.555  1.00  0.00    -0.240 C  
HETATM   26  C   UNL     1     -10.991   6.057  67.960  1.00  0.00    -0.340 C  
ENDBRANCH  22  25
ENDBRANCH  19  22
ENDBRANCH  17  19
ENDBRANCH   3  17
BRANCH   7  27
HETATM   27  C   UNL     1      -7.243  10.047  67.908  1.00  0.00    -0.087 C  
BRANCH  27  28
HETATM   28  C   UNL     1      -7.269   9.093  69.109  1.00  0.00    -0.067 C  
HETATM   29  C   UNL     1      -8.692   8.693  69.471  1.00  0.00    -0.139 C  
ENDBRANCH  27  28
ENDBRANCH   7  27
TORSDOF 7
ENDMDL
MODEL       83
REMARK 921   NORMALIZED FREE ENERGY PREDICTED BY IDOCK:   -4.59 KCAL/MOL
REMARK 922        TOTAL FREE ENERGY PREDICTED BY IDOCK:   -7.69 KCAL/MOL
REMARK 923 INTER-LIGAND FREE ENERGY PREDICTED BY IDOCK:   -6.83 KCAL/MOL
REMARK 924 INTRA-LIGAND FREE ENERGY PREDICTED BY IDOCK:   -0.86 KCAL/MOL
REMARK 927      BINDING AFFINITY PREDICTED BY RF-SCORE:    0.00 PKD
ROOT
HETATM    1  C   UNL     1      -9.646  10.990  68.681  1.00  0.00    -0.198 C  
HETATM    2  C   UNL     1      -8.738  10.238  69.666  1.00  0.00    -0.125 C  
HETATM    3  C   UNL     1      -9.459   9.043  70.298  1.00  0.00    -0.200 C  
HETATM    4  C   UNL     1      -9.816  13.166  67.359  1.00  0.00    -0.226 A  
HETATM    5  C   UNL     1     -10.759   9.563  70.933  1.00  0.00    -0.333 C  
HETATM    6  C   UNL     1     -11.406  14.884  65.806  1.00  0.00    -0.314 A  
HETATM    7  N   UNL     1     -11.654  10.171  69.933  1.00  0.00    -0.245 NA 
HETATM    8  O   UNL     1      -7.886  14.369  66.651  1.00  0.00    -0.254 OA 
HETATM    9  C   UNL     1     -11.027  11.347  69.289  1.00  0.00    -0.229 C  
HETATM   10  C   UNL     1     -11.997  13.870  66.558  1.00  0.00    -0.470 A  
HETATM   11  C   UNL     1     -10.027  15.056  65.835  1.00  0.00    -0.353 A  
HETATM   12  C   UNL     1     -11.214  13.018  67.353  1.00  0.00    -0.325 A  
HETATM   13  C   UNL     1      -9.242  14.203  66.609  1.00  0.00    -0.252 A  
HETATM   14  H   UNL     1      -7.351  13.788  67.178  1.00  0.00     0.000 HD 
HETATM   15  C   UNL     1      -8.942  12.271  68.203  1.00  0.00    -0.192 C  
HETATM   16  C   UNL     1     -11.897  11.927  68.147  1.00  0.00    -0.338 C  
ENDROOT
BRANCH   3  17
HETATM   17  N   UNL     1      -9.688   7.977  69.254  1.00  0.00    -0.165 N  
HETATM   18  H   UNL     1     -10.444   8.025  68.570  1.00  0.00     0.000 HD 
BRANCH  17  19
HETATM   19  S   UNL     1      -8.589   6.703  69.313  1.00  0.00    -0.131 S  
HETATM   20  O   UNL     1      -7.328   7.138  69.851  1.00  0.00    -0.080 OA 
HETATM   21  O   UNL     1      -8.685   6.060  68.024  1.00  0.00    -0.114 OA 
BRANCH  19  22
HETATM   22  N   UNL     1      -9.362   5.721  70.479  1.00  0.00    -0.159 N  
BRANCH  22  23
HETATM   23  C   UNL     1     -10.854   5.839  70.464  1.00  0.00    -0.278 C  
HETATM   24  C   UNL     1     -11.462   6.116  71.832  1.00  0.00    -0.355 C  
ENDBRANCH  22  23
BRANCH  22  25
HETATM   25  C   UNL     1      -8.721   5.788  71.823  1.00  0.00    -0.136 C  
HETATM   26  C   UNL     1      -7.880   4.565  72.149  1.00  0.00    -0.095 C  
ENDBRANCH  22  25
ENDBRANCH  19  22
ENDBRANCH  17  19
ENDBRANCH   3  17
BRANCH   7  27
HETATM   27  C   UNL     1     -12.998  10.380  70.488  1.00  0.00    -0.212 C  
BRANCH  27  28
HETATM   28  C   UNL     1     -13.046  10.908  71.928  1.00  0.00    -0.537 C  
HETATM   29  C   UNL     1     -13.313  12.406  71.962  1.00  0.00    -0.511 C  
ENDBRANCH  27  28
ENDBRANCH   7  27
TORSDOF 7
ENDMDL
MODEL       84
REMARK 921   NORMALIZED FREE ENERGY PREDICTED BY IDOCK:   -4.59 KCAL/MOL
REMARK 922        TOTAL FREE ENERGY PREDICTED BY IDOCK:   -7.68 KCAL/MOL
REMARK 923 INTER-LIGAND FREE ENERGY PREDICTED BY IDOCK:   -7.58 KCAL/MOL
REMARK 924 INTRA-LIGAND FREE ENERGY PREDICTED BY IDOCK:   -0.10 KCAL/MOL
REMARK 927      BINDING AFFINITY PREDICTED BY RF-SCORE:    0.00 PKD
ROOT
HETATM    1  C   UNL     1      -9.343  15.321  66.368  1.00  0.00    -0.328 C  
HETATM    2  C   UNL     1      -9.285  16.643  67.148  1.00  0.00    -0.233 C  
HETATM    3  C   UNL     1      -8.059  16.702  68.065  1.00  0.00    -0.180 C  
HETATM    4  C   UNL     1     -10.897  13.902  64.925  1.00  0.00    -0.413 A  
HETATM    5  C   UNL     1      -8.088  15.457  68.966  1.00  0.00    -0.213 C  
HETATM    6  C   UNL     1     -11.387  11.429  63.684  1.00  0.00    -0.299 A  
HETATM    7  N   UNL     1      -8.023  14.211  68.183  1.00  0.00    -0.131 NA 
HETATM    8  O   UNL     1     -12.636  14.866  63.613  1.00  0.00    -1.006 OA 
HETATM    9  C   UNL     1      -9.188  14.077  67.281  1.00  0.00    -0.230 C  
HETATM   10  C   UNL     1     -10.402  11.539  64.664  1.00  0.00    -0.349 A  
HETATM   11  C   UNL     1     -12.140  12.544  63.329  1.00  0.00    -0.525 A  
HETATM   12  C   UNL     1     -10.162  12.765  65.305  1.00  0.00    -0.296 A  
HETATM   13  C   UNL     1     -11.895  13.767  63.949  1.00  0.00    -0.327 A  
HETATM   14  H   UNL     1     -12.469  15.699  64.036  1.00  0.00     0.000 HD 
HETATM   15  C   UNL     1     -10.669  15.235  65.594  1.00  0.00    -0.376 C  
HETATM   16  C   UNL     1      -9.079  12.839  66.358  1.00  0.00    -0.096 C  
ENDROOT
BRANCH   3  17
HETATM   17  N   UNL     1      -6.805  16.810  67.233  1.00  0.00    -0.154 N  
HETATM   18  H   UNL     1      -6.159  16.031  67.102  1.00  0.00     0.000 HD 
BRANCH  17  19
HETATM   19  S   UNL     1      -6.562  18.324  66.539  1.00  0.00    -0.218 S  
HETATM   20  O   UNL     1      -7.304  18.452  65.313  1.00  0.00    -0.468 OA 
HETATM   21  O   UNL     1      -5.136  18.540  66.590  1.00  0.00    -0.127 OA 
BRANCH  19  22
HETATM   22  N   UNL     1      -7.311  19.300  67.725  1.00  0.00    -0.249 N  
BRANCH  22  23
HETATM   23  C   UNL     1      -7.958  20.529  67.165  1.00  0.00    -0.311 C  
HETATM   24  C   UNL     1      -9.252  20.253  66.412  1.00  0.00    -0.348 C  
ENDBRANCH  22  23
BRANCH  22  25
HETATM   25  C   UNL     1      -6.466  19.509  68.935  1.00  0.00    -0.291 C  
HETATM   26  C   UNL     1      -5.903  20.918  69.038  1.00  0.00    -0.330 C  
ENDBRANCH  22  25
ENDBRANCH  19  22
ENDBRANCH  17  19
ENDBRANCH   3  17
BRANCH   7  27
HETATM   27  C   UNL     1      -7.742  13.059  69.051  1.00  0.00     0.195 C  
BRANCH  27  28
HETATM   28  C   UNL     1      -6.263  12.676  69.188  1.00  0.00    -0.098 C  
HETATM   29  C   UNL     1      -5.671  13.196  70.489  1.00  0.00    -0.176 C  
ENDBRANCH  27  28
ENDBRANCH   7  27
TORSDOF 7
ENDMDL
MODEL       85
REMARK 921   NORMALIZED FREE ENERGY PREDICTED BY IDOCK:   -4.58 KCAL/MOL
REMARK 922        TOTAL FREE ENERGY PREDICTED BY IDOCK:   -7.67 KCAL/MOL
REMARK 923 INTER-LIGAND FREE ENERGY PREDICTED BY IDOCK:   -6.77 KCAL/MOL
REMARK 924 INTRA-LIGAND FREE ENERGY PREDICTED BY IDOCK:   -0.90 KCAL/MOL
REMARK 927      BINDING AFFINITY PREDICTED BY RF-SCORE:    0.00 PKD
ROOT
HETATM    1  C   UNL     1     -10.754  10.552  67.352  1.00  0.00    -0.334 C  
HETATM    2  C   UNL     1     -10.733   9.017  67.409  1.00  0.00    -0.231 C  
HETATM    3  C   UNL     1      -9.948   8.509  68.622  1.00  0.00    -0.184 C  
HETATM    4  C   UNL     1     -11.325  12.501  65.806  1.00  0.00    -0.373 A  
HETATM    5  C   UNL     1      -8.548   9.142  68.572  1.00  0.00    -0.129 C  
HETATM    6  C   UNL     1     -11.181  15.263  65.314  1.00  0.00    -0.338 A  
HETATM    7  N   UNL     1      -8.607  10.613  68.639  1.00  0.00    -0.136 NA 
HETATM    8  O   UNL     1     -12.969  12.317  64.093  1.00  0.00    -0.721 OA 
HETATM    9  C   UNL     1      -9.342  11.178  67.485  1.00  0.00    -0.168 C  
HETATM   10  C   UNL     1     -10.370  14.681  66.287  1.00  0.00    -0.301 A  
HETATM   11  C   UNL     1     -12.054  14.473  64.575  1.00  0.00    -0.501 A  
HETATM   12  C   UNL     1     -10.419  13.298  66.527  1.00  0.00    -0.282 A  
HETATM   13  C   UNL     1     -12.119  13.103  64.820  1.00  0.00    -0.409 A  
HETATM   14  H   UNL     1     -13.014  11.383  64.260  1.00  0.00     0.000 HD 
HETATM   15  C   UNL     1     -11.404  11.011  66.035  1.00  0.00     0.197 C  
HETATM   16  C   UNL     1      -9.526  12.710  67.597  1.00  0.00    -0.189 C  
ENDROOT
BRANCH   3  17
HETATM   17  N   UNL     1     -10.704   8.829  69.888  1.00  0.00    -0.225 N  
HETATM   18  H   UNL     1     -10.747   9.768  70.285  1.00  0.00     0.000 HD 
BRANCH  17  19
HETATM   19  S   UNL     1     -11.472   7.506  70.590  1.00  0.00    -0.238 S  
HETATM   20  O   UNL     1     -11.537   6.403  69.669  1.00  0.00    -0.417 OA 
HETATM   21  O   UNL     1     -12.656   8.043  71.217  1.00  0.00    -0.305 OA 
BRANCH  19  22
HETATM   22  N   UNL     1     -10.328   7.128  71.802  1.00  0.00    -0.197 N  
BRANCH  22  23
HETATM   23  C   UNL     1      -9.654   8.333  72.382  1.00  0.00    -0.294 C  
HETATM   24  C   UNL     1      -8.726   8.017  73.547  1.00  0.00    -0.330 C  
ENDBRANCH  22  23
BRANCH  22  25
HETATM   25  C   UNL     1      -9.428   5.999  71.432  1.00  0.00    -0.156 C  
HETATM   26  C   UNL     1      -9.815   4.683  72.086  1.00  0.00    -0.232 C  
ENDBRANCH  22  25
ENDBRANCH  19  22
ENDBRANCH  17  19
ENDBRANCH   3  17
BRANCH   7  27
HETATM   27  C   UNL     1      -7.277  11.181  68.899  1.00  0.00    -0.106 C  
BRANCH  27  28
HETATM   28  C   UNL     1      -6.138  10.625  68.034  1.00  0.00    -0.046 C  
HETATM   29  C   UNL     1      -5.802  11.565  66.886  1.00  0.00    -0.132 C  
ENDBRANCH  27  28
ENDBRANCH   7  27
TORSDOF 7
ENDMDL
MODEL       86
REMARK 921   NORMALIZED FREE ENERGY PREDICTED BY IDOCK:   -4.55 KCAL/MOL
REMARK 922        TOTAL FREE ENERGY PREDICTED BY IDOCK:   -7.62 KCAL/MOL
REMARK 923 INTER-LIGAND FREE ENERGY PREDICTED BY IDOCK:   -6.73 KCAL/MOL
REMARK 924 INTRA-LIGAND FREE ENERGY PREDICTED BY IDOCK:   -0.89 KCAL/MOL
REMARK 927      BINDING AFFINITY PREDICTED BY RF-SCORE:    0.00 PKD
ROOT
HETATM    1  C   UNL     1      -9.580   8.593  69.966  1.00  0.00    -0.175 C  
HETATM    2  C   UNL     1      -9.168  10.064  69.800  1.00  0.00    -0.227 C  
HETATM    3  C   UNL     1      -8.724  10.366  68.365  1.00  0.00    -0.129 C  
HETATM    4  C   UNL     1     -10.105   6.838  71.742  1.00  0.00    -0.195 A  
HETATM    5  C   UNL     1      -7.612   9.371  67.999  1.00  0.00    -0.083 C  
HETATM    6  C   UNL     1     -10.553   4.132  72.348  1.00  0.00    -0.116 A  
HETATM    7  N   UNL     1      -8.082   7.976  68.056  1.00  0.00    -0.127 NA 
HETATM    8  O   UNL     1     -10.973   7.425  73.882  1.00  0.00    -0.536 OA 
HETATM    9  C   UNL     1      -8.515   7.605  69.422  1.00  0.00    -0.132 C  
HETATM   10  C   UNL     1      -9.986   4.492  71.127  1.00  0.00    -0.257 A  
HETATM   11  C   UNL     1     -10.884   5.113  73.276  1.00  0.00    -0.352 A  
HETATM   12  C   UNL     1      -9.739   5.841  70.821  1.00  0.00    -0.220 A  
HETATM   13  C   UNL     1     -10.657   6.454  72.972  1.00  0.00    -0.242 A  
HETATM   14  H   UNL     1     -10.818   8.339  73.675  1.00  0.00     0.000 HD 
HETATM   15  C   UNL     1      -9.853   8.297  71.450  1.00  0.00    -0.240 C  
HETATM   16  C   UNL     1      -9.130   6.187  69.482  1.00  0.00    -0.140 C  
ENDROOT
BRANCH   3  17
HETATM   17  N   UNL     1      -9.915  10.300  67.440  1.00  0.00    -0.182 N  
HETATM   18  H   UNL     1     -10.134   9.477  66.877  1.00  0.00     0.000 HD 
BRANCH  17  19
HETATM   19  S   UNL     1     -10.852  11.698  67.415  1.00  0.00    -0.266 S  
HETATM   20  O   UNL     1     -10.146  12.799  68.013  1.00  0.00    -0.217 OA 
HETATM   21  O   UNL     1     -12.156  11.289  67.880  1.00  0.00    -0.634 OA 
BRANCH  19  22
HETATM   22  N   UNL     1     -10.924  11.958  65.728  1.00  0.00    -0.302 N  
BRANCH  22  23
HETATM   23  C   UNL     1     -12.268  12.414  65.251  1.00  0.00    -0.353 C  
HETATM   24  C   UNL     1     -12.569  13.873  65.565  1.00  0.00    -0.560 C  
ENDBRANCH  22  23
BRANCH  22  25
HETATM   25  C   UNL     1     -10.295  10.863  64.936  1.00  0.00    -0.304 C  
HETATM   26  C   UNL     1     -10.322  11.115  63.437  1.00  0.00    -0.419 C  
ENDBRANCH  22  25
ENDBRANCH  19  22
ENDBRANCH  17  19
ENDBRANCH   3  17
BRANCH   7  27
HETATM   27  C   UNL     1      -7.119   7.069  67.416  1.00  0.00    -0.088 C  
BRANCH  27  28
HETATM   28  C   UNL     1      -7.439   6.677  65.967  1.00  0.00    -0.081 C  
HETATM   29  C   UNL     1      -8.782   5.970  65.866  1.00  0.00    -0.157 C  
ENDBRANCH  27  28
ENDBRANCH   7  27
TORSDOF 7
ENDMDL
MODEL       87
REMARK 921   NORMALIZED FREE ENERGY PREDICTED BY IDOCK:   -4.54 KCAL/MOL
REMARK 922        TOTAL FREE ENERGY PREDICTED BY IDOCK:   -7.61 KCAL/MOL
REMARK 923 INTER-LIGAND FREE ENERGY PREDICTED BY IDOCK:   -6.53 KCAL/MOL
REMARK 924 INTRA-LIGAND FREE ENERGY PREDICTED BY IDOCK:   -1.08 KCAL/MOL
REMARK 927      BINDING AFFINITY PREDICTED BY RF-SCORE:    0.00 PKD
ROOT
HETATM    1  C   UNL     1      -9.059  13.998  66.968  1.00  0.00    -0.256 C  
HETATM    2  C   UNL     1      -8.706  12.722  67.748  1.00  0.00    -0.184 C  
HETATM    3  C   UNL     1      -9.206  11.465  67.028  1.00  0.00    -0.169 C  
HETATM    4  C   UNL     1      -9.147  16.537  67.198  1.00  0.00    -0.227 A  
HETATM    5  C   UNL     1     -10.714  11.637  66.779  1.00  0.00    -0.260 C  
HETATM    6  C   UNL     1     -10.000  18.991  66.128  1.00  0.00    -0.413 A  
HETATM    7  N   UNL     1     -11.001  12.805  65.929  1.00  0.00    -0.270 NA 
HETATM    8  O   UNL     1      -7.709  17.724  68.680  1.00  0.00    -0.275 OA 
HETATM    9  C   UNL     1     -10.556  14.064  66.569  1.00  0.00    -0.279 C  
HETATM   10  C   UNL     1     -10.535  17.795  65.653  1.00  0.00    -0.132 A  
HETATM   11  C   UNL     1      -9.052  18.971  67.146  1.00  0.00    -0.311 A  
HETATM   12  C   UNL     1     -10.130  16.564  66.194  1.00  0.00    -0.365 A  
HETATM   13  C   UNL     1      -8.634  17.752  67.674  1.00  0.00    -0.230 A  
HETATM   14  H   UNL     1      -7.423  16.893  69.041  1.00  0.00     0.000 HD 
HETATM   15  C   UNL     1      -8.689  15.234  67.805  1.00  0.00    -0.168 C  
HETATM   16  C   UNL     1     -10.732  15.291  65.642  1.00  0.00    -0.376 C  
ENDROOT
BRANCH   3  17
HETATM   17  N   UNL     1      -8.412  11.253  65.763  1.00  0.00    -0.351 N  
HETATM   18  H   UNL     1      -8.645  11.708  64.879  1.00  0.00     0.000 HD 
BRANCH  17  19
HETATM   19  S   UNL     1      -7.108  10.201  65.932  1.00  0.00    -0.127 S  
HETATM   20  O   UNL     1      -7.228   9.425  67.137  1.00  0.00    -0.085 OA 
HETATM   21  O   UNL     1      -5.938  11.000  65.656  1.00  0.00    -0.111 OA 
BRANCH  19  22
HETATM   22  N   UNL     1      -7.401   9.174  64.598  1.00  0.00    -0.097 N  
BRANCH  22  23
HETATM   23  C   UNL     1      -6.164   8.823  63.832  1.00  0.00    -0.072 C  
HETATM   24  C   UNL     1      -5.747   7.365  63.972  1.00  0.00    -0.037 C  
ENDBRANCH  22  23
BRANCH  22  25
HETATM   25  C   UNL     1      -8.572   9.594  63.777  1.00  0.00    -0.208 C  
HETATM   26  C   UNL     1      -8.198   9.990  62.358  1.00  0.00    -0.160 C  
ENDBRANCH  22  25
ENDBRANCH  19  22
ENDBRANCH  17  19
ENDBRANCH   3  17
BRANCH   7  27
HETATM   27  C   UNL     1     -12.390  12.780  65.451  1.00  0.00    -0.470 C  
BRANCH  27  28
HETATM   28  C   UNL     1     -12.583  12.323  64.000  1.00  0.00    -0.521 C  
HETATM   29  C   UNL     1     -11.279  12.383  63.219  1.00  0.00    -0.377 C  
ENDBRANCH  27  28
ENDBRANCH   7  27
TORSDOF 7
ENDMDL
MODEL       88
REMARK 921   NORMALIZED FREE ENERGY PREDICTED BY IDOCK:   -4.52 KCAL/MOL
REMARK 922        TOTAL FREE ENERGY PREDICTED BY IDOCK:   -7.59 KCAL/MOL
REMARK 923 INTER-LIGAND FREE ENERGY PREDICTED BY IDOCK:   -6.99 KCAL/MOL
REMARK 924 INTRA-LIGAND FREE ENERGY PREDICTED BY IDOCK:   -0.60 KCAL/MOL
REMARK 927      BINDING AFFINITY PREDICTED BY RF-SCORE:    0.00 PKD
ROOT
HETATM    1  C   UNL     1     -10.686  10.611  68.287  1.00  0.00    -0.260 C  
HETATM    2  C   UNL     1     -11.161  10.153  69.675  1.00  0.00    -0.310 C  
HETATM    3  C   UNL     1     -10.382   8.926  70.160  1.00  0.00    -0.206 C  
HETATM    4  C   UNL     1     -11.322  12.139  66.345  1.00  0.00    -0.411 A  
HETATM    5  C   UNL     1     -10.501   7.838  69.079  1.00  0.00    -0.205 C  
HETATM    6  C   UNL     1     -10.861  12.917  63.685  1.00  0.00    -0.270 A  
HETATM    7  N   UNL     1      -9.926   8.276  67.795  1.00  0.00    -0.175 NA 
HETATM    8  O   UNL     1     -12.619  14.112  66.661  1.00  0.00    -0.549 OA 
HETATM    9  C   UNL     1     -10.641   9.454  67.255  1.00  0.00    -0.244 C  
HETATM   10  C   UNL     1     -10.334  11.720  64.167  1.00  0.00    -0.376 A  
HETATM   11  C   UNL     1     -11.630  13.722  64.519  1.00  0.00    -0.413 A  
HETATM   12  C   UNL     1     -10.575  11.311  65.489  1.00  0.00    -0.306 A  
HETATM   13  C   UNL     1     -11.858  13.331  65.837  1.00  0.00    -0.393 A  
HETATM   14  H   UNL     1     -12.774  13.845  67.559  1.00  0.00     0.000 HD 
HETATM   15  C   UNL     1     -11.603  11.732  67.771  1.00  0.00    -0.374 C  
HETATM   16  C   UNL     1      -9.978  10.008  65.971  1.00  0.00    -0.334 C  
ENDROOT
BRANCH   3  17
HETATM   17  N   UNL     1      -8.956   9.315  70.463  1.00  0.00    -0.234 N  
HETATM   18  H   UNL     1      -8.495  10.113  70.025  1.00  0.00     0.000 HD 
BRANCH  17  19
HETATM   19  S   UNL     1      -8.191   8.322  71.586  1.00  0.00    -0.149 S  
HETATM   20  O   UNL     1      -8.337   6.937  71.229  1.00  0.00    -0.117 OA 
HETATM   21  O   UNL     1      -8.601   8.822  72.876  1.00  0.00    -0.398 OA 
BRANCH  19  22
HETATM   22  N   UNL     1      -6.568   8.781  71.307  1.00  0.00    -0.068 N  
BRANCH  22  23
HETATM   23  C   UNL     1      -6.394   9.654  70.103  1.00  0.00    -0.069 C  
HETATM   24  C   UNL     1      -5.927  11.066  70.430  1.00  0.00    -0.141 C  
ENDBRANCH  22  23
BRANCH  22  25
HETATM   25  C   UNL     1      -5.606   7.649  71.429  1.00  0.00    -0.035 C  
HETATM   26  C   UNL     1      -5.250   7.316  72.869  1.00  0.00    -0.037 C  
ENDBRANCH  22  25
ENDBRANCH  19  22
ENDBRANCH  17  19
ENDBRANCH   3  17
BRANCH   7  27
HETATM   27  C   UNL     1      -9.767   7.140  66.876  1.00  0.00    -0.186 C  
BRANCH  27  28
HETATM   28  C   UNL     1     -10.816   6.029  67.009  1.00  0.00    -0.413 C  
HETATM   29  C   UNL     1     -10.420   4.791  66.217  1.00  0.00    -0.311 C  
ENDBRANCH  27  28
ENDBRANCH   7  27
TORSDOF 7
ENDMDL
MODEL       89
REMARK 921   NORMALIZED FREE ENERGY PREDICTED BY IDOCK:   -4.51 KCAL/MOL
REMARK 922        TOTAL FREE ENERGY PREDICTED BY IDOCK:   -7.58 KCAL/MOL
REMARK 923 INTER-LIGAND FREE ENERGY PREDICTED BY IDOCK:   -6.74 KCAL/MOL
REMARK 924 INTRA-LIGAND FREE ENERGY PREDICTED BY IDOCK:   -0.83 KCAL/MOL
REMARK 927      BINDING AFFINITY PREDICTED BY RF-SCORE:    0.00 PKD
ROOT
HETATM    1  C   UNL     1      -9.949   8.132  67.139  1.00  0.00    -0.304 C  
HETATM    2  C   UNL     1     -10.982   9.164  67.617  1.00  0.00    -0.024 C  
HETATM    3  C   UNL     1     -10.304  10.403  68.213  1.00  0.00    -0.171 C  
HETATM    4  C   UNL     1      -9.734   5.706  66.377  1.00  0.00    -0.180 A  
HETATM    5  C   UNL     1      -9.350   9.929  69.320  1.00  0.00    -0.206 C  
HETATM    6  C   UNL     1      -8.040   3.547  65.775  1.00  0.00    -0.093 A  
HETATM    7  N   UNL     1      -8.303   9.033  68.797  1.00  0.00    -0.121 NA 
HETATM    8  O   UNL     1     -11.527   4.548  65.321  1.00  0.00    -1.068 OA 
HETATM    9  C   UNL     1      -8.884   7.802  68.217  1.00  0.00    -0.129 C  
HETATM   10  C   UNL     1      -7.549   4.649  66.473  1.00  0.00    -0.087 A  
HETATM   11  C   UNL     1      -9.375   3.509  65.387  1.00  0.00    -0.158 A  
HETATM   12  C   UNL     1      -8.392   5.725  66.797  1.00  0.00    -0.109 A  
HETATM   13  C   UNL     1     -10.211   4.581  65.691  1.00  0.00    -0.253 A  
HETATM   14  H   UNL     1     -12.098   5.279  65.528  1.00  0.00     0.000 HD 
HETATM   15  C   UNL     1     -10.669   6.843  66.709  1.00  0.00    -0.296 C  
HETATM   16  C   UNL     1      -7.816   6.903  67.550  1.00  0.00    -0.112 C  
ENDROOT
BRANCH   3  17
HETATM   17  N   UNL     1      -9.613  11.180  67.119  1.00  0.00    -0.172 N  
HETATM   18  H   UNL     1      -8.667  10.967  66.802  1.00  0.00     0.000 HD 
BRANCH  17  19
HETATM   19  S   UNL     1     -10.535  12.427  66.466  1.00  0.00    -0.234 S  
HETATM   20  O   UNL     1      -9.941  13.706  66.747  1.00  0.00    -0.256 OA 
HETATM   21  O   UNL     1     -11.898  12.124  66.834  1.00  0.00    -0.555 OA 
BRANCH  19  22
HETATM   22  N   UNL     1     -10.326  12.091  64.803  1.00  0.00    -0.270 N  
BRANCH  22  23
HETATM   23  C   UNL     1     -11.270  12.845  63.919  1.00  0.00    -0.423 C  
HETATM   24  C   UNL     1     -12.448  12.015  63.427  1.00  0.00    -0.625 C  
ENDBRANCH  22  23
BRANCH  22  25
HETATM   25  C   UNL     1     -10.189  10.636  64.509  1.00  0.00    -0.329 C  
HETATM   26  C   UNL     1      -9.085  10.326  63.512  1.00  0.00    -0.288 C  
ENDBRANCH  22  25
ENDBRANCH  19  22
ENDBRANCH  17  19
ENDBRANCH   3  17
BRANCH   7  27
HETATM   27  C   UNL     1      -7.235   8.839  69.787  1.00  0.00    -0.051 C  
BRANCH  27  28
HETATM   28  C   UNL     1      -7.699   8.666  71.239  1.00  0.00    -0.141 C  
HETATM   29  C   UNL     1      -7.690   7.203  71.655  1.00  0.00    -0.088 C  
ENDBRANCH  27  28
ENDBRANCH   7  27
TORSDOF 7
ENDMDL
MODEL       90
REMARK 921   NORMALIZED FREE ENERGY PREDICTED BY IDOCK:   -4.46 KCAL/MOL
REMARK 922        TOTAL FREE ENERGY PREDICTED BY IDOCK:   -7.50 KCAL/MOL
REMARK 923 INTER-LIGAND FREE ENERGY PREDICTED BY IDOCK:   -6.80 KCAL/MOL
REMARK 924 INTRA-LIGAND FREE ENERGY PREDICTED BY IDOCK:   -0.70 KCAL/MOL
REMARK 927      BINDING AFFINITY PREDICTED BY RF-SCORE:    0.00 PKD
ROOT
HETATM    1  C   UNL     1     -10.140   9.965  66.392  1.00  0.00    -0.308 C  
HETATM    2  C   UNL     1      -9.584   8.535  66.302  1.00  0.00    -0.306 C  
HETATM    3  C   UNL     1      -8.927   8.103  67.617  1.00  0.00    -0.132 C  
HETATM    4  C   UNL     1     -11.049  11.864  64.951  1.00  0.00    -0.363 A  
HETATM    5  C   UNL     1      -7.865   9.154  67.978  1.00  0.00    -0.100 C  
HETATM    6  C   UNL     1     -11.806  14.565  64.782  1.00  0.00    -0.446 A  
HETATM    7  N   UNL     1      -8.457  10.489  68.171  1.00  0.00    -0.120 NA 
HETATM    8  O   UNL     1     -12.143  11.464  62.873  1.00  0.00    -0.919 OA 
HETATM    9  C   UNL     1      -9.100  10.981  66.932  1.00  0.00    -0.156 C  
HETATM   10  C   UNL     1     -11.051  14.114  65.864  1.00  0.00    -0.306 A  
HETATM   11  C   UNL     1     -12.173  13.678  63.775  1.00  0.00    -0.413 A  
HETATM   12  C   UNL     1     -10.650  12.771  65.948  1.00  0.00    -0.295 A  
HETATM   13  C   UNL     1     -11.793  12.341  63.862  1.00  0.00    -0.464 A  
HETATM   14  H   UNL     1     -11.884  10.552  62.932  1.00  0.00     0.000 HD 
HETATM   15  C   UNL     1     -10.635  10.414  65.007  1.00  0.00    -0.006 C  
HETATM   16  C   UNL     1      -9.837  12.325  67.143  1.00  0.00    -0.207 C  
ENDROOT
BRANCH   3  17
HETATM   17  N   UNL     1      -9.984   7.929  68.681  1.00  0.00    -0.185 N  
HETATM   18  H   UNL     1     -10.245   8.674  69.327  1.00  0.00     0.000 HD 
BRANCH  17  19
HETATM   19  S   UNL     1     -10.694   6.404  68.710  1.00  0.00    -0.316 S  
HETATM   20  O   UNL     1     -11.069   5.987  67.385  1.00  0.00    -0.302 OA 
HETATM   21  O   UNL     1     -11.649   6.451  69.791  1.00  0.00    -0.431 OA 
BRANCH  19  22
HETATM   22  N   UNL     1      -9.346   5.476  69.204  1.00  0.00    -0.121 N  
BRANCH  22  23
HETATM   23  C   UNL     1      -9.516   4.007  68.971  1.00  0.00    -0.173 C  
HETATM   24  C   UNL     1      -8.694   3.470  67.807  1.00  0.00    -0.129 C  
ENDBRANCH  22  23
BRANCH  22  25
HETATM   25  C   UNL     1      -8.826   5.862  70.547  1.00  0.00    -0.144 C  
HETATM   26  C   UNL     1      -8.853   4.721  71.551  1.00  0.00    -0.151 C  
ENDBRANCH  22  25
ENDBRANCH  19  22
ENDBRANCH  17  19
ENDBRANCH   3  17
BRANCH   7  27
HETATM   27  C   UNL     1      -7.498  11.403  68.807  1.00  0.00    -0.124 C  
BRANCH  27  28
HETATM   28  C   UNL     1      -6.031  11.213  68.399  1.00  0.00    -0.045 C  
HETATM   29  C   UNL     1      -5.627  12.189  67.304  1.00  0.00    -0.135 C  
ENDBRANCH  27  28
ENDBRANCH   7  27
TORSDOF 7
ENDMDL
MODEL       91
REMARK 921   NORMALIZED FREE ENERGY PREDICTED BY IDOCK:   -4.41 KCAL/MOL
REMARK 922        TOTAL FREE ENERGY PREDICTED BY IDOCK:   -7.42 KCAL/MOL
REMARK 923 INTER-LIGAND FREE ENERGY PREDICTED BY IDOCK:   -7.01 KCAL/MOL
REMARK 924 INTRA-LIGAND FREE ENERGY PREDICTED BY IDOCK:   -0.41 KCAL/MOL
REMARK 927      BINDING AFFINITY PREDICTED BY RF-SCORE:    0.00 PKD
ROOT
HETATM    1  C   UNL     1     -10.764   9.051  69.623  1.00  0.00    -0.228 C  
HETATM    2  C   UNL     1     -10.937   9.653  68.219  1.00  0.00    -0.172 C  
HETATM    3  C   UNL     1     -11.086  11.177  68.275  1.00  0.00    -0.251 C  
HETATM    4  C   UNL     1     -10.792   6.829  70.877  1.00  0.00    -0.289 A  
HETATM    5  C   UNL     1     -12.246  11.500  69.230  1.00  0.00    -0.179 C  
HETATM    6  C   UNL     1     -10.827   5.499  73.351  1.00  0.00    -0.332 A  
HETATM    7  N   UNL     1     -11.988  11.008  70.595  1.00  0.00    -0.354 NA 
HETATM    8  O   UNL     1     -10.227   4.772  69.818  1.00  0.00    -0.246 OA 
HETATM    9  C   UNL     1     -11.847   9.535  70.622  1.00  0.00    -0.233 C  
HETATM   10  C   UNL     1     -11.125   6.859  73.283  1.00  0.00    -0.186 A  
HETATM   11  C   UNL     1     -10.526   4.794  72.191  1.00  0.00    -0.243 A  
HETATM   12  C   UNL     1     -11.129   7.530  72.048  1.00  0.00    -0.288 A  
HETATM   13  C   UNL     1     -10.513   5.458  70.966  1.00  0.00    -0.232 A  
HETATM   14  H   UNL     1     -10.217   5.224  68.983  1.00  0.00     0.000 HD 
HETATM   15  C   UNL     1     -10.789   7.516  69.533  1.00  0.00    -0.184 C  
HETATM   16  C   UNL     1     -11.451   9.007  72.022  1.00  0.00    -0.408 C  
ENDROOT
BRANCH   3  17
HETATM   17  N   UNL     1      -9.776  11.801  68.691  1.00  0.00    -0.329 N  
HETATM   18  H   UNL     1      -9.186  11.411  69.427  1.00  0.00     0.000 HD 
BRANCH  17  19
HETATM   19  S   UNL     1      -9.372  13.195  67.838  1.00  0.00    -0.221 S  
HETATM   20  O   UNL     1      -8.140  13.755  68.326  1.00  0.00    -0.136 OA 
HETATM   21  O   UNL     1     -10.588  13.969  67.778  1.00  0.00    -0.239 OA 
BRANCH  19  22
HETATM   22  N   UNL     1      -9.078  12.508  66.301  1.00  0.00    -0.133 N  
BRANCH  22  23
HETATM   23  C   UNL     1     -10.309  12.384  65.458  1.00  0.00    -0.271 C  
HETATM   24  C   UNL     1     -10.312  13.293  64.237  1.00  0.00    -0.315 C  
ENDBRANCH  22  23
BRANCH  22  25
HETATM   25  C   UNL     1      -8.205  11.300  66.352  1.00  0.00    -0.150 C  
HETATM   26  C   UNL     1      -8.555  10.263  65.298  1.00  0.00    -0.175 C  
ENDBRANCH  22  25
ENDBRANCH  19  22
ENDBRANCH  17  19
ENDBRANCH   3  17
BRANCH   7  27
HETATM   27  C   UNL     1     -12.944  11.584  71.551  1.00  0.00    -0.380 C  
BRANCH  27  28
HETATM   28  C   UNL     1     -12.886  13.109  71.709  1.00  0.00    -0.358 C  
HETATM   29  C   UNL     1     -14.235  13.677  72.122  1.00  0.00    -0.481 C  
ENDBRANCH  27  28
ENDBRANCH   7  27
TORSDOF 7
ENDMDL
MODEL       92
REMARK 921   NORMALIZED FREE ENERGY PREDICTED BY IDOCK:   -4.39 KCAL/MOL
REMARK 922        TOTAL FREE ENERGY PREDICTED BY IDOCK:   -7.41 KCAL/MOL
REMARK 923 INTER-LIGAND FREE ENERGY PREDICTED BY IDOCK:   -6.87 KCAL/MOL
REMARK 924 INTRA-LIGAND FREE ENERGY PREDICTED BY IDOCK:   -0.54 KCAL/MOL
REMARK 927      BINDING AFFINITY PREDICTED BY RF-SCORE:    0.00 PKD
ROOT
HETATM    1  C   UNL     1      -8.526  15.028  66.857  1.00  0.00    -0.269 C  
HETATM    2  C   UNL     1      -7.713  13.837  67.388  1.00  0.00    -0.158 C  
HETATM    3  C   UNL     1      -8.557  12.560  67.446  1.00  0.00    -0.187 C  
HETATM    4  C   UNL     1      -8.462  17.569  66.634  1.00  0.00    -0.288 A  
HETATM    5  C   UNL     1      -9.814  12.866  68.276  1.00  0.00    -0.228 C  
HETATM    6  C   UNL     1      -9.851  19.936  66.035  1.00  0.00    -0.515 A  
HETATM    7  N   UNL     1     -10.627  13.934  67.668  1.00  0.00    -0.244 NA 
HETATM    8  O   UNL     1      -6.413  18.774  66.482  1.00  0.00    -0.184 OA 
HETATM    9  C   UNL     1      -9.879  15.208  67.593  1.00  0.00    -0.219 C  
HETATM   10  C   UNL     1     -10.551  18.755  66.278  1.00  0.00    -0.429 A  
HETATM   11  C   UNL     1      -8.462  19.947  66.105  1.00  0.00    -0.350 A  
HETATM   12  C   UNL     1      -9.867  17.570  66.597  1.00  0.00    -0.308 A  
HETATM   13  C   UNL     1      -7.778  18.771  66.405  1.00  0.00    -0.269 A  
HETATM   14  H   UNL     1      -5.947  17.972  66.687  1.00  0.00     0.000 HD 
HETATM   15  C   UNL     1      -7.694  16.316  66.976  1.00  0.00    -0.250 C  
HETATM   16  C   UNL     1     -10.666  16.311  66.845  1.00  0.00    -0.217 C  
ENDROOT
BRANCH   3  17
HETATM   17  N   UNL     1      -8.865  12.090  66.045  1.00  0.00    -0.405 N  
HETATM   18  H   UNL     1      -8.867  12.716  65.239  1.00  0.00     0.000 HD 
BRANCH  17  19
HETATM   19  S   UNL     1      -9.203  10.446  65.925  1.00  0.00    -0.181 S  
HETATM   20  O   UNL     1     -10.387  10.221  65.139  1.00  0.00    -0.286 OA 
HETATM   21  O   UNL     1      -9.074   9.933  67.267  1.00  0.00    -0.134 OA 
BRANCH  19  22
HETATM   22  N   UNL     1      -7.849   9.946  65.010  1.00  0.00    -0.126 N  
BRANCH  22  23
HETATM   23  C   UNL     1      -6.546  10.451  65.549  1.00  0.00    -0.125 C  
HETATM   24  C   UNL     1      -5.764   9.411  66.339  1.00  0.00    -0.053 C  
ENDBRANCH  22  23
BRANCH  22  25
HETATM   25  C   UNL     1      -8.042  10.098  63.540  1.00  0.00    -0.162 C  
HETATM   26  C   UNL     1      -6.737  10.110  62.761  1.00  0.00    -0.133 C  
ENDBRANCH  22  25
ENDBRANCH  19  22
ENDBRANCH  17  19
ENDBRANCH   3  17
BRANCH   7  27
HETATM   27  C   UNL     1     -11.957  14.001  68.291  1.00  0.00    -0.349 C  
BRANCH  27  28
HETATM   28  C   UNL     1     -12.008  14.661  69.675  1.00  0.00    -0.368 C  
HETATM   29  C   UNL     1     -12.415  13.667  70.751  1.00  0.00    -0.432 C  
ENDBRANCH  27  28
ENDBRANCH   7  27
TORSDOF 7
ENDMDL
MODEL       93
REMARK 921   NORMALIZED FREE ENERGY PREDICTED BY IDOCK:   -4.38 KCAL/MOL
REMARK 922        TOTAL FREE ENERGY PREDICTED BY IDOCK:   -7.38 KCAL/MOL
REMARK 923 INTER-LIGAND FREE ENERGY PREDICTED BY IDOCK:   -7.42 KCAL/MOL
REMARK 924 INTRA-LIGAND FREE ENERGY PREDICTED BY IDOCK:    0.04 KCAL/MOL
REMARK 927      BINDING AFFINITY PREDICTED BY RF-SCORE:    0.00 PKD
ROOT
HETATM    1  C   UNL     1      -8.349  16.282  67.292  1.00  0.00    -0.203 C  
HETATM    2  C   UNL     1      -8.965  15.232  66.354  1.00  0.00    -0.339 C  
HETATM    3  C   UNL     1      -9.000  13.846  67.005  1.00  0.00    -0.240 C  
HETATM    4  C   UNL     1      -7.430  18.662  67.322  1.00  0.00    -0.225 A  
HETATM    5  C   UNL     1      -7.571  13.504  67.457  1.00  0.00    -0.167 C  
HETATM    6  C   UNL     1      -6.018  20.645  68.724  1.00  0.00    -0.383 A  
HETATM    7  N   UNL     1      -7.061  14.470  68.446  1.00  0.00    -0.103 NA 
HETATM    8  O   UNL     1      -8.181  20.327  65.793  1.00  0.00    -0.541 OA 
HETATM    9  C   UNL     1      -6.985  15.836  67.880  1.00  0.00    -0.140 C  
HETATM   10  C   UNL     1      -5.965  19.318  69.145  1.00  0.00    -0.276 A  
HETATM   11  C   UNL     1      -6.760  20.988  67.598  1.00  0.00    -0.399 A  
HETATM   12  C   UNL     1      -6.652  18.315  68.440  1.00  0.00    -0.213 A  
HETATM   13  C   UNL     1      -7.456  20.001  66.905  1.00  0.00    -0.262 A  
HETATM   14  H   UNL     1      -8.657  19.654  65.321  1.00  0.00     0.000 HD 
HETATM   15  C   UNL     1      -8.179  17.612  66.539  1.00  0.00    -0.307 C  
HETATM   16  C   UNL     1      -6.572  16.889  68.936  1.00  0.00    -0.193 C  
ENDROOT
BRANCH   3  17
HETATM   17  N   UNL     1     -10.002  13.840  68.134  1.00  0.00    -0.235 N  
HETATM   18  H   UNL     1      -9.731  13.761  69.115  1.00  0.00     0.000 HD 
BRANCH  17  19
HETATM   19  S   UNL     1     -11.605  13.972  67.638  1.00  0.00    -0.375 S  
HETATM   20  O   UNL     1     -11.742  14.961  66.603  1.00  0.00    -0.325 OA 
HETATM   21  O   UNL     1     -12.375  14.037  68.857  1.00  0.00    -0.299 OA 
BRANCH  19  22
HETATM   22  N   UNL     1     -11.810  12.427  66.938  1.00  0.00    -0.360 N  
BRANCH  22  23
HETATM   23  C   UNL     1     -11.345  11.307  67.816  1.00  0.00    -0.285 C  
HETATM   24  C   UNL     1     -10.542  10.242  67.080  1.00  0.00    -0.320 C  
ENDBRANCH  22  23
BRANCH  22  25
HETATM   25  C   UNL     1     -11.366  12.361  65.516  1.00  0.00    -0.346 C  
HETATM   26  C   UNL     1     -12.513  12.459  64.523  1.00  0.00    -0.519 C  
ENDBRANCH  22  25
ENDBRANCH  19  22
ENDBRANCH  17  19
ENDBRANCH   3  17
BRANCH   7  27
HETATM   27  C   UNL     1      -5.839  13.968  69.090  1.00  0.00    -0.087 C  
BRANCH  27  28
HETATM   28  C   UNL     1      -6.030  13.344  70.478  1.00  0.00    -0.121 C  
HETATM   29  C   UNL     1      -5.688  11.861  70.473  1.00  0.00    -0.156 C  
ENDBRANCH  27  28
ENDBRANCH   7  27
TORSDOF 7
ENDMDL
MODEL       94
REMARK 921   NORMALIZED FREE ENERGY PREDICTED BY IDOCK:   -4.36 KCAL/MOL
REMARK 922        TOTAL FREE ENERGY PREDICTED BY IDOCK:   -7.36 KCAL/MOL
REMARK 923 INTER-LIGAND FREE ENERGY PREDICTED BY IDOCK:   -6.47 KCAL/MOL
REMARK 924 INTRA-LIGAND FREE ENERGY PREDICTED BY IDOCK:   -0.88 KCAL/MOL
REMARK 927      BINDING AFFINITY PREDICTED BY RF-SCORE:    0.00 PKD
ROOT
HETATM    1  C   UNL     1      -8.791  10.318  69.315  1.00  0.00    -0.186 C  
HETATM    2  C   UNL     1      -7.658  11.327  69.069  1.00  0.00    -0.106 C  
HETATM    3  C   UNL     1      -8.006  12.298  67.936  1.00  0.00    -0.152 C  
HETATM    4  C   UNL     1      -9.313   8.134  70.526  1.00  0.00    -0.159 A  
HETATM    5  C   UNL     1      -8.365  11.463  66.697  1.00  0.00    -0.172 C  
HETATM    6  C   UNL     1     -11.088   5.988  70.895  1.00  0.00    -0.352 A  
HETATM    7  N   UNL     1      -9.531  10.595  66.939  1.00  0.00    -0.163 NA 
HETATM    8  O   UNL     1      -8.171   7.486  72.513  1.00  0.00    -0.101 OA 
HETATM    9  C   UNL     1      -9.263   9.616  68.016  1.00  0.00    -0.125 C  
HETATM   10  C   UNL     1     -11.221   6.826  69.789  1.00  0.00    -0.368 A  
HETATM   11  C   UNL     1     -10.065   6.205  71.811  1.00  0.00    -0.214 A  
HETATM   12  C   UNL     1     -10.327   7.890  69.584  1.00  0.00    -0.216 A  
HETATM   13  C   UNL     1      -9.185   7.269  71.622  1.00  0.00    -0.146 A  
HETATM   14  H   UNL     1      -7.572   8.211  72.385  1.00  0.00     0.000 HD 
HETATM   15  C   UNL     1      -8.332   9.265  70.338  1.00  0.00    -0.224 C  
HETATM   16  C   UNL     1     -10.514   8.777  68.374  1.00  0.00    -0.220 C  
ENDROOT
BRANCH   3  17
HETATM   17  N   UNL     1      -9.115  13.221  68.379  1.00  0.00    -0.301 N  
HETATM   18  H   UNL     1     -10.001  12.881  68.755  1.00  0.00     0.000 HD 
BRANCH  17  19
HETATM   19  S   UNL     1      -8.768  14.858  68.199  1.00  0.00    -0.171 S  
HETATM   20  O   UNL     1      -7.752  15.060  67.201  1.00  0.00    -0.202 OA 
HETATM   21  O   UNL     1      -8.625  15.365  69.543  1.00  0.00    -0.257 OA 
BRANCH  19  22
HETATM   22  N   UNL     1     -10.261  15.394  67.563  1.00  0.00    -0.241 N  
BRANCH  22  23
HETATM   23  C   UNL     1     -10.219  15.664  66.091  1.00  0.00    -0.311 C  
HETATM   24  C   UNL     1     -10.843  14.561  65.246  1.00  0.00    -0.377 C  
ENDBRANCH  22  23
BRANCH  22  25
HETATM   25  C   UNL     1     -10.912  16.446  68.395  1.00  0.00    -0.353 C  
HETATM   26  C   UNL     1     -10.773  17.843  67.812  1.00  0.00    -0.339 C  
ENDBRANCH  22  25
ENDBRANCH  19  22
ENDBRANCH  17  19
ENDBRANCH   3  17
BRANCH   7  27
HETATM   27  C   UNL     1     -10.047  10.044  65.678  1.00  0.00    -0.251 C  
BRANCH  27  28
HETATM   28  C   UNL     1      -9.350  10.538  64.404  1.00  0.00    -0.307 C  
HETATM   29  C   UNL     1     -10.305  11.319  63.514  1.00  0.00    -0.463 C  
ENDBRANCH  27  28
ENDBRANCH   7  27
TORSDOF 7
ENDMDL
MODEL       95
REMARK 921   NORMALIZED FREE ENERGY PREDICTED BY IDOCK:   -4.34 KCAL/MOL
REMARK 922        TOTAL FREE ENERGY PREDICTED BY IDOCK:   -7.33 KCAL/MOL
REMARK 923 INTER-LIGAND FREE ENERGY PREDICTED BY IDOCK:   -6.55 KCAL/MOL
REMARK 924 INTRA-LIGAND FREE ENERGY PREDICTED BY IDOCK:   -0.77 KCAL/MOL
REMARK 927      BINDING AFFINITY PREDICTED BY RF-SCORE:    0.00 PKD
ROOT
HETATM    1  C   UNL     1     -10.772   9.893  69.436  1.00  0.00    -0.255 C  
HETATM    2  C   UNL     1     -10.582   8.391  69.176  1.00  0.00    -0.177 C  
HETATM    3  C   UNL     1      -9.588   8.138  68.038  1.00  0.00    -0.156 C  
HETATM    4  C   UNL     1     -12.275  11.548  70.667  1.00  0.00    -0.473 A  
HETATM    5  C   UNL     1     -10.077   8.919  66.807  1.00  0.00    -0.280 C  
HETATM    6  C   UNL     1     -13.039  14.222  71.063  1.00  0.00    -0.394 A  
HETATM    7  N   UNL     1     -10.132  10.369  67.062  1.00  0.00    -0.206 NA 
HETATM    8  O   UNL     1     -13.449  10.955  72.653  1.00  0.00    -0.399 OA 
HETATM    9  C   UNL     1     -11.088  10.692  68.145  1.00  0.00    -0.285 C  
HETATM   10  C   UNL     1     -12.276  13.868  69.951  1.00  0.00    -0.393 A  
HETATM   11  C   UNL     1     -13.436  13.247  71.972  1.00  0.00    -0.596 A  
HETATM   12  C   UNL     1     -11.905  12.531  69.733  1.00  0.00    -0.380 A  
HETATM   13  C   UNL     1     -13.056  11.921  71.769  1.00  0.00    -0.360 A  
HETATM   14  H   UNL     1     -13.190  10.051  72.515  1.00  0.00     0.000 HD 
HETATM   15  C   UNL     1     -11.897  10.101  70.464  1.00  0.00    -0.408 C  
HETATM   16  C   UNL     1     -11.071  12.194  68.517  1.00  0.00    -0.295 C  
ENDROOT
BRANCH   3  17
HETATM   17  N   UNL     1      -8.198   8.527  68.480  1.00  0.00    -0.122 N  
HETATM   18  H   UNL     1      -7.963   9.465  68.804  1.00  0.00     0.000 HD 
BRANCH  17  19
HETATM   19  S   UNL     1      -7.069   7.281  68.392  1.00  0.00    -0.083 S  
HETATM   20  O   UNL     1      -5.730   7.804  68.360  1.00  0.00    -0.027 OA 
HETATM   21  O   UNL     1      -7.564   6.394  67.366  1.00  0.00    -0.096 OA 
BRANCH  19  22
HETATM   22  N   UNL     1      -7.329   6.559  69.918  1.00  0.00    -0.084 N  
BRANCH  22  23
HETATM   23  C   UNL     1      -6.717   7.323  71.051  1.00  0.00    -0.048 C  
HETATM   24  C   UNL     1      -5.578   6.588  71.745  1.00  0.00    -0.032 C  
ENDBRANCH  22  23
BRANCH  22  25
HETATM   25  C   UNL     1      -7.083   5.089  69.924  1.00  0.00    -0.054 C  
HETATM   26  C   UNL     1      -8.299   4.279  70.344  1.00  0.00    -0.081 C  
ENDBRANCH  22  25
ENDBRANCH  19  22
ENDBRANCH  17  19
ENDBRANCH   3  17
BRANCH   7  27
HETATM   27  C   UNL     1     -10.299  11.118  65.809  1.00  0.00    -0.260 C  
BRANCH  27  28
HETATM   28  C   UNL     1      -9.169  10.954  64.784  1.00  0.00    -0.227 C  
HETATM   29  C   UNL     1      -9.694  11.043  63.359  1.00  0.00    -0.383 C  
ENDBRANCH  27  28
ENDBRANCH   7  27
TORSDOF 7
ENDMDL
MODEL       96
REMARK 921   NORMALIZED FREE ENERGY PREDICTED BY IDOCK:   -4.34 KCAL/MOL
REMARK 922        TOTAL FREE ENERGY PREDICTED BY IDOCK:   -7.33 KCAL/MOL
REMARK 923 INTER-LIGAND FREE ENERGY PREDICTED BY IDOCK:   -6.47 KCAL/MOL
REMARK 924 INTRA-LIGAND FREE ENERGY PREDICTED BY IDOCK:   -0.85 KCAL/MOL
REMARK 927      BINDING AFFINITY PREDICTED BY RF-SCORE:    0.00 PKD
ROOT
HETATM    1  C   UNL     1      -9.913   8.696  66.800  1.00  0.00    -0.343 C  
HETATM    2  C   UNL     1     -11.001   9.699  67.214  1.00  0.00    -0.107 C  
HETATM    3  C   UNL     1     -10.406  11.072  67.542  1.00  0.00    -0.198 C  
HETATM    4  C   UNL     1      -9.516   6.207  66.402  1.00  0.00    -0.172 A  
HETATM    5  C   UNL     1      -9.319  10.869  68.610  1.00  0.00    -0.187 C  
HETATM    6  C   UNL     1      -7.668   4.135  65.974  1.00  0.00    -0.090 A  
HETATM    7  N   UNL     1      -8.234   9.995  68.130  1.00  0.00    -0.108 NA 
HETATM    8  O   UNL     1     -11.265   4.742  65.718  1.00  0.00    -0.833 OA 
HETATM    9  C   UNL     1      -8.734   8.640  67.806  1.00  0.00    -0.137 C  
HETATM   10  C   UNL     1      -7.236   5.374  66.444  1.00  0.00    -0.077 A  
HETATM   11  C   UNL     1      -9.020   3.918  65.731  1.00  0.00    -0.131 A  
HETATM   12  C   UNL     1      -8.154   6.411  66.680  1.00  0.00    -0.110 A  
HETATM   13  C   UNL     1      -9.933   4.948  65.947  1.00  0.00    -0.203 A  
HETATM   14  H   UNL     1     -11.887   5.444  65.865  1.00  0.00     0.000 HD 
HETATM   15  C   UNL     1     -10.532   7.297  66.646  1.00  0.00    -0.204 C  
HETATM   16  C   UNL     1      -7.639   7.741  67.182  1.00  0.00    -0.100 C  
ENDROOT
BRANCH   3  17
HETATM   17  N   UNL     1      -9.891  11.718  66.279  1.00  0.00    -0.215 N  
HETATM   18  H   UNL     1      -8.951  11.555  65.918  1.00  0.00     0.000 HD 
BRANCH  17  19
HETATM   19  S   UNL     1     -10.999  12.731  65.518  1.00  0.00    -0.287 S  
HETATM   20  O   UNL     1     -12.348  12.318  65.796  1.00  0.00    -0.622 OA 
HETATM   21  O   UNL     1     -10.512  12.877  64.167  1.00  0.00    -0.403 OA 
BRANCH  19  22
HETATM   22  N   UNL     1     -10.692  14.178  66.374  1.00  0.00    -0.286 N  
BRANCH  22  23
HETATM   23  C   UNL     1     -11.749  14.510  67.381  1.00  0.00    -0.400 C  
HETATM   24  C   UNL     1     -11.241  14.544  68.816  1.00  0.00    -0.281 C  
ENDBRANCH  22  23
BRANCH  22  25
HETATM   25  C   UNL     1     -10.260  15.302  65.496  1.00  0.00    -0.388 C  
HETATM   26  C   UNL     1      -8.979  15.973  65.965  1.00  0.00    -0.345 C  
ENDBRANCH  22  25
ENDBRANCH  19  22
ENDBRANCH  17  19
ENDBRANCH   3  17
BRANCH   7  27
HETATM   27  C   UNL     1      -7.073  10.057  69.028  1.00  0.00    -0.069 C  
BRANCH  27  28
HETATM   28  C   UNL     1      -7.359   9.750  70.504  1.00  0.00    -0.126 C  
HETATM   29  C   UNL     1      -6.578   8.534  70.980  1.00  0.00    -0.048 C  
ENDBRANCH  27  28
ENDBRANCH   7  27
TORSDOF 7
ENDMDL
MODEL       97
REMARK 921   NORMALIZED FREE ENERGY PREDICTED BY IDOCK:   -4.33 KCAL/MOL
REMARK 922        TOTAL FREE ENERGY PREDICTED BY IDOCK:   -7.32 KCAL/MOL
REMARK 923 INTER-LIGAND FREE ENERGY PREDICTED BY IDOCK:   -6.73 KCAL/MOL
REMARK 924 INTRA-LIGAND FREE ENERGY PREDICTED BY IDOCK:   -0.59 KCAL/MOL
REMARK 927      BINDING AFFINITY PREDICTED BY RF-SCORE:    0.00 PKD
ROOT
HETATM    1  C   UNL     1     -10.127   9.495  67.664  1.00  0.00    -0.254 C  
HETATM    2  C   UNL     1      -9.108   8.682  68.477  1.00  0.00    -0.138 C  
HETATM    3  C   UNL     1      -9.610   8.412  69.900  1.00  0.00    -0.171 C  
HETATM    4  C   UNL     1     -10.373  10.826  65.501  1.00  0.00    -0.308 A  
HETATM    5  C   UNL     1      -9.965   9.765  70.536  1.00  0.00    -0.193 C  
HETATM    6  C   UNL     1     -11.919  12.600  63.966  1.00  0.00    -0.530 A  
HETATM    7  N   UNL     1     -11.030  10.460  69.791  1.00  0.00    -0.273 NA 
HETATM    8  O   UNL     1      -9.060  10.355  63.570  1.00  0.00    -0.201 OA 
HETATM    9  C   UNL     1     -10.610  10.769  68.406  1.00  0.00    -0.197 C  
HETATM   10  C   UNL     1     -12.194  12.422  65.321  1.00  0.00    -0.418 A  
HETATM   11  C   UNL     1     -10.867  11.909  63.375  1.00  0.00    -0.469 A  
HETATM   12  C   UNL     1     -11.415  11.553  66.102  1.00  0.00    -0.105 A  
HETATM   13  C   UNL     1     -10.101  11.033  64.141  1.00  0.00    -0.344 A  
HETATM   14  H   UNL     1      -8.538   9.758  64.092  1.00  0.00     0.000 HD 
HETATM   15  C   UNL     1      -9.513   9.885  66.309  1.00  0.00    -0.245 C  
HETATM   16  C   UNL     1     -11.754  11.385  67.567  1.00  0.00    -0.220 C  
ENDROOT
BRANCH   3  17
HETATM   17  N   UNL     1     -10.771   7.448  69.855  1.00  0.00    -0.240 N  
HETATM   18  H   UNL     1     -11.571   7.573  69.234  1.00  0.00     0.000 HD 
BRANCH  17  19
HETATM   19  S   UNL     1     -10.634   6.150  70.918  1.00  0.00    -0.255 S  
HETATM   20  O   UNL     1     -11.896   5.867  71.548  1.00  0.00    -0.129 OA 
HETATM   21  O   UNL     1      -9.442   6.414  71.687  1.00  0.00    -0.155 OA 
BRANCH  19  22
HETATM   22  N   UNL     1     -10.302   4.903  69.797  1.00  0.00    -0.223 N  
BRANCH  22  23
HETATM   23  C   UNL     1      -9.208   3.981  70.238  1.00  0.00    -0.140 C  
HETATM   24  C   UNL     1      -9.534   3.204  71.506  1.00  0.00    -0.215 C  
ENDBRANCH  22  23
BRANCH  22  25
HETATM   25  C   UNL     1     -10.212   5.386  68.389  1.00  0.00    -0.163 C  
HETATM   26  C   UNL     1      -9.007   4.838  67.643  1.00  0.00    -0.120 C  
ENDBRANCH  22  25
ENDBRANCH  19  22
ENDBRANCH  17  19
ENDBRANCH   3  17
BRANCH   7  27
HETATM   27  C   UNL     1     -11.568  11.585  70.569  1.00  0.00     0.004 C  
BRANCH  27  28
HETATM   28  C   UNL     1     -12.891  11.315  71.297  1.00  0.00    -0.491 C  
HETATM   29  C   UNL     1     -13.336  12.522  72.109  1.00  0.00    -0.540 C  
ENDBRANCH  27  28
ENDBRANCH   7  27
TORSDOF 7
ENDMDL
MODEL       98
REMARK 921   NORMALIZED FREE ENERGY PREDICTED BY IDOCK:   -4.31 KCAL/MOL
REMARK 922        TOTAL FREE ENERGY PREDICTED BY IDOCK:   -7.28 KCAL/MOL
REMARK 923 INTER-LIGAND FREE ENERGY PREDICTED BY IDOCK:   -6.30 KCAL/MOL
REMARK 924 INTRA-LIGAND FREE ENERGY PREDICTED BY IDOCK:   -0.99 KCAL/MOL
REMARK 927      BINDING AFFINITY PREDICTED BY RF-SCORE:    0.00 PKD
ROOT
HETATM    1  C   UNL     1     -10.467  16.363  67.352  1.00  0.00    -0.309 C  
HETATM    2  C   UNL     1     -10.302  17.853  67.689  1.00  0.00    -0.387 C  
HETATM    3  C   UNL     1      -9.776  18.052  69.114  1.00  0.00    -0.104 C  
HETATM    4  C   UNL     1     -11.509  14.792  65.632  1.00  0.00    -0.327 A  
HETATM    5  C   UNL     1     -10.720  17.305  70.071  1.00  0.00     0.501 C  
HETATM    6  C   UNL     1     -12.223  12.165  64.939  1.00  0.00    -0.306 A  
HETATM    7  N   UNL     1     -10.758  15.860  69.787  1.00  0.00    -0.296 NA 
HETATM    8  O   UNL     1     -11.850  15.444  63.366  1.00  0.00    -0.318 OA 
HETATM    9  C   UNL     1     -11.272  15.588  68.427  1.00  0.00    -0.341 C  
HETATM   10  C   UNL     1     -11.897  12.478  66.258  1.00  0.00    -0.453 A  
HETATM   11  C   UNL     1     -12.209  13.158  63.966  1.00  0.00    -0.482 A  
HETATM   12  C   UNL     1     -11.558  13.793  66.619  1.00  0.00    -0.392 A  
HETATM   13  C   UNL     1     -11.858  14.460  64.315  1.00  0.00    -0.364 A  
HETATM   14  H   UNL     1     -11.610  16.332  63.604  1.00  0.00     0.000 HD 
HETATM   15  C   UNL     1     -11.152  16.216  65.983  1.00  0.00     0.064 C  
HETATM   16  C   UNL     1     -11.204  14.086  68.060  1.00  0.00    -0.302 C  
ENDROOT
BRANCH   3  17
HETATM   17  N   UNL     1      -8.344  17.583  69.199  1.00  0.00    -0.022 N  
HETATM   18  H   UNL     1      -8.080  16.598  69.151  1.00  0.00     0.000 HD 
BRANCH  17  19
HETATM   19  S   UNL     1      -7.219  18.821  69.379  1.00  0.00     0.029 S  
HETATM   20  O   UNL     1      -6.094  18.383  70.160  1.00  0.00    -0.190 OA 
HETATM   21  O   UNL     1      -7.991  19.985  69.744  1.00  0.00     0.211 OA 
BRANCH  19  22
HETATM   22  N   UNL     1      -6.715  18.982  67.754  1.00  0.00    -0.205 N  
BRANCH  22  23
HETATM   23  C   UNL     1      -7.310  20.169  67.060  1.00  0.00    -0.271 C  
HETATM   24  C   UNL     1      -6.405  20.775  65.996  1.00  0.00    -0.285 C  
ENDBRANCH  22  23
BRANCH  22  25
HETATM   25  C   UNL     1      -6.759  17.700  66.994  1.00  0.00    -0.171 C  
HETATM   26  C   UNL     1      -5.383  17.178  66.618  1.00  0.00    -0.195 C  
ENDBRANCH  22  25
ENDBRANCH  19  22
ENDBRANCH  17  19
ENDBRANCH   3  17
BRANCH   7  27
HETATM   27  C   UNL     1     -11.408  15.126  70.882  1.00  0.00    -0.307 C  
BRANCH  27  28
HETATM   28  C   UNL     1     -12.700  15.752  71.423  1.00  0.00    -0.509 C  
HETATM   29  C   UNL     1     -12.956  15.341  72.866  1.00  0.00    -0.564 C  
ENDBRANCH  27  28
ENDBRANCH   7  27
TORSDOF 7
ENDMDL
MODEL       99
REMARK 921   NORMALIZED FREE ENERGY PREDICTED BY IDOCK:   -4.29 KCAL/MOL
REMARK 922        TOTAL FREE ENERGY PREDICTED BY IDOCK:   -7.26 KCAL/MOL
REMARK 923 INTER-LIGAND FREE ENERGY PREDICTED BY IDOCK:   -6.47 KCAL/MOL
REMARK 924 INTRA-LIGAND FREE ENERGY PREDICTED BY IDOCK:   -0.79 KCAL/MOL
REMARK 927      BINDING AFFINITY PREDICTED BY RF-SCORE:    0.00 PKD
ROOT
HETATM    1  C   UNL     1      -9.421  10.753  69.532  1.00  0.00     0.053 C  
HETATM    2  C   UNL     1      -8.130  10.764  68.700  1.00  0.00    -0.136 C  
HETATM    3  C   UNL     1      -7.935  12.103  67.981  1.00  0.00    -0.152 C  
HETATM    4  C   UNL     1     -10.990   9.183  70.792  1.00  0.00    -0.332 A  
HETATM    5  C   UNL     1      -9.201  12.379  67.154  1.00  0.00    -0.199 C  
HETATM    6  C   UNL     1     -13.463   8.823  72.074  1.00  0.00    -0.461 A  
HETATM    7  N   UNL     1     -10.401  12.478  68.004  1.00  0.00    -0.216 NA 
HETATM    8  O   UNL     1     -10.228   7.147  71.766  1.00  0.00    -0.195 OA 
HETATM    9  C   UNL     1     -10.662  11.210  68.722  1.00  0.00    -0.199 C  
HETATM   10  C   UNL     1     -13.254   9.929  71.253  1.00  0.00    -0.465 A  
HETATM   11  C   UNL     1     -12.451   7.886  72.248  1.00  0.00    -0.265 A  
HETATM   12  C   UNL     1     -12.028  10.109  70.591  1.00  0.00    -0.423 A  
HETATM   13  C   UNL     1     -11.227   8.067  71.607  1.00  0.00    -0.255 A  
HETATM   14  H   UNL     1      -9.393   7.271  71.329  1.00  0.00     0.000 HD 
HETATM   15  C   UNL     1      -9.660   9.342  70.095  1.00  0.00    -0.254 C  
HETATM   16  C   UNL     1     -11.843  11.328  69.716  1.00  0.00    -0.437 C  
ENDROOT
BRANCH   3  17
HETATM   17  N   UNL     1      -7.631  13.183  68.990  1.00  0.00    -0.321 N  
HETATM   18  H   UNL     1      -8.285  13.453  69.725  1.00  0.00     0.000 HD 
BRANCH  17  19
HETATM   19  S   UNL     1      -6.122  13.904  68.799  1.00  0.00    -0.093 S  
HETATM   20  O   UNL     1      -5.953  14.392  67.457  1.00  0.00    -0.337 OA 
HETATM   21  O   UNL     1      -5.185  12.985  69.398  1.00  0.00    -0.074 OA 
BRANCH  19  22
HETATM   22  N   UNL     1      -6.319  15.246  69.839  1.00  0.00    -0.159 N  
BRANCH  22  23
HETATM   23  C   UNL     1      -6.845  16.465  69.146  1.00  0.00    -0.210 C  
HETATM   24  C   UNL     1      -6.043  17.728  69.431  1.00  0.00    -0.241 C  
ENDBRANCH  22  23
BRANCH  22  25
HETATM   25  C   UNL     1      -5.153  15.468  70.741  1.00  0.00    -0.154 C  
HETATM   26  C   UNL     1      -5.363  14.914  72.141  1.00  0.00     0.014 C  
ENDBRANCH  22  25
ENDBRANCH  19  22
ENDBRANCH  17  19
ENDBRANCH   3  17
BRANCH   7  27
HETATM   27  C   UNL     1     -11.532  13.040  67.253  1.00  0.00    -0.332 C  
BRANCH  27  28
HETATM   28  C   UNL     1     -11.677  14.566  67.316  1.00  0.00    -0.429 C  
HETATM   29  C   UNL     1     -12.149  15.024  68.687  1.00  0.00    -0.198 C  
ENDBRANCH  27  28
ENDBRANCH   7  27
TORSDOF 7
ENDMDL
MODEL      100
REMARK 921   NORMALIZED FREE ENERGY PREDICTED BY IDOCK:   -4.28 KCAL/MOL
REMARK 922        TOTAL FREE ENERGY PREDICTED BY IDOCK:   -7.25 KCAL/MOL
REMARK 923 INTER-LIGAND FREE ENERGY PREDICTED BY IDOCK:   -6.45 KCAL/MOL
REMARK 924 INTRA-LIGAND FREE ENERGY PREDICTED BY IDOCK:   -0.80 KCAL/MOL
REMARK 927      BINDING AFFINITY PREDICTED BY RF-SCORE:    0.00 PKD
ROOT
HETATM    1  C   UNL     1      -9.917   9.523  67.831  1.00  0.00    -0.209 C  
HETATM    2  C   UNL     1      -9.394  10.870  67.309  1.00  0.00    -0.168 C  
HETATM    3  C   UNL     1      -9.350  10.902  65.778  1.00  0.00    -0.203 C  
HETATM    4  C   UNL     1     -10.119   8.130  69.959  1.00  0.00    -0.196 A  
HETATM    5  C   UNL     1      -8.520   9.697  65.308  1.00  0.00    -0.146 C  
HETATM    6  C   UNL     1     -10.701   5.639  71.121  1.00  0.00    -0.310 A  
HETATM    7  N   UNL     1      -9.120   8.419  65.729  1.00  0.00    -0.171 NA 
HETATM    8  O   UNL     1     -10.256   9.129  72.117  1.00  0.00    -0.227 OA 
HETATM    9  C   UNL     1      -9.183   8.309  67.204  1.00  0.00    -0.144 C  
HETATM   10  C   UNL     1     -10.470   5.736  69.750  1.00  0.00    -0.363 A  
HETATM   11  C   UNL     1     -10.629   6.776  71.920  1.00  0.00    -0.234 A  
HETATM   12  C   UNL     1     -10.159   6.973  69.161  1.00  0.00    -0.183 A  
HETATM   13  C   UNL     1     -10.337   8.008  71.339  1.00  0.00    -0.200 A  
HETATM   14  H   UNL     1     -10.057   9.970  71.721  1.00  0.00     0.000 HD 
HETATM   15  C   UNL     1      -9.786   9.475  69.362  1.00  0.00    -0.190 C  
HETATM   16  C   UNL     1      -9.923   7.032  67.669  1.00  0.00    -0.194 C  
ENDROOT
BRANCH   3  17
HETATM   17  N   UNL     1     -10.755  10.912  65.228  1.00  0.00    -0.181 N  
HETATM   18  H   UNL     1     -11.479  10.267  65.546  1.00  0.00     0.000 HD 
BRANCH  17  19
HETATM   19  S   UNL     1     -11.028  12.079  64.046  1.00  0.00    -0.423 S  
HETATM   20  O   UNL     1     -12.171  11.738  63.242  1.00  0.00    -0.489 OA 
HETATM   21  O   UNL     1      -9.734  12.333  63.459  1.00  0.00    -0.301 OA 
BRANCH  19  22
HETATM   22  N   UNL     1     -11.449  13.399  65.046  1.00  0.00    -0.304 N  
BRANCH  22  23
HETATM   23  C   UNL     1     -10.353  14.409  65.194  1.00  0.00    -0.421 C  
HETATM   24  C   UNL     1     -10.770  15.826  64.826  1.00  0.00    -0.282 C  
ENDBRANCH  22  23
BRANCH  22  25
HETATM   25  C   UNL     1     -12.123  12.989  66.311  1.00  0.00    -0.386 C  
HETATM   26  C   UNL     1     -11.906  13.968  67.452  1.00  0.00    -0.445 C  
ENDBRANCH  22  25
ENDBRANCH  19  22
ENDBRANCH  17  19
ENDBRANCH   3  17
BRANCH   7  27
HETATM   27  C   UNL     1      -8.500   7.289  65.023  1.00  0.00     0.025 C  
BRANCH  27  28
HETATM   28  C   UNL     1      -7.031   7.017  65.370  1.00  0.00    -0.056 C  
HETATM   29  C   UNL     1      -6.820   5.577  65.813  1.00  0.00    -0.057 C  
ENDBRANCH  27  28
ENDBRANCH   7  27
TORSDOF 7
ENDMDL
MODEL      101
REMARK 921   NORMALIZED FREE ENERGY PREDICTED BY IDOCK:   -4.28 KCAL/MOL
REMARK 922        TOTAL FREE ENERGY PREDICTED BY IDOCK:   -7.25 KCAL/MOL
REMARK 923 INTER-LIGAND FREE ENERGY PREDICTED BY IDOCK:   -6.09 KCAL/MOL
REMARK 924 INTRA-LIGAND FREE ENERGY PREDICTED BY IDOCK:   -1.16 KCAL/MOL
REMARK 927      BINDING AFFINITY PREDICTED BY RF-SCORE:    0.00 PKD
ROOT
HETATM    1  C   UNL     1     -11.290   8.721  70.743  1.00  0.00    -0.313 C  
HETATM    2  C   UNL     1     -11.659   7.316  71.243  1.00  0.00    -0.316 C  
HETATM    3  C   UNL     1     -10.815   6.236  70.560  1.00  0.00    -0.288 C  
HETATM    4  C   UNL     1     -12.096  11.142  70.766  1.00  0.00    -0.458 A  
HETATM    5  C   UNL     1     -10.971   6.409  69.041  1.00  0.00    -0.348 C  
HETATM    6  C   UNL     1     -11.834  13.743  69.737  1.00  0.00    -0.394 A  
HETATM    7  N   UNL     1     -10.495   7.727  68.586  1.00  0.00    -0.196 NA 
HETATM    8  O   UNL     1     -13.427  12.016  72.538  1.00  0.00    -0.590 OA 
HETATM    9  C   UNL     1     -11.278   8.826  69.196  1.00  0.00     0.293 C  
HETATM   10  C   UNL     1     -11.241  12.666  69.079  1.00  0.00    -0.322 A  
HETATM   11  C   UNL     1     -12.569  13.529  70.897  1.00  0.00    -0.414 A  
HETATM   12  C   UNL     1     -11.383  11.359  69.574  1.00  0.00    -0.357 A  
HETATM   13  C   UNL     1     -12.699  12.237  71.402  1.00  0.00    -0.248 A  
HETATM   14  H   UNL     1     -13.515  11.135  72.882  1.00  0.00     0.000 HD 
HETATM   15  C   UNL     1     -12.271   9.752  71.326  1.00  0.00    -0.465 C  
HETATM   16  C   UNL     1     -10.717  10.221  68.833  1.00  0.00    -0.256 C  
ENDROOT
BRANCH   3  17
HETATM   17  N   UNL     1      -9.384   6.336  71.030  1.00  0.00    -0.160 N  
HETATM   18  H   UNL     1      -8.797   7.150  70.847  1.00  0.00     0.000 HD 
BRANCH  17  19
HETATM   19  S   UNL     1      -8.838   4.990  71.881  1.00  0.00    -0.130 S  
HETATM   20  O   UNL     1      -9.851   3.970  71.931  1.00  0.00    -0.161 OA 
HETATM   21  O   UNL     1      -8.233   5.520  73.080  1.00  0.00    -0.117 OA 
BRANCH  19  22
HETATM   22  N   UNL     1      -7.602   4.470  70.822  1.00  0.00    -0.052 N  
BRANCH  22  23
HETATM   23  C   UNL     1      -7.023   5.574  69.993  1.00  0.00    -0.061 C  
HETATM   24  C   UNL     1      -5.737   6.160  70.562  1.00  0.00    -0.018 C  
ENDBRANCH  22  23
BRANCH  22  25
HETATM   25  C   UNL     1      -7.945   3.221  70.085  1.00  0.00    -0.045 C  
HETATM   26  C   UNL     1      -8.142   3.439  68.593  1.00  0.00    -0.070 C  
ENDBRANCH  22  25
ENDBRANCH  19  22
ENDBRANCH  17  19
ENDBRANCH   3  17
BRANCH   7  27
HETATM   27  C   UNL     1     -10.364   7.763  67.123  1.00  0.00    -0.319 C  
BRANCH  27  28
HETATM   28  C   UNL     1      -8.943   7.559  66.581  1.00  0.00    -0.177 C  
HETATM   29  C   UNL     1      -7.897   8.102  67.542  1.00  0.00    -0.110 C  
ENDBRANCH  27  28
ENDBRANCH   7  27
TORSDOF 7
ENDMDL
MODEL      102
REMARK 921   NORMALIZED FREE ENERGY PREDICTED BY IDOCK:   -4.25 KCAL/MOL
REMARK 922        TOTAL FREE ENERGY PREDICTED BY IDOCK:   -7.20 KCAL/MOL
REMARK 923 INTER-LIGAND FREE ENERGY PREDICTED BY IDOCK:   -6.37 KCAL/MOL
REMARK 924 INTRA-LIGAND FREE ENERGY PREDICTED BY IDOCK:   -0.82 KCAL/MOL
REMARK 927      BINDING AFFINITY PREDICTED BY RF-SCORE:    0.00 PKD
ROOT
HETATM    1  C   UNL     1      -9.338  10.455  66.280  1.00  0.00    -0.202 C  
HETATM    2  C   UNL     1      -8.744   9.039  66.230  1.00  0.00    -0.155 C  
HETATM    3  C   UNL     1      -7.727   8.815  67.353  1.00  0.00    -0.097 C  
HETATM    4  C   UNL     1     -10.720  12.108  64.912  1.00  0.00    -0.336 A  
HETATM    5  C   UNL     1      -6.671   9.928  67.258  1.00  0.00    -0.074 C  
HETATM    6  C   UNL     1     -11.654  14.739  64.604  1.00  0.00    -0.401 A  
HETATM    7  N   UNL     1      -7.266  11.265  67.430  1.00  0.00    -0.103 NA 
HETATM    8  O   UNL     1     -12.316  11.389  63.297  1.00  0.00    -0.805 OA 
HETATM    9  C   UNL     1      -8.253  11.560  66.366  1.00  0.00    -0.092 C  
HETATM   10  C   UNL     1     -10.605  14.466  65.480  1.00  0.00    -0.360 A  
HETATM   11  C   UNL     1     -12.230  13.709  63.868  1.00  0.00    -0.429 A  
HETATM   12  C   UNL     1     -10.117  13.157  65.627  1.00  0.00    -0.279 A  
HETATM   13  C   UNL     1     -11.761  12.406  64.022  1.00  0.00    -0.420 A  
HETATM   14  H   UNL     1     -11.997  10.501  63.402  1.00  0.00     0.000 HD 
HETATM   15  C   UNL     1     -10.220  10.690  65.042  1.00  0.00    -0.380 C  
HETATM   16  C   UNL     1      -8.983  12.905  66.595  1.00  0.00    -0.141 C  
ENDROOT
BRANCH   3  17
HETATM   17  N   UNL     1      -8.439   8.776  68.684  1.00  0.00    -0.128 N  
HETATM   18  H   UNL     1      -8.860   9.602  69.110  1.00  0.00     0.000 HD 
BRANCH  17  19
HETATM   19  S   UNL     1      -8.478   7.256  69.404  1.00  0.00    -0.134 S  
HETATM   20  O   UNL     1      -7.850   7.284  70.698  1.00  0.00    -0.092 OA 
HETATM   21  O   UNL     1      -8.056   6.337  68.374  1.00  0.00    -0.110 OA 
BRANCH  19  22
HETATM   22  N   UNL     1     -10.165   7.095  69.629  1.00  0.00    -0.202 N  
BRANCH  22  23
HETATM   23  C   UNL     1     -10.773   5.998  68.812  1.00  0.00    -0.308 C  
HETATM   24  C   UNL     1     -11.154   6.421  67.400  1.00  0.00    -0.412 C  
ENDBRANCH  22  23
BRANCH  22  25
HETATM   25  C   UNL     1     -10.889   8.398  69.602  1.00  0.00    -0.148 C  
HETATM   26  C   UNL     1     -11.269   8.901  70.985  1.00  0.00    -0.342 C  
ENDBRANCH  22  25
ENDBRANCH  19  22
ENDBRANCH  17  19
ENDBRANCH   3  17
BRANCH   7  27
HETATM   27  C   UNL     1      -6.226  12.280  67.644  1.00  0.00    -0.120 C  
BRANCH  27  28
HETATM   28  C   UNL     1      -5.549  12.255  69.020  1.00  0.00    -0.064 C  
HETATM   29  C   UNL     1      -6.449  11.625  70.072  1.00  0.00    -0.039 C  
ENDBRANCH  27  28
ENDBRANCH   7  27
TORSDOF 7
ENDMDL
MODEL      103
REMARK 921   NORMALIZED FREE ENERGY PREDICTED BY IDOCK:   -4.23 KCAL/MOL
REMARK 922        TOTAL FREE ENERGY PREDICTED BY IDOCK:   -7.18 KCAL/MOL
REMARK 923 INTER-LIGAND FREE ENERGY PREDICTED BY IDOCK:   -6.35 KCAL/MOL
REMARK 924 INTRA-LIGAND FREE ENERGY PREDICTED BY IDOCK:   -0.83 KCAL/MOL
REMARK 927      BINDING AFFINITY PREDICTED BY RF-SCORE:    0.00 PKD
ROOT
HETATM    1  C   UNL     1      -9.254  13.504  67.636  1.00  0.00    -0.214 C  
HETATM    2  C   UNL     1      -9.849  12.319  68.414  1.00  0.00    -0.199 C  
HETATM    3  C   UNL     1     -10.677  11.407  67.503  1.00  0.00    -0.222 C  
HETATM    4  C   UNL     1      -8.105  15.757  67.971  1.00  0.00    -0.143 A  
HETATM    5  C   UNL     1     -11.734  12.277  66.804  1.00  0.00    -0.342 C  
HETATM    6  C   UNL     1      -7.229  18.170  66.829  1.00  0.00    -0.234 A  
HETATM    7  N   UNL     1     -11.119  13.328  65.974  1.00  0.00    -0.282 NA 
HETATM    8  O   UNL     1      -6.782  16.228  69.895  1.00  0.00    -0.153 OA 
HETATM    9  C   UNL     1     -10.312  14.261  66.792  1.00  0.00    -0.274 C  
HETATM   10  C   UNL     1      -8.127  17.354  66.142  1.00  0.00    -0.255 A  
HETATM   11  C   UNL     1      -6.777  17.796  68.090  1.00  0.00    -0.204 A  
HETATM   12  C   UNL     1      -8.587  16.155  66.712  1.00  0.00    -0.282 A  
HETATM   13  C   UNL     1      -7.216  16.600  68.653  1.00  0.00    -0.192 A  
HETATM   14  H   UNL     1      -7.081  15.413  70.279  1.00  0.00     0.000 HD 
HETATM   15  C   UNL     1      -8.578  14.477  68.616  1.00  0.00    -0.168 C  
HETATM   16  C   UNL     1      -9.555  15.298  65.928  1.00  0.00    -0.377 C  
ENDROOT
BRANCH   3  17
HETATM   17  N   UNL     1      -9.765  10.685  66.542  1.00  0.00    -0.187 N  
HETATM   18  H   UNL     1      -9.289  11.155  65.772  1.00  0.00     0.000 HD 
BRANCH  17  19
HETATM   19  S   UNL     1      -9.602   9.038  66.847  1.00  0.00    -0.203 S  
HETATM   20  O   UNL     1      -8.642   8.443  65.956  1.00  0.00    -0.129 OA 
HETATM   21  O   UNL     1     -10.951   8.537  66.955  1.00  0.00    -0.095 OA 
BRANCH  19  22
HETATM   22  N   UNL     1      -8.913   9.109  68.410  1.00  0.00    -0.133 N  
BRANCH  22  23
HETATM   23  C   UNL     1      -7.418   9.191  68.399  1.00  0.00    -0.082 C  
HETATM   24  C   UNL     1      -6.848  10.148  69.437  1.00  0.00    -0.070 C  
ENDBRANCH  22  23
BRANCH  22  25
HETATM   25  C   UNL     1      -9.499   8.118  69.357  1.00  0.00    -0.162 C  
HETATM   26  C   UNL     1     -10.509   8.728  70.316  1.00  0.00    -0.231 C  
ENDBRANCH  22  25
ENDBRANCH  19  22
ENDBRANCH  17  19
ENDBRANCH   3  17
BRANCH   7  27
HETATM   27  C   UNL     1     -12.113  13.944  65.084  1.00  0.00    -0.403 C  
BRANCH  27  28
HETATM   28  C   UNL     1     -12.068  13.482  63.621  1.00  0.00    -0.459 C  
HETATM   29  C   UNL     1     -12.451  12.015  63.489  1.00  0.00    -0.654 C  
ENDBRANCH  27  28
ENDBRANCH   7  27
TORSDOF 7
ENDMDL
MODEL      104
REMARK 921   NORMALIZED FREE ENERGY PREDICTED BY IDOCK:   -4.23 KCAL/MOL
REMARK 922        TOTAL FREE ENERGY PREDICTED BY IDOCK:   -7.17 KCAL/MOL
REMARK 923 INTER-LIGAND FREE ENERGY PREDICTED BY IDOCK:   -6.43 KCAL/MOL
REMARK 924 INTRA-LIGAND FREE ENERGY PREDICTED BY IDOCK:   -0.74 KCAL/MOL
REMARK 927      BINDING AFFINITY PREDICTED BY RF-SCORE:    0.00 PKD
ROOT
HETATM    1  C   UNL     1     -10.035   7.702  69.217  1.00  0.00    -0.180 C  
HETATM    2  C   UNL     1     -10.292   7.729  67.703  1.00  0.00    -0.305 C  
HETATM    3  C   UNL     1     -10.153   9.145  67.133  1.00  0.00    -0.236 C  
HETATM    4  C   UNL     1     -10.288   6.214  71.275  1.00  0.00    -0.264 A  
HETATM    5  C   UNL     1     -11.089  10.066  67.933  1.00  0.00    -0.195 C  
HETATM    6  C   UNL     1     -10.214   6.001  74.076  1.00  0.00    -0.295 A  
HETATM    7  N   UNL     1     -10.734  10.102  69.362  1.00  0.00    -0.222 NA 
HETATM    8  O   UNL     1     -10.260   3.837  71.129  1.00  0.00    -0.043 OA 
HETATM    9  C   UNL     1     -10.860   8.766  69.987  1.00  0.00    -0.223 C  
HETATM   10  C   UNL     1     -10.267   7.255  73.469  1.00  0.00    -0.404 A  
HETATM   11  C   UNL     1     -10.213   4.852  73.293  1.00  0.00    -0.208 A  
HETATM   12  C   UNL     1     -10.324   7.373  72.070  1.00  0.00    -0.223 A  
HETATM   13  C   UNL     1     -10.252   4.962  71.905  1.00  0.00    -0.201 A  
HETATM   14  H   UNL     1     -10.286   3.913  70.182  1.00  0.00     0.000 HD 
HETATM   15  C   UNL     1     -10.350   6.302  69.770  1.00  0.00    -0.260 C  
HETATM   16  C   UNL     1     -10.373   8.754  71.455  1.00  0.00    -0.374 C  
ENDROOT
BRANCH   3  17
HETATM   17  N   UNL     1      -8.706   9.573  67.183  1.00  0.00    -0.131 N  
HETATM   18  H   UNL     1      -8.072   9.296  67.932  1.00  0.00     0.000 HD 
BRANCH  17  19
HETATM   19  S   UNL     1      -8.228  10.546  65.896  1.00  0.00    -0.154 S  
HETATM   20  O   UNL     1      -6.796  10.556  65.764  1.00  0.00    -0.130 OA 
HETATM   21  O   UNL     1      -8.986  11.766  66.041  1.00  0.00    -0.191 OA 
BRANCH  19  22
HETATM   22  N   UNL     1      -8.882   9.642  64.601  1.00  0.00    -0.205 N  
BRANCH  22  23
HETATM   23  C   UNL     1      -7.910   8.674  64.000  1.00  0.00    -0.146 C  
HETATM   24  C   UNL     1      -8.025   7.262  64.557  1.00  0.00    -0.112 C  
ENDBRANCH  22  23
BRANCH  22  25
HETATM   25  C   UNL     1      -9.650  10.472  63.631  1.00  0.00    -0.320 C  
HETATM   26  C   UNL     1      -8.843  10.862  62.403  1.00  0.00    -0.358 C  
ENDBRANCH  22  25
ENDBRANCH  19  22
ENDBRANCH  17  19
ENDBRANCH   3  17
BRANCH   7  27
HETATM   27  C   UNL     1     -11.425  11.203  70.048  1.00  0.00    -0.292 C  
BRANCH  27  28
HETATM   28  C   UNL     1     -12.783  10.849  70.667  1.00  0.00    -0.396 C  
HETATM   29  C   UNL     1     -13.274  11.949  71.597  1.00  0.00    -0.364 C  
ENDBRANCH  27  28
ENDBRANCH   7  27
TORSDOF 7
ENDMDL
MODEL      105
REMARK 921   NORMALIZED FREE ENERGY PREDICTED BY IDOCK:   -4.22 KCAL/MOL
REMARK 922        TOTAL FREE ENERGY PREDICTED BY IDOCK:   -7.17 KCAL/MOL
REMARK 923 INTER-LIGAND FREE ENERGY PREDICTED BY IDOCK:   -6.01 KCAL/MOL
REMARK 924 INTRA-LIGAND FREE ENERGY PREDICTED BY IDOCK:   -1.16 KCAL/MOL
REMARK 927      BINDING AFFINITY PREDICTED BY RF-SCORE:    0.00 PKD
ROOT
HETATM    1  C   UNL     1     -10.057   7.877  67.969  1.00  0.00    -0.235 C  
HETATM    2  C   UNL     1     -10.661   9.023  67.142  1.00  0.00    -0.291 C  
HETATM    3  C   UNL     1     -10.569  10.361  67.884  1.00  0.00    -0.232 C  
HETATM    4  C   UNL     1      -9.913   5.332  68.074  1.00  0.00    -0.202 A  
HETATM    5  C   UNL     1     -11.230  10.180  69.260  1.00  0.00    -0.196 C  
HETATM    6  C   UNL     1      -9.197   3.053  69.552  1.00  0.00    -0.217 A  
HETATM    7  N   UNL     1     -10.548   9.153  70.067  1.00  0.00    -0.218 NA 
HETATM    8  O   UNL     1     -10.072   3.974  66.124  1.00  0.00    -0.384 OA 
HETATM    9  C   UNL     1     -10.608   7.824  69.417  1.00  0.00    -0.208 C  
HETATM   10  C   UNL     1      -9.310   4.290  70.183  1.00  0.00    -0.228 A  
HETATM   11  C   UNL     1      -9.453   2.942  68.190  1.00  0.00    -0.220 A  
HETATM   12  C   UNL     1      -9.687   5.433  69.458  1.00  0.00    -0.238 A  
HETATM   13  C   UNL     1      -9.810   4.075  67.462  1.00  0.00    -0.057 A  
HETATM   14  H   UNL     1     -10.316   4.746  65.627  1.00  0.00     0.000 HD 
HETATM   15  C   UNL     1     -10.322   6.537  67.263  1.00  0.00    -0.283 C  
HETATM   16  C   UNL     1      -9.791   6.756  70.182  1.00  0.00    -0.187 C  
ENDROOT
BRANCH   3  17
HETATM   17  N   UNL     1      -9.128  10.800  67.966  1.00  0.00    -0.146 N  
HETATM   18  H   UNL     1      -8.489  10.470  68.690  1.00  0.00     0.000 HD 
BRANCH  17  19
HETATM   19  S   UNL     1      -8.663  11.880  66.762  1.00  0.00    -0.180 S  
HETATM   20  O   UNL     1      -7.859  12.941  67.306  1.00  0.00    -0.167 OA 
HETATM   21  O   UNL     1      -9.865  12.147  66.008  1.00  0.00    -0.235 OA 
BRANCH  19  22
HETATM   22  N   UNL     1      -7.651  10.856  65.841  1.00  0.00    -0.105 N  
BRANCH  22  23
HETATM   23  C   UNL     1      -8.301  10.339  64.595  1.00  0.00    -0.169 C  
HETATM   24  C   UNL     1      -8.260   8.822  64.465  1.00  0.00    -0.168 C  
ENDBRANCH  22  23
BRANCH  22  25
HETATM   25  C   UNL     1      -6.934   9.841  66.664  1.00  0.00    -0.085 C  
HETATM   26  C   UNL     1      -5.476  10.192  66.913  1.00  0.00    -0.045 C  
ENDBRANCH  22  25
ENDBRANCH  19  22
ENDBRANCH  17  19
ENDBRANCH   3  17
BRANCH   7  27
HETATM   27  C   UNL     1     -10.987   9.207  71.468  1.00  0.00    -0.364 C  
BRANCH  27  28
HETATM   28  C   UNL     1     -12.379   8.628  71.749  1.00  0.00    -0.402 C  
HETATM   29  C   UNL     1     -13.362   9.715  72.158  1.00  0.00    -0.545 C  
ENDBRANCH  27  28
ENDBRANCH   7  27
TORSDOF 7
ENDMDL
MODEL      106
REMARK 921   NORMALIZED FREE ENERGY PREDICTED BY IDOCK:   -4.17 KCAL/MOL
REMARK 922        TOTAL FREE ENERGY PREDICTED BY IDOCK:   -7.09 KCAL/MOL
REMARK 923 INTER-LIGAND FREE ENERGY PREDICTED BY IDOCK:   -6.24 KCAL/MOL
REMARK 924 INTRA-LIGAND FREE ENERGY PREDICTED BY IDOCK:   -0.84 KCAL/MOL
REMARK 927      BINDING AFFINITY PREDICTED BY RF-SCORE:    0.00 PKD
ROOT
HETATM    1  C   UNL     1      -9.218   9.797  65.660  1.00  0.00    -0.252 C  
HETATM    2  C   UNL     1      -8.440   8.571  65.156  1.00  0.00    -0.193 C  
HETATM    3  C   UNL     1      -7.483   8.033  66.225  1.00  0.00    -0.082 C  
HETATM    4  C   UNL     1     -10.707  11.707  64.855  1.00  0.00    -0.352 A  
HETATM    5  C   UNL     1      -6.580   9.193  66.673  1.00  0.00    -0.068 C  
HETATM    6  C   UNL     1     -11.957  14.153  65.443  1.00  0.00    -0.382 A  
HETATM    7  N   UNL     1      -7.358  10.299  67.260  1.00  0.00    -0.089 NA 
HETATM    8  O   UNL     1     -12.077  11.512  62.917  1.00  0.00    -0.913 OA 
HETATM    9  C   UNL     1      -8.298  10.882  66.276  1.00  0.00    -0.164 C  
HETATM   10  C   UNL     1     -10.946  13.666  66.270  1.00  0.00    -0.300 A  
HETATM   11  C   UNL     1     -12.339  13.433  64.316  1.00  0.00    -0.396 A  
HETATM   12  C   UNL     1     -10.300  12.454  65.975  1.00  0.00    -0.275 A  
HETATM   13  C   UNL     1     -11.714  12.222  64.027  1.00  0.00    -0.425 A  
HETATM   14  H   UNL     1     -11.651  10.686  62.720  1.00  0.00     0.000 HD 
HETATM   15  C   UNL     1     -10.034  10.401  64.506  1.00  0.00    -0.401 C  
HETATM   16  C   UNL     1      -9.213  11.961  66.903  1.00  0.00    -0.193 C  
ENDROOT
BRANCH   3  17
HETATM   17  N   UNL     1      -8.275   7.420  67.354  1.00  0.00    -0.112 N  
HETATM   18  H   UNL     1      -9.140   7.828  67.709  1.00  0.00     0.000 HD 
BRANCH  17  19
HETATM   19  S   UNL     1      -7.610   6.005  67.978  1.00  0.00    -0.094 S  
HETATM   20  O   UNL     1      -6.812   6.283  69.141  1.00  0.00    -0.058 OA 
HETATM   21  O   UNL     1      -7.072   5.304  66.837  1.00  0.00    -0.064 OA 
BRANCH  19  22
HETATM   22  N   UNL     1      -9.042   5.220  68.483  1.00  0.00    -0.108 N  
BRANCH  22  23
HETATM   23  C   UNL     1      -9.658   5.831  69.703  1.00  0.00    -0.152 C  
HETATM   24  C   UNL     1     -11.081   6.328  69.490  1.00  0.00    -0.476 C  
ENDBRANCH  22  23
BRANCH  22  25
HETATM   25  C   UNL     1      -8.927   3.734  68.492  1.00  0.00    -0.124 C  
HETATM   26  C   UNL     1      -9.403   3.103  69.790  1.00  0.00    -0.223 C  
ENDBRANCH  22  25
ENDBRANCH  19  22
ENDBRANCH  17  19
ENDBRANCH   3  17
BRANCH   7  27
HETATM   27  C   UNL     1      -6.479  11.250  67.954  1.00  0.00    -0.058 C  
BRANCH  27  28
HETATM   28  C   UNL     1      -6.732  11.409  69.459  1.00  0.00    -0.119 C  
HETATM   29  C   UNL     1      -7.375  10.163  70.050  1.00  0.00    -0.172 C  
ENDBRANCH  27  28
ENDBRANCH   7  27
TORSDOF 7
ENDMDL
MODEL      107
REMARK 921   NORMALIZED FREE ENERGY PREDICTED BY IDOCK:   -4.14 KCAL/MOL
REMARK 922        TOTAL FREE ENERGY PREDICTED BY IDOCK:   -7.06 KCAL/MOL
REMARK 923 INTER-LIGAND FREE ENERGY PREDICTED BY IDOCK:   -6.16 KCAL/MOL
REMARK 924 INTRA-LIGAND FREE ENERGY PREDICTED BY IDOCK:   -0.89 KCAL/MOL
REMARK 927      BINDING AFFINITY PREDICTED BY RF-SCORE:    0.00 PKD
ROOT
HETATM    1  C   UNL     1     -11.138  10.550  70.007  1.00  0.00    -0.376 C  
HETATM    2  C   UNL     1     -11.236   9.049  70.324  1.00  0.00    -0.232 C  
HETATM    3  C   UNL     1     -10.343   8.218  69.397  1.00  0.00    -0.222 C  
HETATM    4  C   UNL     1     -12.270  12.786  70.485  1.00  0.00    -0.389 A  
HETATM    5  C   UNL     1     -10.719   8.567  67.948  1.00  0.00    -0.082 C  
HETATM    6  C   UNL     1     -12.514  15.510  69.842  1.00  0.00    -0.243 A  
HETATM    7  N   UNL     1     -10.498   9.993  67.651  1.00  0.00    -0.228 NA 
HETATM    8  O   UNL     1     -13.469  13.191  72.503  1.00  0.00    -0.569 OA 
HETATM    9  C   UNL     1     -11.342  10.861  68.502  1.00  0.00    -0.299 C  
HETATM   10  C   UNL     1     -11.866  14.639  68.968  1.00  0.00    -0.346 A  
HETATM   11  C   UNL     1     -13.055  15.027  71.029  1.00  0.00    -0.482 A  
HETATM   12  C   UNL     1     -11.755  13.271  69.271  1.00  0.00    -0.380 A  
HETATM   13  C   UNL     1     -12.933  13.675  71.342  1.00  0.00    -0.347 A  
HETATM   14  H   UNL     1     -13.386  12.269  72.717  1.00  0.00     0.000 HD 
HETATM   15  C   UNL     1     -12.171  11.323  70.843  1.00  0.00    -0.460 C  
HETATM   16  C   UNL     1     -11.037  12.364  68.297  1.00  0.00    -0.283 C  
ENDROOT
BRANCH   3  17
HETATM   17  N   UNL     1      -8.892   8.481  69.719  1.00  0.00    -0.135 N  
HETATM   18  H   UNL     1      -8.490   9.419  69.739  1.00  0.00     0.000 HD 
BRANCH  17  19
HETATM   19  S   UNL     1      -7.992   7.096  70.042  1.00  0.00    -0.120 S  
HETATM   20  O   UNL     1      -8.829   6.053  70.572  1.00  0.00    -0.142 OA 
HETATM   21  O   UNL     1      -6.819   7.560  70.743  1.00  0.00    -0.046 OA 
BRANCH  19  22
HETATM   22  N   UNL     1      -7.549   6.671  68.447  1.00  0.00    -0.102 N  
BRANCH  22  23
HETATM   23  C   UNL     1      -8.381   5.567  67.871  1.00  0.00    -0.099 C  
HETATM   24  C   UNL     1      -8.363   5.513  66.349  1.00  0.00    -0.111 C  
ENDBRANCH  22  23
BRANCH  22  25
HETATM   25  C   UNL     1      -6.076   6.534  68.261  1.00  0.00    -0.028 C  
HETATM   26  C   UNL     1      -5.541   5.176  68.685  1.00  0.00    -0.015 C  
ENDBRANCH  22  25
ENDBRANCH  19  22
ENDBRANCH  17  19
ENDBRANCH   3  17
BRANCH   7  27
HETATM   27  C   UNL     1     -10.564  10.245  66.205  1.00  0.00    -0.054 C  
BRANCH  27  28
HETATM   28  C   UNL     1      -9.256  10.714  65.554  1.00  0.00    -0.228 C  
HETATM   29  C   UNL     1      -8.156  10.904  66.587  1.00  0.00    -0.147 C  
ENDBRANCH  27  28
ENDBRANCH   7  27
TORSDOF 7
ENDMDL
MODEL      108
REMARK 921   NORMALIZED FREE ENERGY PREDICTED BY IDOCK:   -4.14 KCAL/MOL
REMARK 922        TOTAL FREE ENERGY PREDICTED BY IDOCK:   -7.06 KCAL/MOL
REMARK 923 INTER-LIGAND FREE ENERGY PREDICTED BY IDOCK:   -6.20 KCAL/MOL
REMARK 924 INTRA-LIGAND FREE ENERGY PREDICTED BY IDOCK:   -0.85 KCAL/MOL
REMARK 927      BINDING AFFINITY PREDICTED BY RF-SCORE:    0.00 PKD
ROOT
HETATM    1  C   UNL     1     -10.029   5.790  68.079  1.00  0.00    -0.173 C  
HETATM    2  C   UNL     1     -10.510   5.319  69.460  1.00  0.00    -0.304 C  
HETATM    3  C   UNL     1     -10.403   6.436  70.504  1.00  0.00    -0.202 C  
HETATM    4  C   UNL     1      -9.380   4.919  65.770  1.00  0.00    -0.165 A  
HETATM    5  C   UNL     1      -8.953   6.946  70.498  1.00  0.00    -0.155 C  
HETATM    6  C   UNL     1      -8.218   5.457  63.269  1.00  0.00    -0.111 A  
HETATM    7  N   UNL     1      -8.570   7.497  69.186  1.00  0.00    -0.136 NA 
HETATM    8  O   UNL     1     -10.283   2.904  64.878  1.00  0.00    -0.368 OA 
HETATM    9  C   UNL     1      -8.635   6.467  68.125  1.00  0.00    -0.118 C  
HETATM   10  C   UNL     1      -8.027   6.335  64.334  1.00  0.00    -0.113 A  
HETATM   11  C   UNL     1      -8.974   4.303  63.448  1.00  0.00    -0.130 A  
HETATM   12  C   UNL     1      -8.586   6.066  65.594  1.00  0.00    -0.154 A  
HETATM   13  C   UNL     1      -9.545   4.040  64.691  1.00  0.00    -0.175 A  
HETATM   14  H   UNL     1     -10.673   2.724  65.725  1.00  0.00     0.000 HD 
HETATM   15  C   UNL     1      -9.995   4.596  67.109  1.00  0.00    -0.215 C  
HETATM   16  C   UNL     1      -8.359   7.051  66.719  1.00  0.00    -0.116 C  
ENDROOT
BRANCH   3  17
HETATM   17  N   UNL     1     -11.418   7.512  70.203  1.00  0.00    -0.471 N  
HETATM   18  H   UNL     1     -11.665   7.790  69.252  1.00  0.00     0.000 HD 
BRANCH  17  19
HETATM   19  S   UNL     1     -12.106   8.216  71.568  1.00  0.00    -0.307 S  
HETATM   20  O   UNL     1     -11.335   7.917  72.744  1.00  0.00    -0.382 OA 
HETATM   21  O   UNL     1     -13.514   7.909  71.483  1.00  0.00    -0.338 OA 
BRANCH  19  22
HETATM   22  N   UNL     1     -11.877   9.865  71.179  1.00  0.00    -0.356 N  
BRANCH  22  23
HETATM   23  C   UNL     1     -13.158  10.627  71.036  1.00  0.00    -0.286 C  
HETATM   24  C   UNL     1     -13.270  11.822  71.973  1.00  0.00    -0.460 C  
ENDBRANCH  22  23
BRANCH  22  25
HETATM   25  C   UNL     1     -10.872  10.082  70.100  1.00  0.00    -0.311 C  
HETATM   26  C   UNL     1     -11.392  10.944  68.961  1.00  0.00    -0.348 C  
ENDBRANCH  22  25
ENDBRANCH  19  22
ENDBRANCH  17  19
ENDBRANCH   3  17
BRANCH   7  27
HETATM   27  C   UNL     1      -7.312   8.250  69.279  1.00  0.00    -0.076 C  
BRANCH  27  28
HETATM   28  C   UNL     1      -7.432   9.768  69.097  1.00  0.00    -0.082 C  
HETATM   29  C   UNL     1      -6.619  10.520  70.140  1.00  0.00    -0.149 C  
ENDBRANCH  27  28
ENDBRANCH   7  27
TORSDOF 7
ENDMDL
MODEL      109
REMARK 921   NORMALIZED FREE ENERGY PREDICTED BY IDOCK:   -4.14 KCAL/MOL
REMARK 922        TOTAL FREE ENERGY PREDICTED BY IDOCK:   -7.05 KCAL/MOL
REMARK 923 INTER-LIGAND FREE ENERGY PREDICTED BY IDOCK:   -6.45 KCAL/MOL
REMARK 924 INTRA-LIGAND FREE ENERGY PREDICTED BY IDOCK:   -0.60 KCAL/MOL
REMARK 927      BINDING AFFINITY PREDICTED BY RF-SCORE:    0.00 PKD
ROOT
HETATM    1  C   UNL     1     -10.872  10.224  69.559  1.00  0.00    -0.292 C  
HETATM    2  C   UNL     1     -11.343   9.147  70.548  1.00  0.00    -0.300 C  
HETATM    3  C   UNL     1     -10.589   7.828  70.346  1.00  0.00    -0.227 C  
HETATM    4  C   UNL     1     -11.492  12.522  68.640  1.00  0.00    -0.348 A  
HETATM    5  C   UNL     1     -10.744   7.420  68.872  1.00  0.00    -0.130 C  
HETATM    6  C   UNL     1     -11.041  14.507  66.704  1.00  0.00    -0.333 A  
HETATM    7  N   UNL     1     -10.173   8.427  67.960  1.00  0.00    -0.203 NA 
HETATM    8  O   UNL     1     -12.738  14.100  69.917  1.00  0.00    -0.436 OA 
HETATM    9  C   UNL     1     -10.865   9.729  68.089  1.00  0.00    -0.214 C  
HETATM   10  C   UNL     1     -10.538  13.221  66.519  1.00  0.00    -0.289 A  
HETATM   11  C   UNL     1     -11.782  14.806  67.843  1.00  0.00    -0.367 A  
HETATM   12  C   UNL     1     -10.774  12.215  67.472  1.00  0.00    -0.265 A  
HETATM   13  C   UNL     1     -12.005  13.817  68.799  1.00  0.00    -0.365 A  
HETATM   14  H   UNL     1     -12.891  13.426  70.569  1.00  0.00     0.000 HD 
HETATM   15  C   UNL     1     -11.768  11.467  69.684  1.00  0.00    -0.419 C  
HETATM   16  C   UNL     1     -10.203  10.835  67.233  1.00  0.00    -0.245 C  
ENDROOT
BRANCH   3  17
HETATM   17  N   UNL     1      -9.150   7.995  70.773  1.00  0.00    -0.143 N  
HETATM   18  H   UNL     1      -8.706   8.908  70.878  1.00  0.00     0.000 HD 
BRANCH  17  19
HETATM   19  S   UNL     1      -8.342   6.547  71.061  1.00  0.00    -0.126 S  
HETATM   20  O   UNL     1      -6.986   6.613  70.585  1.00  0.00    -0.061 OA 
HETATM   21  O   UNL     1      -9.250   5.513  70.629  1.00  0.00    -0.145 OA 
BRANCH  19  22
HETATM   22  N   UNL     1      -8.313   6.577  72.770  1.00  0.00    -0.116 N  
BRANCH  22  23
HETATM   23  C   UNL     1      -9.067   5.447  73.399  1.00  0.00    -0.129 C  
HETATM   24  C   UNL     1     -10.543   5.743  73.624  1.00  0.00    -0.302 C  
ENDBRANCH  22  23
BRANCH  22  25
HETATM   25  C   UNL     1      -8.580   7.928  73.340  1.00  0.00    -0.227 C  
HETATM   26  C   UNL     1      -7.574   8.342  74.402  1.00  0.00    -0.275 C  
ENDBRANCH  22  25
ENDBRANCH  19  22
ENDBRANCH  17  19
ENDBRANCH   3  17
BRANCH   7  27
HETATM   27  C   UNL     1     -10.050   7.892  66.597  1.00  0.00    -0.240 C  
BRANCH  27  28
HETATM   28  C   UNL     1      -8.657   7.380  66.209  1.00  0.00    -0.148 C  
HETATM   29  C   UNL     1      -7.620   7.735  67.264  1.00  0.00    -0.104 C  
ENDBRANCH  27  28
ENDBRANCH   7  27
TORSDOF 7
ENDMDL
MODEL      110
REMARK 921   NORMALIZED FREE ENERGY PREDICTED BY IDOCK:   -4.11 KCAL/MOL
REMARK 922        TOTAL FREE ENERGY PREDICTED BY IDOCK:   -7.01 KCAL/MOL
REMARK 923 INTER-LIGAND FREE ENERGY PREDICTED BY IDOCK:   -6.27 KCAL/MOL
REMARK 924 INTRA-LIGAND FREE ENERGY PREDICTED BY IDOCK:   -0.74 KCAL/MOL
REMARK 927      BINDING AFFINITY PREDICTED BY RF-SCORE:    0.00 PKD
ROOT
HETATM    1  C   UNL     1      -9.760   9.883  69.049  1.00  0.00    -0.195 C  
HETATM    2  C   UNL     1      -9.088  11.258  68.906  1.00  0.00    -0.064 C  
HETATM    3  C   UNL     1      -9.211  11.799  67.478  1.00  0.00    -0.175 C  
HETATM    4  C   UNL     1      -9.943   7.887  70.628  1.00  0.00    -0.188 A  
HETATM    5  C   UNL     1      -8.645  10.735  66.523  1.00  0.00    -0.150 C  
HETATM    6  C   UNL     1     -10.784   5.235  71.017  1.00  0.00    -0.194 A  
HETATM    7  N   UNL     1      -9.393   9.468  66.607  1.00  0.00    -0.154 NA 
HETATM    8  O   UNL     1      -9.672   8.110  72.984  1.00  0.00    -0.275 OA 
HETATM    9  C   UNL     1      -9.306   8.876  67.960  1.00  0.00    -0.142 C  
HETATM   10  C   UNL     1     -10.697   5.761  69.729  1.00  0.00    -0.418 A  
HETATM   11  C   UNL     1     -10.440   6.020  72.112  1.00  0.00    -0.246 A  
HETATM   12  C   UNL     1     -10.258   7.080  69.522  1.00  0.00    -0.208 A  
HETATM   13  C   UNL     1     -10.021   7.334  71.914  1.00  0.00    -0.166 A  
HETATM   14  H   UNL     1      -9.387   9.005  72.849  1.00  0.00     0.000 HD 
HETATM   15  C   UNL     1      -9.466   9.307  70.444  1.00  0.00    -0.292 C  
HETATM   16  C   UNL     1     -10.186   7.611  68.108  1.00  0.00    -0.236 C  
ENDROOT
BRANCH   3  17
HETATM   17  N   UNL     1     -10.650  12.155  67.191  1.00  0.00    -0.222 N  
HETATM   18  H   UNL     1     -11.373  11.453  67.033  1.00  0.00     0.000 HD 
BRANCH  17  19
HETATM   19  S   UNL     1     -10.959  13.809  67.155  1.00  0.00    -0.294 S  
HETATM   20  O   UNL     1      -9.837  14.553  67.662  1.00  0.00    -0.220 OA 
HETATM   21  O   UNL     1     -12.283  13.960  67.709  1.00  0.00    -0.338 OA 
BRANCH  19  22
HETATM   22  N   UNL     1     -11.039  14.043  65.464  1.00  0.00    -0.302 N  
BRANCH  22  23
HETATM   23  C   UNL     1     -10.906  15.477  65.053  1.00  0.00    -0.450 C  
HETATM   24  C   UNL     1     -12.031  15.964  64.151  1.00  0.00     0.090 C  
ENDBRANCH  22  23
BRANCH  22  25
HETATM   25  C   UNL     1     -12.148  13.286  64.816  1.00  0.00    -0.409 C  
HETATM   26  C   UNL     1     -11.668  12.310  63.754  1.00  0.00    -0.566 C  
ENDBRANCH  22  25
ENDBRANCH  19  22
ENDBRANCH  17  19
ENDBRANCH   3  17
BRANCH   7  27
HETATM   27  C   UNL     1      -9.047   8.579  65.489  1.00  0.00    -0.091 C  
BRANCH  27  28
HETATM   28  C   UNL     1      -8.149   9.193  64.407  1.00  0.00    -0.145 C  
HETATM   29  C   UNL     1      -8.949   9.573  63.170  1.00  0.00    -0.217 C  
ENDBRANCH  27  28
ENDBRANCH   7  27
TORSDOF 7
ENDMDL
MODEL      111
REMARK 921   NORMALIZED FREE ENERGY PREDICTED BY IDOCK:   -4.09 KCAL/MOL
REMARK 922        TOTAL FREE ENERGY PREDICTED BY IDOCK:   -6.98 KCAL/MOL
REMARK 923 INTER-LIGAND FREE ENERGY PREDICTED BY IDOCK:   -6.16 KCAL/MOL
REMARK 924 INTRA-LIGAND FREE ENERGY PREDICTED BY IDOCK:   -0.82 KCAL/MOL
REMARK 927      BINDING AFFINITY PREDICTED BY RF-SCORE:    0.00 PKD
ROOT
HETATM    1  C   UNL     1      -9.678   9.087  70.007  1.00  0.00    -0.203 C  
HETATM    2  C   UNL     1      -9.173  10.317  69.238  1.00  0.00    -0.215 C  
HETATM    3  C   UNL     1      -9.970  10.541  67.949  1.00  0.00    -0.169 C  
HETATM    4  C   UNL     1      -9.061   7.517  71.923  1.00  0.00    -0.153 A  
HETATM    5  C   UNL     1      -9.916   9.239  67.132  1.00  0.00    -0.216 C  
HETATM    6  C   UNL     1      -9.583   5.120  73.292  1.00  0.00    -0.152 A  
HETATM    7  N   UNL     1     -10.518   8.109  67.860  1.00  0.00    -0.217 NA 
HETATM    8  O   UNL     1      -7.701   8.222  73.747  1.00  0.00    -0.179 OA 
HETATM    9  C   UNL     1      -9.788   7.823  69.116  1.00  0.00    -0.173 C  
HETATM   10  C   UNL     1     -10.127   5.338  72.027  1.00  0.00    -0.247 A  
HETATM   11  C   UNL     1      -8.766   6.086  73.872  1.00  0.00    -0.123 A  
HETATM   12  C   UNL     1      -9.857   6.525  71.325  1.00  0.00    -0.197 A  
HETATM   13  C   UNL     1      -8.508   7.272  73.187  1.00  0.00    -0.123 A  
HETATM   14  H   UNL     1      -7.525   9.031  73.280  1.00  0.00     0.000 HD 
HETATM   15  C   UNL     1      -8.747   8.803  71.198  1.00  0.00    -0.265 C  
HETATM   16  C   UNL     1     -10.475   6.722  69.959  1.00  0.00    -0.241 C  
ENDROOT
BRANCH   3  17
HETATM   17  N   UNL     1     -11.375  10.976  68.288  1.00  0.00    -0.277 N  
HETATM   18  H   UNL     1     -12.131  10.316  68.469  1.00  0.00     0.000 HD 
BRANCH  17  19
HETATM   19  S   UNL     1     -11.588  12.645  68.342  1.00  0.00    -0.347 S  
HETATM   20  O   UNL     1     -12.557  13.070  67.368  1.00  0.00    -0.020 OA 
HETATM   21  O   UNL     1     -10.255  13.197  68.379  1.00  0.00    -0.243 OA 
BRANCH  19  22
HETATM   22  N   UNL     1     -12.288  12.789  69.895  1.00  0.00    -0.140 N  
BRANCH  22  23
HETATM   23  C   UNL     1     -11.883  14.035  70.618  1.00  0.00    -0.239 C  
HETATM   24  C   UNL     1     -12.960  15.111  70.640  1.00  0.00    -0.420 C  
ENDBRANCH  22  23
BRANCH  22  25
HETATM   25  C   UNL     1     -12.221  11.530  70.690  1.00  0.00    -0.378 C  
HETATM   26  C   UNL     1     -13.145  11.531  71.896  1.00  0.00    -0.492 C  
ENDBRANCH  22  25
ENDBRANCH  19  22
ENDBRANCH  17  19
ENDBRANCH   3  17
BRANCH   7  27
HETATM   27  C   UNL     1     -10.737   6.964  66.966  1.00  0.00    -0.362 C  
BRANCH  27  28
HETATM   28  C   UNL     1      -9.472   6.218  66.522  1.00  0.00    -0.181 C  
HETATM   29  C   UNL     1      -9.570   4.729  66.821  1.00  0.00    -0.184 C  
ENDBRANCH  27  28
ENDBRANCH   7  27
TORSDOF 7
ENDMDL
MODEL      112
REMARK 921   NORMALIZED FREE ENERGY PREDICTED BY IDOCK:   -4.07 KCAL/MOL
REMARK 922        TOTAL FREE ENERGY PREDICTED BY IDOCK:   -6.95 KCAL/MOL
REMARK 923 INTER-LIGAND FREE ENERGY PREDICTED BY IDOCK:   -6.16 KCAL/MOL
REMARK 924 INTRA-LIGAND FREE ENERGY PREDICTED BY IDOCK:   -0.79 KCAL/MOL
REMARK 927      BINDING AFFINITY PREDICTED BY RF-SCORE:    0.00 PKD
ROOT
HETATM    1  C   UNL     1     -10.284   8.233  68.818  1.00  0.00    -0.226 C  
HETATM    2  C   UNL     1     -10.755   8.953  67.545  1.00  0.00    -0.223 C  
HETATM    3  C   UNL     1     -10.875  10.465  67.765  1.00  0.00    -0.297 C  
HETATM    4  C   UNL     1     -10.054   5.910  69.849  1.00  0.00    -0.258 A  
HETATM    5  C   UNL     1     -11.795  10.691  68.975  1.00  0.00    -0.185 C  
HETATM    6  C   UNL     1      -9.557   4.369  72.144  1.00  0.00    -0.206 A  
HETATM    7  N   UNL     1     -11.248  10.085  70.202  1.00  0.00    -0.283 NA 
HETATM    8  O   UNL     1      -9.751   3.960  68.516  1.00  0.00    -0.137 OA 
HETATM    9  C   UNL     1     -11.117   8.616  70.069  1.00  0.00    -0.157 C  
HETATM   10  C   UNL     1      -9.851   5.726  72.262  1.00  0.00    -0.185 A  
HETATM   11  C   UNL     1      -9.524   3.772  70.889  1.00  0.00    -0.236 A  
HETATM   12  C   UNL     1     -10.121   6.502  71.122  1.00  0.00    -0.206 A  
HETATM   13  C   UNL     1      -9.774   4.540  69.754  1.00  0.00    -0.215 A  
HETATM   14  H   UNL     1      -9.922   4.483  67.742  1.00  0.00     0.000 HD 
HETATM   15  C   UNL     1     -10.340   6.712  68.603  1.00  0.00    -0.208 C  
HETATM   16  C   UNL     1     -10.428   7.972  71.296  1.00  0.00    -0.238 C  
ENDROOT
BRANCH   3  17
HETATM   17  N   UNL     1      -9.501  11.065  67.937  1.00  0.00    -0.162 N  
HETATM   18  H   UNL     1      -9.038  11.137  68.844  1.00  0.00     0.000 HD 
BRANCH  17  19
HETATM   19  S   UNL     1      -8.797  11.605  66.507  1.00  0.00    -0.175 S  
HETATM   20  O   UNL     1      -9.632  11.299  65.376  1.00  0.00    -0.216 OA 
HETATM   21  O   UNL     1      -7.422  11.174  66.575  1.00  0.00    -0.143 OA 
BRANCH  19  22
HETATM   22  N   UNL     1      -8.861  13.291  66.782  1.00  0.00    -0.177 N  
BRANCH  22  23
HETATM   23  C   UNL     1      -8.058  13.733  67.966  1.00  0.00    -0.163 C  
HETATM   24  C   UNL     1      -7.911  15.244  68.079  1.00  0.00    -0.135 C  
ENDBRANCH  22  23
BRANCH  22  25
HETATM   25  C   UNL     1     -10.239  13.851  66.691  1.00  0.00    -0.276 C  
HETATM   26  C   UNL     1     -10.493  14.615  65.402  1.00  0.00    -0.400 C  
ENDBRANCH  22  25
ENDBRANCH  19  22
ENDBRANCH  17  19
ENDBRANCH   3  17
BRANCH   7  27
HETATM   27  C   UNL     1     -11.966  10.564  71.391  1.00  0.00    -0.230 C  
BRANCH  27  28
HETATM   28  C   UNL     1     -13.484  10.337  71.385  1.00  0.00    -0.303 C  
HETATM   29  C   UNL     1     -13.877   9.178  72.289  1.00  0.00    -0.527 C  
ENDBRANCH  27  28
ENDBRANCH   7  27
TORSDOF 7
ENDMDL
MODEL      113
REMARK 921   NORMALIZED FREE ENERGY PREDICTED BY IDOCK:   -4.04 KCAL/MOL
REMARK 922        TOTAL FREE ENERGY PREDICTED BY IDOCK:   -6.91 KCAL/MOL
REMARK 923 INTER-LIGAND FREE ENERGY PREDICTED BY IDOCK:   -6.05 KCAL/MOL
REMARK 924 INTRA-LIGAND FREE ENERGY PREDICTED BY IDOCK:   -0.86 KCAL/MOL
REMARK 927      BINDING AFFINITY PREDICTED BY RF-SCORE:    0.00 PKD
ROOT
HETATM    1  C   UNL     1      -9.802  10.780  66.581  1.00  0.00    -0.241 C  
HETATM    2  C   UNL     1     -11.130  11.276  67.175  1.00  0.00    -0.364 C  
HETATM    3  C   UNL     1     -10.990  11.612  68.663  1.00  0.00    -0.220 C  
HETATM    4  C   UNL     1      -8.823   9.636  64.521  1.00  0.00    -0.257 A  
HETATM    5  C   UNL     1     -10.424  10.371  69.372  1.00  0.00    -0.238 C  
HETATM    6  C   UNL     1      -6.614   8.372  63.331  1.00  0.00    -0.085 A  
HETATM    7  N   UNL     1      -9.096   9.999  68.853  1.00  0.00    -0.150 NA 
HETATM    8  O   UNL     1      -9.827   9.829  62.369  1.00  0.00    -0.574 OA 
HETATM    9  C   UNL     1      -9.156   9.645  67.417  1.00  0.00    -0.130 C  
HETATM   10  C   UNL     1      -6.652   8.564  64.711  1.00  0.00    -0.065 A  
HETATM   11  C   UNL     1      -7.678   8.794  62.541  1.00  0.00    -0.119 A  
HETATM   12  C   UNL     1      -7.760   9.177  65.319  1.00  0.00    -0.099 A  
HETATM   13  C   UNL     1      -8.773   9.418  63.137  1.00  0.00    -0.213 A  
HETATM   14  H   UNL     1     -10.573  10.254  62.775  1.00  0.00     0.000 HD 
HETATM   15  C   UNL     1     -10.031  10.297  65.138  1.00  0.00    -0.395 C  
HETATM   16  C   UNL     1      -7.756   9.371  66.818  1.00  0.00    -0.098 C  
ENDROOT
BRANCH   3  17
HETATM   17  N   UNL     1     -10.128  12.841  68.828  1.00  0.00    -0.421 N  
HETATM   18  H   UNL     1      -9.109  12.802  68.863  1.00  0.00     0.000 HD 
BRANCH  17  19
HETATM   19  S   UNL     1     -10.992  14.280  68.951  1.00  0.00    -0.264 S  
HETATM   20  O   UNL     1     -11.145  14.671  70.326  1.00  0.00    -0.200 OA 
HETATM   21  O   UNL     1     -12.127  14.117  68.076  1.00  0.00    -0.351 OA 
BRANCH  19  22
HETATM   22  N   UNL     1      -9.874  15.342  68.212  1.00  0.00    -0.215 N  
BRANCH  22  23
HETATM   23  C   UNL     1      -9.245  14.779  66.975  1.00  0.00    -0.233 C  
HETATM   24  C   UNL     1      -9.340  15.697  65.765  1.00  0.00    -0.303 C  
ENDBRANCH  22  23
BRANCH  22  25
HETATM   25  C   UNL     1      -8.937  15.978  69.181  1.00  0.00    -0.252 C  
HETATM   26  C   UNL     1      -7.529  15.409  69.118  1.00  0.00    -0.189 C  
ENDBRANCH  22  25
ENDBRANCH  19  22
ENDBRANCH  17  19
ENDBRANCH   3  17
BRANCH   7  27
HETATM   27  C   UNL     1      -8.443   9.020  69.732  1.00  0.00    -0.132 C  
BRANCH  27  28
HETATM   28  C   UNL     1      -7.084   9.445  70.303  1.00  0.00    -0.097 C  
HETATM   29  C   UNL     1      -6.732  10.869  69.900  1.00  0.00    -0.147 C  
ENDBRANCH  27  28
ENDBRANCH   7  27
TORSDOF 7
ENDMDL
MODEL      114
REMARK 921   NORMALIZED FREE ENERGY PREDICTED BY IDOCK:   -4.04 KCAL/MOL
REMARK 922        TOTAL FREE ENERGY PREDICTED BY IDOCK:   -6.91 KCAL/MOL
REMARK 923 INTER-LIGAND FREE ENERGY PREDICTED BY IDOCK:   -6.18 KCAL/MOL
REMARK 924 INTRA-LIGAND FREE ENERGY PREDICTED BY IDOCK:   -0.74 KCAL/MOL
REMARK 927      BINDING AFFINITY PREDICTED BY RF-SCORE:    0.00 PKD
ROOT
HETATM    1  C   UNL     1      -9.594   9.117  67.864  1.00  0.00    -0.168 C  
HETATM    2  C   UNL     1     -10.943   9.853  67.835  1.00  0.00    -0.281 C  
HETATM    3  C   UNL     1     -11.110  10.769  69.052  1.00  0.00    -0.253 C  
HETATM    4  C   UNL     1      -8.325   7.198  66.761  1.00  0.00    -0.116 A  
HETATM    5  C   UNL     1     -10.902   9.916  70.313  1.00  0.00    -0.310 C  
HETATM    6  C   UNL     1      -6.093   5.492  66.802  1.00  0.00    -0.026 A  
HETATM    7  N   UNL     1      -9.554   9.323  70.359  1.00  0.00    -0.225 NA 
HETATM    8  O   UNL     1      -8.762   6.515  64.521  1.00  0.00    -0.339 OA 
HETATM    9  C   UNL     1      -9.324   8.410  69.217  1.00  0.00    -0.154 C  
HETATM   10  C   UNL     1      -6.427   6.238  67.932  1.00  0.00    -0.052 A  
HETATM   11  C   UNL     1      -6.875   5.581  65.656  1.00  0.00    -0.064 A  
HETATM   12  C   UNL     1      -7.552   7.079  67.929  1.00  0.00    -0.111 A  
HETATM   13  C   UNL     1      -7.983   6.427  65.641  1.00  0.00    -0.120 A  
HETATM   14  H   UNL     1      -9.517   7.091  64.511  1.00  0.00     0.000 HD 
HETATM   15  C   UNL     1      -9.542   8.089  66.721  1.00  0.00    -0.281 C  
HETATM   16  C   UNL     1      -7.873   7.874  69.174  1.00  0.00    -0.109 C  
ENDROOT
BRANCH   3  17
HETATM   17  N   UNL     1     -10.152  11.931  68.950  1.00  0.00    -0.404 N  
HETATM   18  H   UNL     1      -9.161  11.853  69.180  1.00  0.00     0.000 HD 
BRANCH  17  19
HETATM   19  S   UNL     1     -10.857  13.366  68.424  1.00  0.00    -0.273 S  
HETATM   20  O   UNL     1     -10.218  14.503  69.029  1.00  0.00    -0.234 OA 
HETATM   21  O   UNL     1     -12.280  13.149  68.527  1.00  0.00    -0.248 OA 
BRANCH  19  22
HETATM   22  N   UNL     1     -10.408  13.311  66.776  1.00  0.00    -0.255 N  
BRANCH  22  23
HETATM   23  C   UNL     1      -9.647  14.519  66.325  1.00  0.00    -0.304 C  
HETATM   24  C   UNL     1     -10.467  15.480  65.474  1.00  0.00    -0.407 C  
ENDBRANCH  22  23
BRANCH  22  25
HETATM   25  C   UNL     1     -11.515  12.873  65.878  1.00  0.00    -0.346 C  
HETATM   26  C   UNL     1     -11.051  11.962  64.753  1.00  0.00    -0.367 C  
ENDBRANCH  22  25
ENDBRANCH  19  22
ENDBRANCH  17  19
ENDBRANCH   3  17
BRANCH   7  27
HETATM   27  C   UNL     1      -9.265   8.776  71.692  1.00  0.00    -0.263 C  
BRANCH  27  28
HETATM   28  C   UNL     1      -9.623   7.298  71.893  1.00  0.00    -0.164 C  
HETATM   29  C   UNL     1     -11.065   7.131  72.348  1.00  0.00    -0.302 C  
ENDBRANCH  27  28
ENDBRANCH   7  27
TORSDOF 7
ENDMDL
MODEL      115
REMARK 921   NORMALIZED FREE ENERGY PREDICTED BY IDOCK:   -4.04 KCAL/MOL
REMARK 922        TOTAL FREE ENERGY PREDICTED BY IDOCK:   -6.91 KCAL/MOL
REMARK 923 INTER-LIGAND FREE ENERGY PREDICTED BY IDOCK:   -6.40 KCAL/MOL
REMARK 924 INTRA-LIGAND FREE ENERGY PREDICTED BY IDOCK:   -0.51 KCAL/MOL
REMARK 927      BINDING AFFINITY PREDICTED BY RF-SCORE:    0.00 PKD
ROOT
HETATM    1  C   UNL     1     -10.763   9.527  69.743  1.00  0.00    -0.259 C  
HETATM    2  C   UNL     1     -11.090  11.012  69.518  1.00  0.00    -0.322 C  
HETATM    3  C   UNL     1     -10.120  11.657  68.523  1.00  0.00    -0.206 C  
HETATM    4  C   UNL     1     -11.293   7.560  71.280  1.00  0.00    -0.284 A  
HETATM    5  C   UNL     1      -8.691  11.412  69.034  1.00  0.00     0.091 C  
HETATM    6  C   UNL     1     -10.654   4.952  72.105  1.00  0.00    -0.232 A  
HETATM    7  N   UNL     1      -8.378   9.975  69.123  1.00  0.00    -0.134 NA 
HETATM    8  O   UNL     1     -13.369   7.379  72.432  1.00  0.00    -0.483 OA 
HETATM    9  C   UNL     1      -9.270   9.285  70.082  1.00  0.00    -0.225 C  
HETATM   10  C   UNL     1      -9.751   5.686  71.338  1.00  0.00    -0.204 A  
HETATM   11  C   UNL     1     -11.870   5.518  72.475  1.00  0.00    -0.158 A  
HETATM   12  C   UNL     1     -10.051   6.998  70.936  1.00  0.00    -0.204 A  
HETATM   13  C   UNL     1     -12.180   6.813  72.066  1.00  0.00    -0.291 A  
HETATM   14  H   UNL     1     -13.581   8.262  72.153  1.00  0.00     0.000 HD 
HETATM   15  C   UNL     1     -11.649   8.968  70.868  1.00  0.00    -0.344 C  
HETATM   16  C   UNL     1      -9.044   7.754  70.099  1.00  0.00    -0.153 C  
ENDROOT
BRANCH   3  17
HETATM   17  N   UNL     1     -10.365  11.102  67.141  1.00  0.00    -0.204 N  
HETATM   18  H   UNL     1     -10.966  10.296  66.967  1.00  0.00     0.000 HD 
BRANCH  17  19
HETATM   19  S   UNL     1      -9.561  11.924  65.912  1.00  0.00    -0.211 S  
HETATM   20  O   UNL     1      -8.863  11.006  65.052  1.00  0.00    -0.173 OA 
HETATM   21  O   UNL     1      -8.883  13.016  66.567  1.00  0.00    -0.134 OA 
BRANCH  19  22
HETATM   22  N   UNL     1     -10.907  12.541  65.059  1.00  0.00    -0.281 N  
BRANCH  22  23
HETATM   23  C   UNL     1     -12.118  12.737  65.919  1.00  0.00    -0.426 C  
HETATM   24  C   UNL     1     -12.315  14.174  66.384  1.00  0.00    -0.431 C  
ENDBRANCH  22  23
BRANCH  22  25
HETATM   25  C   UNL     1     -11.144  11.857  63.756  1.00  0.00    -0.436 C  
HETATM   26  C   UNL     1     -12.579  11.973  63.269  1.00  0.00    -0.512 C  
ENDBRANCH  22  25
ENDBRANCH  19  22
ENDBRANCH  17  19
ENDBRANCH   3  17
BRANCH   7  27
HETATM   27  C   UNL     1      -6.937   9.761  69.312  1.00  0.00    -0.056 C  
BRANCH  27  28
HETATM   28  C   UNL     1      -6.275   8.795  68.321  1.00  0.00    -0.054 C  
HETATM   29  C   UNL     1      -7.121   8.615  67.069  1.00  0.00    -0.075 C  
ENDBRANCH  27  28
ENDBRANCH   7  27
TORSDOF 7
ENDMDL
MODEL      116
REMARK 921   NORMALIZED FREE ENERGY PREDICTED BY IDOCK:   -4.04 KCAL/MOL
REMARK 922        TOTAL FREE ENERGY PREDICTED BY IDOCK:   -6.90 KCAL/MOL
REMARK 923 INTER-LIGAND FREE ENERGY PREDICTED BY IDOCK:   -7.10 KCAL/MOL
REMARK 924 INTRA-LIGAND FREE ENERGY PREDICTED BY IDOCK:    0.20 KCAL/MOL
REMARK 927      BINDING AFFINITY PREDICTED BY RF-SCORE:    0.00 PKD
ROOT
HETATM    1  C   UNL     1     -10.329  13.076  67.961  1.00  0.00    -0.237 C  
HETATM    2  C   UNL     1     -10.978  11.750  68.387  1.00  0.00    -0.274 C  
HETATM    3  C   UNL     1     -10.533  10.592  67.488  1.00  0.00    -0.239 C  
HETATM    4  C   UNL     1     -10.479  15.598  68.322  1.00  0.00    -0.252 A  
HETATM    5  C   UNL     1     -10.836  10.985  66.033  1.00  0.00    -0.122 C  
HETATM    6  C   UNL     1      -9.695  18.166  67.498  1.00  0.00    -0.304 A  
HETATM    7  N   UNL     1     -10.101  12.197  65.627  1.00  0.00    -0.244 NA 
HETATM    8  O   UNL     1     -11.301  16.538  70.351  1.00  0.00    -0.496 OA 
HETATM    9  C   UNL     1     -10.491  13.366  66.446  1.00  0.00    -0.286 C  
HETATM   10  C   UNL     1      -9.488  17.069  66.664  1.00  0.00    -0.279 A  
HETATM   11  C   UNL     1     -10.304  17.993  68.736  1.00  0.00    -0.294 A  
HETATM   12  C   UNL     1      -9.894  15.783  67.058  1.00  0.00    -0.238 A  
HETATM   13  C   UNL     1     -10.694  16.717  69.139  1.00  0.00    -0.329 A  
HETATM   14  H   UNL     1     -11.566  15.668  70.626  1.00  0.00     0.000 HD 
HETATM   15  C   UNL     1     -10.930  14.232  68.778  1.00  0.00    -0.271 C  
HETATM   16  C   UNL     1      -9.644  14.620  66.124  1.00  0.00    -0.336 C  
ENDROOT
BRANCH   3  17
HETATM   17  N   UNL     1      -9.076  10.286  67.735  1.00  0.00    -0.134 N  
HETATM   18  H   UNL     1      -8.461  10.909  68.259  1.00  0.00     0.000 HD 
BRANCH  17  19
HETATM   19  S   UNL     1      -8.552   8.830  67.072  1.00  0.00    -0.116 S  
HETATM   20  O   UNL     1      -7.152   8.625  67.326  1.00  0.00    -0.077 OA 
HETATM   21  O   UNL     1      -9.094   8.806  65.735  1.00  0.00    -0.200 OA 
BRANCH  19  22
HETATM   22  N   UNL     1      -9.440   7.742  68.047  1.00  0.00    -0.144 N  
BRANCH  22  23
HETATM   23  C   UNL     1     -10.607   7.125  67.341  1.00  0.00    -0.302 C  
HETATM   24  C   UNL     1     -10.281   5.806  66.654  1.00  0.00    -0.261 C  
ENDBRANCH  22  23
BRANCH  22  25
HETATM   25  C   UNL     1      -9.717   8.268  69.414  1.00  0.00    -0.177 C  
HETATM   26  C   UNL     1     -10.823   7.515  70.134  1.00  0.00    -0.259 C  
ENDBRANCH  22  25
ENDBRANCH  19  22
ENDBRANCH  17  19
ENDBRANCH   3  17
BRANCH   7  27
HETATM   27  C   UNL     1     -10.155  12.381  64.171  1.00  0.00    -0.295 C  
BRANCH  27  28
HETATM   28  C   UNL     1     -11.264  11.609  63.445  1.00  0.00    -0.401 C  
HETATM   29  C   UNL     1     -12.578  12.376  63.461  1.00  0.00    -0.535 C  
ENDBRANCH  27  28
ENDBRANCH   7  27
TORSDOF 7
ENDMDL
MODEL      117
REMARK 921   NORMALIZED FREE ENERGY PREDICTED BY IDOCK:   -4.04 KCAL/MOL
REMARK 922        TOTAL FREE ENERGY PREDICTED BY IDOCK:   -6.90 KCAL/MOL
REMARK 923 INTER-LIGAND FREE ENERGY PREDICTED BY IDOCK:   -5.92 KCAL/MOL
REMARK 924 INTRA-LIGAND FREE ENERGY PREDICTED BY IDOCK:   -0.99 KCAL/MOL
REMARK 927      BINDING AFFINITY PREDICTED BY RF-SCORE:    0.00 PKD
ROOT
HETATM    1  C   UNL     1     -10.061   7.116  68.374  1.00  0.00    -0.182 C  
HETATM    2  C   UNL     1     -10.649   8.384  67.735  1.00  0.00    -0.238 C  
HETATM    3  C   UNL     1     -10.650   9.560  68.717  1.00  0.00    -0.214 C  
HETATM    4  C   UNL     1      -9.838   4.599  68.015  1.00  0.00    -0.174 A  
HETATM    5  C   UNL     1     -11.390   9.110  69.987  1.00  0.00    -0.090 C  
HETATM    6  C   UNL     1      -9.140   2.099  69.090  1.00  0.00    -0.180 A  
HETATM    7  N   UNL     1     -10.725   7.965  70.634  1.00  0.00    -0.224 NA 
HETATM    8  O   UNL     1      -9.828   3.628  65.840  1.00  0.00    -0.362 OA 
HETATM    9  C   UNL     1     -10.700   6.781  69.746  1.00  0.00    -0.249 C  
HETATM   10  C   UNL     1      -9.334   3.194  69.930  1.00  0.00    -0.228 A  
HETATM   11  C   UNL     1      -9.306   2.241  67.716  1.00  0.00    -0.208 A  
HETATM   12  C   UNL     1      -9.703   4.444  69.405  1.00  0.00    -0.267 A  
HETATM   13  C   UNL     1      -9.655   3.482  67.188  1.00  0.00    -0.118 A  
HETATM   14  H   UNL     1     -10.066   4.474  65.480  1.00  0.00     0.000 HD 
HETATM   15  C   UNL     1     -10.235   5.926  67.415  1.00  0.00    -0.237 C  
HETATM   16  C   UNL     1      -9.897   5.606  70.354  1.00  0.00    -0.253 C  
ENDROOT
BRANCH   3  17
HETATM   17  N   UNL     1      -9.232  10.006  68.977  1.00  0.00    -0.167 N  
HETATM   18  H   UNL     1      -8.594   9.496  69.588  1.00  0.00     0.000 HD 
BRANCH  17  19
HETATM   19  S   UNL     1      -8.792  11.418  68.173  1.00  0.00    -0.167 S  
HETATM   20  O   UNL     1      -7.416  11.747  68.429  1.00  0.00    -0.091 OA 
HETATM   21  O   UNL     1      -9.859  12.353  68.437  1.00  0.00    -0.217 OA 
BRANCH  19  22
HETATM   22  N   UNL     1      -8.922  10.873  66.558  1.00  0.00    -0.163 N  
BRANCH  22  23
HETATM   23  C   UNL     1      -7.613  10.460  65.961  1.00  0.00    -0.137 C  
HETATM   24  C   UNL     1      -7.388   8.954  65.956  1.00  0.00    -0.090 C  
ENDBRANCH  22  23
BRANCH  22  25
HETATM   25  C   UNL     1      -9.771  11.754  65.706  1.00  0.00    -0.237 C  
HETATM   26  C   UNL     1     -10.373  11.033  64.510  1.00  0.00    -0.420 C  
ENDBRANCH  22  25
ENDBRANCH  19  22
ENDBRANCH  17  19
ENDBRANCH   3  17
BRANCH   7  27
HETATM   27  C   UNL     1     -11.253   7.746  71.988  1.00  0.00    -0.278 C  
BRANCH  27  28
HETATM   28  C   UNL     1     -10.224   7.834  73.122  1.00  0.00    -0.398 C  
HETATM   29  C   UNL     1     -10.116   6.519  73.879  1.00  0.00    -0.329 C  
ENDBRANCH  27  28
ENDBRANCH   7  27
TORSDOF 7
ENDMDL
MODEL      118
REMARK 921   NORMALIZED FREE ENERGY PREDICTED BY IDOCK:   -4.03 KCAL/MOL
REMARK 922        TOTAL FREE ENERGY PREDICTED BY IDOCK:   -6.89 KCAL/MOL
REMARK 923 INTER-LIGAND FREE ENERGY PREDICTED BY IDOCK:   -6.08 KCAL/MOL
REMARK 924 INTRA-LIGAND FREE ENERGY PREDICTED BY IDOCK:   -0.81 KCAL/MOL
REMARK 927      BINDING AFFINITY PREDICTED BY RF-SCORE:    0.00 PKD
ROOT
HETATM    1  C   UNL     1      -9.803   8.573  69.507  1.00  0.00    -0.187 C  
HETATM    2  C   UNL     1      -9.511  10.047  69.185  1.00  0.00    -0.214 C  
HETATM    3  C   UNL     1      -8.842  10.202  67.815  1.00  0.00    -0.125 C  
HETATM    4  C   UNL     1     -10.474   7.027  71.423  1.00  0.00    -0.225 A  
HETATM    5  C   UNL     1      -7.591   9.309  67.801  1.00  0.00    -0.084 C  
HETATM    6  C   UNL     1     -10.764   4.394  72.360  1.00  0.00    -0.115 A  
HETATM    7  N   UNL     1      -7.927   7.888  67.995  1.00  0.00    -0.126 NA 
HETATM    8  O   UNL     1     -11.773   7.789  73.268  1.00  0.00    -0.659 OA 
HETATM    9  C   UNL     1      -8.566   7.658  69.311  1.00  0.00    -0.136 C  
HETATM   10  C   UNL     1     -10.020   4.651  71.209  1.00  0.00    -0.268 A  
HETATM   11  C   UNL     1     -11.353   5.445  73.054  1.00  0.00    -0.355 A  
HETATM   12  C   UNL     1      -9.852   5.965  70.743  1.00  0.00    -0.229 A  
HETATM   13  C   UNL     1     -11.204   6.749  72.587  1.00  0.00    -0.255 A  
HETATM   14  H   UNL     1     -11.671   8.678  72.949  1.00  0.00     0.000 HD 
HETATM   15  C   UNL     1     -10.314   8.452  70.952  1.00  0.00    -0.234 C  
HETATM   16  C   UNL     1      -9.042   6.196  69.487  1.00  0.00    -0.140 C  
ENDROOT
BRANCH   3  17
HETATM   17  N   UNL     1      -9.831   9.865  66.726  1.00  0.00    -0.190 N  
HETATM   18  H   UNL     1     -10.613   9.225  66.867  1.00  0.00     0.000 HD 
BRANCH  17  19
HETATM   19  S   UNL     1      -9.533  10.634  65.258  1.00  0.00    -0.242 S  
HETATM   20  O   UNL     1      -9.699   9.722  64.158  1.00  0.00    -0.152 OA 
HETATM   21  O   UNL     1      -8.308  11.370  65.458  1.00  0.00     0.040 OA 
BRANCH  19  22
HETATM   22  N   UNL     1     -10.841  11.734  65.247  1.00  0.00    -0.286 N  
BRANCH  22  23
HETATM   23  C   UNL     1     -11.204  12.215  63.877  1.00  0.00    -0.415 C  
HETATM   24  C   UNL     1     -12.657  11.958  63.500  1.00  0.00    -0.579 C  
ENDBRANCH  22  23
BRANCH  22  25
HETATM   25  C   UNL     1     -10.733  12.788  66.295  1.00  0.00    -0.270 C  
HETATM   26  C   UNL     1     -11.835  12.713  67.339  1.00  0.00    -0.393 C  
ENDBRANCH  22  25
ENDBRANCH  19  22
ENDBRANCH  17  19
ENDBRANCH   3  17
BRANCH   7  27
HETATM   27  C   UNL     1      -6.780   7.028  67.675  1.00  0.00    -0.068 C  
BRANCH  27  28
HETATM   28  C   UNL     1      -6.760   6.453  66.253  1.00  0.00    -0.056 C  
HETATM   29  C   UNL     1      -8.155   6.056  65.793  1.00  0.00    -0.123 C  
ENDBRANCH  27  28
ENDBRANCH   7  27
TORSDOF 7
ENDMDL
MODEL      119
REMARK 921   NORMALIZED FREE ENERGY PREDICTED BY IDOCK:   -4.00 KCAL/MOL
REMARK 922        TOTAL FREE ENERGY PREDICTED BY IDOCK:   -6.85 KCAL/MOL
REMARK 923 INTER-LIGAND FREE ENERGY PREDICTED BY IDOCK:   -6.02 KCAL/MOL
REMARK 924 INTRA-LIGAND FREE ENERGY PREDICTED BY IDOCK:   -0.83 KCAL/MOL
REMARK 927      BINDING AFFINITY PREDICTED BY RF-SCORE:    0.00 PKD
ROOT
HETATM    1  C   UNL     1      -9.759   5.853  68.762  1.00  0.00    -0.161 C  
HETATM    2  C   UNL     1      -9.542   6.389  70.185  1.00  0.00    -0.173 C  
HETATM    3  C   UNL     1      -9.903   7.874  70.289  1.00  0.00    -0.184 C  
HETATM    4  C   UNL     1      -9.242   3.853  67.264  1.00  0.00    -0.200 A  
HETATM    5  C   UNL     1      -9.098   8.628  69.218  1.00  0.00    -0.149 C  
HETATM    6  C   UNL     1      -9.223   2.768  64.672  1.00  0.00    -0.135 A  
HETATM    7  N   UNL     1      -9.423   8.164  67.858  1.00  0.00    -0.144 NA 
HETATM    8  O   UNL     1      -8.919   1.664  68.145  1.00  0.00    -0.098 OA 
HETATM    9  C   UNL     1      -9.086   6.735  67.678  1.00  0.00    -0.117 C  
HETATM   10  C   UNL     1      -9.371   4.142  64.856  1.00  0.00    -0.164 A  
HETATM   11  C   UNL     1      -9.069   1.933  65.774  1.00  0.00    -0.059 A  
HETATM   12  C   UNL     1      -9.362   4.697  66.147  1.00  0.00    -0.153 A  
HETATM   13  C   UNL     1      -9.077   2.476  67.057  1.00  0.00    -0.132 A  
HETATM   14  H   UNL     1      -8.924   2.034  69.019  1.00  0.00     0.000 HD 
HETATM   15  C   UNL     1      -9.226   4.414  68.665  1.00  0.00    -0.189 C  
HETATM   16  C   UNL     1      -9.533   6.192  66.300  1.00  0.00    -0.144 C  
ENDROOT
BRANCH   3  17
HETATM   17  N   UNL     1     -11.396   8.046  70.146  1.00  0.00    -0.445 N  
HETATM   18  H   UNL     1     -11.893   7.866  69.273  1.00  0.00     0.000 HD 
BRANCH  17  19
HETATM   19  S   UNL     1     -12.171   8.559  71.550  1.00  0.00    -0.322 S  
HETATM   20  O   UNL     1     -11.315   8.404  72.695  1.00  0.00    -0.372 OA 
HETATM   21  O   UNL     1     -13.485   7.964  71.496  1.00  0.00    -0.338 OA 
BRANCH  19  22
HETATM   22  N   UNL     1     -12.307  10.227  71.202  1.00  0.00    -0.360 N  
BRANCH  22  23
HETATM   23  C   UNL     1     -13.336  10.927  72.034  1.00  0.00    -0.289 C  
HETATM   24  C   UNL     1     -13.213  12.445  72.013  1.00  0.00    -0.514 C  
ENDBRANCH  22  23
BRANCH  22  25
HETATM   25  C   UNL     1     -12.345  10.523  69.741  1.00  0.00    -0.130 C  
HETATM   26  C   UNL     1     -11.231  11.452  69.287  1.00  0.00    -0.342 C  
ENDBRANCH  22  25
ENDBRANCH  19  22
ENDBRANCH  17  19
ENDBRANCH   3  17
BRANCH   7  27
HETATM   27  C   UNL     1      -8.889   9.086  66.846  1.00  0.00    -0.116 C  
BRANCH  27  28
HETATM   28  C   UNL     1      -9.934   9.918  66.090  1.00  0.00    -0.331 C  
HETATM   29  C   UNL     1      -9.466  11.352  65.893  1.00  0.00    -0.251 C  
ENDBRANCH  27  28
ENDBRANCH   7  27
TORSDOF 7
ENDMDL
MODEL      120
REMARK 921   NORMALIZED FREE ENERGY PREDICTED BY IDOCK:   -3.98 KCAL/MOL
REMARK 922        TOTAL FREE ENERGY PREDICTED BY IDOCK:   -6.82 KCAL/MOL
REMARK 923 INTER-LIGAND FREE ENERGY PREDICTED BY IDOCK:   -5.95 KCAL/MOL
REMARK 924 INTRA-LIGAND FREE ENERGY PREDICTED BY IDOCK:   -0.87 KCAL/MOL
REMARK 927      BINDING AFFINITY PREDICTED BY RF-SCORE:    0.00 PKD
ROOT
HETATM    1  C   UNL     1      -9.578  10.503  68.684  1.00  0.00    -0.171 C  
HETATM    2  C   UNL     1      -8.618   9.369  69.077  1.00  0.00    -0.135 C  
HETATM    3  C   UNL     1      -9.375   8.163  69.643  1.00  0.00    -0.159 C  
HETATM    4  C   UNL     1      -9.618  12.971  68.038  1.00  0.00    -0.224 A  
HETATM    5  C   UNL     1     -10.248   8.661  70.806  1.00  0.00    -0.204 C  
HETATM    6  C   UNL     1     -11.147  15.286  67.595  1.00  0.00    -0.323 A  
HETATM    7  N   UNL     1     -11.234   9.662  70.363  1.00  0.00    -0.265 NA 
HETATM    8  O   UNL     1      -7.772  14.028  66.965  1.00  0.00    -0.356 OA 
HETATM    9  C   UNL     1     -10.574  10.868  69.816  1.00  0.00    -0.074 C  
HETATM   10  C   UNL     1     -11.703  14.196  68.263  1.00  0.00    -0.383 A  
HETATM   11  C   UNL     1      -9.828  15.234  67.159  1.00  0.00    -0.225 A  
HETATM   12  C   UNL     1     -10.941  13.041  68.507  1.00  0.00    -0.290 A  
HETATM   13  C   UNL     1      -9.073  14.085  67.383  1.00  0.00    -0.209 A  
HETATM   14  H   UNL     1      -7.258  13.245  67.118  1.00  0.00     0.000 HD 
HETATM   15  C   UNL     1      -8.769  11.748  68.283  1.00  0.00    -0.167 C  
HETATM   16  C   UNL     1     -11.587  11.880  69.229  1.00  0.00    -0.376 C  
ENDROOT
BRANCH   3  17
HETATM   17  N   UNL     1     -10.165   7.496  68.544  1.00  0.00    -0.192 N  
HETATM   18  H   UNL     1     -10.695   8.021  67.846  1.00  0.00     0.000 HD 
BRANCH  17  19
HETATM   19  S   UNL     1     -10.100   5.815  68.565  1.00  0.00    -0.195 S  
HETATM   20  O   UNL     1     -10.639   5.265  67.350  1.00  0.00    -0.185 OA 
HETATM   21  O   UNL     1     -10.605   5.432  69.862  1.00  0.00    -0.307 OA 
BRANCH  19  22
HETATM   22  N   UNL     1      -8.405   5.599  68.548  1.00  0.00    -0.106 N  
BRANCH  22  23
HETATM   23  C   UNL     1      -7.855   5.307  67.186  1.00  0.00    -0.100 C  
HETATM   24  C   UNL     1      -6.979   6.419  66.626  1.00  0.00    -0.067 C  
ENDBRANCH  22  23
BRANCH  22  25
HETATM   25  C   UNL     1      -7.911   4.720  69.646  1.00  0.00    -0.066 C  
HETATM   26  C   UNL     1      -6.482   5.026  70.063  1.00  0.00    -0.035 C  
ENDBRANCH  22  25
ENDBRANCH  19  22
ENDBRANCH  17  19
ENDBRANCH   3  17
BRANCH   7  27
HETATM   27  C   UNL     1     -12.248   9.896  71.401  1.00  0.00    -0.408 C  
BRANCH  27  28
HETATM   28  C   UNL     1     -13.656   9.376  71.080  1.00  0.00    -0.214 C  
HETATM   29  C   UNL     1     -14.190   8.491  72.197  1.00  0.00    -0.516 C  
ENDBRANCH  27  28
ENDBRANCH   7  27
TORSDOF 7
ENDMDL
MODEL      121
REMARK 921   NORMALIZED FREE ENERGY PREDICTED BY IDOCK:   -3.94 KCAL/MOL
REMARK 922        TOTAL FREE ENERGY PREDICTED BY IDOCK:   -6.77 KCAL/MOL
REMARK 923 INTER-LIGAND FREE ENERGY PREDICTED BY IDOCK:   -5.87 KCAL/MOL
REMARK 924 INTRA-LIGAND FREE ENERGY PREDICTED BY IDOCK:   -0.90 KCAL/MOL
REMARK 927      BINDING AFFINITY PREDICTED BY RF-SCORE:    0.00 PKD
ROOT
HETATM    1  C   UNL     1     -10.629  10.874  68.728  1.00  0.00    -0.231 C  
HETATM    2  C   UNL     1     -10.690   9.354  68.948  1.00  0.00    -0.203 C  
HETATM    3  C   UNL     1      -9.891   8.598  67.882  1.00  0.00    -0.173 C  
HETATM    4  C   UNL     1     -11.715  13.060  69.470  1.00  0.00    -0.381 A  
HETATM    5  C   UNL     1     -10.411   9.041  66.505  1.00  0.00    -0.122 C  
HETATM    6  C   UNL     1     -12.032  15.819  69.044  1.00  0.00    -0.294 A  
HETATM    7  N   UNL     1     -10.226  10.486  66.286  1.00  0.00    -0.237 NA 
HETATM    8  O   UNL     1     -12.707  13.313  71.620  1.00  0.00    -0.306 OA 
HETATM    9  C   UNL     1     -10.984  11.285  67.275  1.00  0.00    -0.286 C  
HETATM   10  C   UNL     1     -11.471  15.016  68.052  1.00  0.00    -0.357 A  
HETATM   11  C   UNL     1     -12.449  15.251  70.243  1.00  0.00    -0.405 A  
HETATM   12  C   UNL     1     -11.326  13.633  68.246  1.00  0.00    -0.322 A  
HETATM   13  C   UNL     1     -12.292  13.882  70.448  1.00  0.00    -0.363 A  
HETATM   14  H   UNL     1     -12.600  12.380  71.761  1.00  0.00     0.000 HD 
HETATM   15  C   UNL     1     -11.576  11.577  69.714  1.00  0.00    -0.401 C  
HETATM   16  C   UNL     1     -10.706  12.802  67.145  1.00  0.00    -0.264 C  
ENDROOT
BRANCH   3  17
HETATM   17  N   UNL     1      -8.416   8.853  68.074  1.00  0.00    -0.125 N  
HETATM   18  H   UNL     1      -8.036   9.778  68.278  1.00  0.00     0.000 HD 
BRANCH  17  19
HETATM   19  S   UNL     1      -7.451   7.482  67.924  1.00  0.00    -0.107 S  
HETATM   20  O   UNL     1      -8.150   6.310  68.378  1.00  0.00    -0.110 OA 
HETATM   21  O   UNL     1      -6.168   7.860  68.467  1.00  0.00    -0.041 OA 
BRANCH  19  22
HETATM   22  N   UNL     1      -7.330   7.409  66.221  1.00  0.00    -0.081 N  
BRANCH  22  23
HETATM   23  C   UNL     1      -8.028   6.227  65.623  1.00  0.00    -0.115 C  
HETATM   24  C   UNL     1      -7.353   5.683  64.372  1.00  0.00    -0.065 C  
ENDBRANCH  22  23
BRANCH  22  25
HETATM   25  C   UNL     1      -5.951   7.668  65.717  1.00  0.00    -0.038 C  
HETATM   26  C   UNL     1      -5.772   9.066  65.149  1.00  0.00    -0.054 C  
ENDBRANCH  22  25
ENDBRANCH  19  22
ENDBRANCH  17  19
ENDBRANCH   3  17
BRANCH   7  27
HETATM   27  C   UNL     1     -10.437  10.836  64.875  1.00  0.00    -0.254 C  
BRANCH  27  28
HETATM   28  C   UNL     1      -9.169  10.918  64.016  1.00  0.00    -0.218 C  
HETATM   29  C   UNL     1      -9.251   9.991  62.813  1.00  0.00    -0.313 C  
ENDBRANCH  27  28
ENDBRANCH   7  27
TORSDOF 7
ENDMDL
MODEL      122
REMARK 921   NORMALIZED FREE ENERGY PREDICTED BY IDOCK:   -3.94 KCAL/MOL
REMARK 922        TOTAL FREE ENERGY PREDICTED BY IDOCK:   -6.77 KCAL/MOL
REMARK 923 INTER-LIGAND FREE ENERGY PREDICTED BY IDOCK:   -5.67 KCAL/MOL
REMARK 924 INTRA-LIGAND FREE ENERGY PREDICTED BY IDOCK:   -1.10 KCAL/MOL
REMARK 927      BINDING AFFINITY PREDICTED BY RF-SCORE:    0.00 PKD
ROOT
HETATM    1  C   UNL     1     -10.254   6.506  69.396  1.00  0.00    -0.214 C  
HETATM    2  C   UNL     1     -11.186   6.101  68.243  1.00  0.00    -0.192 C  
HETATM    3  C   UNL     1     -10.630   6.549  66.887  1.00  0.00    -0.305 C  
HETATM    4  C   UNL     1     -10.166   6.701  71.939  1.00  0.00    -0.203 A  
HETATM    5  C   UNL     1     -10.368   8.062  66.963  1.00  0.00    -0.344 C  
HETATM    6  C   UNL     1      -8.803   7.654  74.202  1.00  0.00    -0.280 A  
HETATM    7  N   UNL     1      -9.380   8.396  68.004  1.00  0.00    -0.136 NA 
HETATM    8  O   UNL     1     -11.483   5.314  73.359  1.00  0.00    -0.483 OA 
HETATM    9  C   UNL     1      -9.856   8.005  69.349  1.00  0.00    -0.181 C  
HETATM   10  C   UNL     1      -8.482   8.138  72.935  1.00  0.00    -0.259 A  
HETATM   11  C   UNL     1      -9.811   6.707  74.349  1.00  0.00    -0.349 A  
HETATM   12  C   UNL     1      -9.171   7.683  71.799  1.00  0.00    -0.167 A  
HETATM   13  C   UNL     1     -10.486   6.239  73.223  1.00  0.00    -0.248 A  
HETATM   14  H   UNL     1     -11.944   4.995  72.592  1.00  0.00     0.000 HD 
HETATM   15  C   UNL     1     -10.929   6.190  70.741  1.00  0.00    -0.365 C  
HETATM   16  C   UNL     1      -8.785   8.231  70.443  1.00  0.00    -0.139 C  
ENDROOT
BRANCH   3  17
HETATM   17  N   UNL     1      -9.398   5.744  66.551  1.00  0.00    -0.148 N  
HETATM   18  H   UNL     1      -8.487   5.924  66.975  1.00  0.00     0.000 HD 
BRANCH  17  19
HETATM   19  S   UNL     1      -9.654   4.526  65.418  1.00  0.00    -0.177 S  
HETATM   20  O   UNL     1      -8.690   4.605  64.354  1.00  0.00    -0.139 OA 
HETATM   21  O   UNL     1     -11.074   4.540  65.161  1.00  0.00    -0.219 OA 
BRANCH  19  22
HETATM   22  N   UNL     1      -9.281   3.164  66.381  1.00  0.00    -0.153 N  
BRANCH  22  23
HETATM   23  C   UNL     1      -8.355   3.472  67.517  1.00  0.00    -0.090 C  
HETATM   24  C   UNL     1      -8.874   3.015  68.874  1.00  0.00    -0.158 C  
ENDBRANCH  22  23
BRANCH  22  25
HETATM   25  C   UNL     1      -8.942   1.952  65.582  1.00  0.00    -0.109 C  
HETATM   26  C   UNL     1      -7.508   1.486  65.777  1.00  0.00    -0.057 C  
ENDBRANCH  22  25
ENDBRANCH  19  22
ENDBRANCH  17  19
ENDBRANCH   3  17
BRANCH   7  27
HETATM   27  C   UNL     1      -8.915   9.782  67.861  1.00  0.00    -0.118 C  
BRANCH  27  28
HETATM   28  C   UNL     1      -9.715  10.653  66.884  1.00  0.00    -0.213 C  
HETATM   29  C   UNL     1     -10.479  11.749  67.612  1.00  0.00    -0.223 C  
ENDBRANCH  27  28
ENDBRANCH   7  27
TORSDOF 7
ENDMDL
MODEL      123
REMARK 921   NORMALIZED FREE ENERGY PREDICTED BY IDOCK:   -3.88 KCAL/MOL
REMARK 922        TOTAL FREE ENERGY PREDICTED BY IDOCK:   -6.68 KCAL/MOL
REMARK 923 INTER-LIGAND FREE ENERGY PREDICTED BY IDOCK:   -5.77 KCAL/MOL
REMARK 924 INTRA-LIGAND FREE ENERGY PREDICTED BY IDOCK:   -0.91 KCAL/MOL
REMARK 927      BINDING AFFINITY PREDICTED BY RF-SCORE:    0.00 PKD
ROOT
HETATM    1  C   UNL     1     -10.309   6.640  69.237  1.00  0.00    -0.228 C  
HETATM    2  C   UNL     1     -11.218   6.344  68.034  1.00  0.00    -0.260 C  
HETATM    3  C   UNL     1     -10.577   6.800  66.719  1.00  0.00    -0.241 C  
HETATM    4  C   UNL     1     -10.313   6.735  71.787  1.00  0.00    -0.217 A  
HETATM    5  C   UNL     1     -10.213   8.286  66.864  1.00  0.00    -0.318 C  
HETATM    6  C   UNL     1      -8.982   7.507  74.137  1.00  0.00    -0.267 A  
HETATM    7  N   UNL     1      -9.248   8.511  67.955  1.00  0.00    -0.139 NA 
HETATM    8  O   UNL     1     -11.782   5.396  73.100  1.00  0.00    -0.526 OA 
HETATM    9  C   UNL     1      -9.806   8.107  69.264  1.00  0.00    -0.182 C  
HETATM   10  C   UNL     1      -8.576   8.012  72.903  1.00  0.00    -0.256 A  
HETATM   11  C   UNL     1     -10.058   6.629  74.207  1.00  0.00    -0.378 A  
HETATM   12  C   UNL     1      -9.247   7.649  71.724  1.00  0.00    -0.167 A  
HETATM   13  C   UNL     1     -10.717   6.252  73.039  1.00  0.00    -0.253 A  
HETATM   14  H   UNL     1     -12.231   5.139  72.303  1.00  0.00     0.000 HD 
HETATM   15  C   UNL     1     -11.060   6.324  70.541  1.00  0.00    -0.399 C  
HETATM   16  C   UNL     1      -8.768   8.216  70.407  1.00  0.00    -0.136 C  
ENDROOT
BRANCH   3  17
HETATM   17  N   UNL     1      -9.391   5.922  66.400  1.00  0.00    -0.155 N  
HETATM   18  H   UNL     1      -8.426   6.229  66.524  1.00  0.00     0.000 HD 
BRANCH  17  19
HETATM   19  S   UNL     1      -9.796   4.394  65.822  1.00  0.00    -0.238 S  
HETATM   20  O   UNL     1     -11.070   4.418  65.156  1.00  0.00    -0.230 OA 
HETATM   21  O   UNL     1      -9.527   3.492  66.916  1.00  0.00    -0.197 OA 
BRANCH  19  22
HETATM   22  N   UNL     1      -8.575   4.207  64.641  1.00  0.00    -0.116 N  
BRANCH  22  23
HETATM   23  C   UNL     1      -9.054   4.454  63.244  1.00  0.00    -0.137 C  
HETATM   24  C   UNL     1      -8.366   5.625  62.556  1.00  0.00    -0.097 C  
ENDBRANCH  22  23
BRANCH  22  25
HETATM   25  C   UNL     1      -7.751   2.981  64.834  1.00  0.00    -0.077 C  
HETATM   26  C   UNL     1      -6.287   3.279  65.115  1.00  0.00    -0.031 C  
ENDBRANCH  22  25
ENDBRANCH  19  22
ENDBRANCH  17  19
ENDBRANCH   3  17
BRANCH   7  27
HETATM   27  C   UNL     1      -8.682   9.865  67.884  1.00  0.00    -0.129 C  
BRANCH  27  28
HETATM   28  C   UNL     1      -9.636  10.958  67.385  1.00  0.00    -0.181 C  
HETATM   29  C   UNL     1     -10.255  11.727  68.542  1.00  0.00    -0.215 C  
ENDBRANCH  27  28
ENDBRANCH   7  27
TORSDOF 7
ENDMDL
MODEL      124
REMARK 921   NORMALIZED FREE ENERGY PREDICTED BY IDOCK:   -3.88 KCAL/MOL
REMARK 922        TOTAL FREE ENERGY PREDICTED BY IDOCK:   -6.68 KCAL/MOL
REMARK 923 INTER-LIGAND FREE ENERGY PREDICTED BY IDOCK:   -5.94 KCAL/MOL
REMARK 924 INTRA-LIGAND FREE ENERGY PREDICTED BY IDOCK:   -0.74 KCAL/MOL
REMARK 927      BINDING AFFINITY PREDICTED BY RF-SCORE:    0.00 PKD
ROOT
HETATM    1  C   UNL     1      -9.713   9.573  68.175  1.00  0.00    -0.166 C  
HETATM    2  C   UNL     1     -10.731  10.111  67.157  1.00  0.00    -0.286 C  
HETATM    3  C   UNL     1     -11.517  11.299  67.721  1.00  0.00    -0.275 C  
HETATM    4  C   UNL     1      -8.177   7.587  68.628  1.00  0.00    -0.129 A  
HETATM    5  C   UNL     1     -12.151  10.854  69.049  1.00  0.00    -0.169 C  
HETATM    6  C   UNL     1      -6.523   6.230  70.449  1.00  0.00    -0.040 A  
HETATM    7  N   UNL     1     -11.133  10.458  70.038  1.00  0.00    -0.294 NA 
HETATM    8  O   UNL     1      -7.260   6.270  66.868  1.00  0.00    -0.071 OA 
HETATM    9  C   UNL     1     -10.340   9.301  69.567  1.00  0.00    -0.216 C  
HETATM   10  C   UNL     1      -7.403   7.212  70.899  1.00  0.00    -0.075 A  
HETATM   11  C   UNL     1      -6.472   5.910  69.097  1.00  0.00    -0.042 A  
HETATM   12  C   UNL     1      -8.249   7.883  70.000  1.00  0.00    -0.119 A  
HETATM   13  C   UNL     1      -7.297   6.584  68.198  1.00  0.00    -0.090 A  
HETATM   14  H   UNL     1      -7.821   6.729  66.255  1.00  0.00     0.000 HD 
HETATM   15  C   UNL     1      -9.071   8.285  67.633  1.00  0.00    -0.139 C  
HETATM   16  C   UNL     1      -9.184   8.946  70.532  1.00  0.00    -0.239 C  
ENDROOT
BRANCH   3  17
HETATM   17  N   UNL     1     -10.603  12.492  67.864  1.00  0.00    -0.213 N  
HETATM   18  H   UNL     1      -9.889  12.558  68.590  1.00  0.00     0.000 HD 
BRANCH  17  19
HETATM   19  S   UNL     1     -10.862  13.703  66.724  1.00  0.00    -0.292 S  
HETATM   20  O   UNL     1     -12.257  14.046  66.648  1.00  0.00    -0.442 OA 
HETATM   21  O   UNL     1     -10.115  13.293  65.559  1.00  0.00    -0.292 OA 
BRANCH  19  22
HETATM   22  N   UNL     1     -10.033  14.988  67.487  1.00  0.00    -0.225 N  
BRANCH  22  23
HETATM   23  C   UNL     1      -8.636  15.180  66.982  1.00  0.00    -0.237 C  
HETATM   24  C   UNL     1      -7.579  14.465  67.811  1.00  0.00    -0.175 C  
ENDBRANCH  22  23
BRANCH  22  25
HETATM   25  C   UNL     1     -10.190  14.993  68.969  1.00  0.00    -0.242 C  
HETATM   26  C   UNL     1     -10.380  16.385  69.548  1.00  0.00    -0.278 C  
ENDBRANCH  22  25
ENDBRANCH  19  22
ENDBRANCH  17  19
ENDBRANCH   3  17
BRANCH   7  27
HETATM   27  C   UNL     1     -11.722  10.335  71.378  1.00  0.00    -0.227 C  
BRANCH  27  28
HETATM   28  C   UNL     1     -13.150  10.877  71.527  1.00  0.00    -0.503 C  
HETATM   29  C   UNL     1     -13.151  12.300  72.067  1.00  0.00    -0.461 C  
ENDBRANCH  27  28
ENDBRANCH   7  27
TORSDOF 7
ENDMDL
MODEL      125
REMARK 921   NORMALIZED FREE ENERGY PREDICTED BY IDOCK:   -3.84 KCAL/MOL
REMARK 922        TOTAL FREE ENERGY PREDICTED BY IDOCK:   -6.63 KCAL/MOL
REMARK 923 INTER-LIGAND FREE ENERGY PREDICTED BY IDOCK:   -5.74 KCAL/MOL
REMARK 924 INTRA-LIGAND FREE ENERGY PREDICTED BY IDOCK:   -0.89 KCAL/MOL
REMARK 927      BINDING AFFINITY PREDICTED BY RF-SCORE:    0.00 PKD
ROOT
HETATM    1  C   UNL     1      -9.208  10.012  67.676  1.00  0.00    -0.148 C  
HETATM    2  C   UNL     1      -7.979   9.091  67.623  1.00  0.00    -0.101 C  
HETATM    3  C   UNL     1      -8.344   7.645  67.975  1.00  0.00    -0.124 C  
HETATM    4  C   UNL     1      -9.879  12.474  67.683  1.00  0.00    -0.202 A  
HETATM    5  C   UNL     1      -9.045   7.658  69.343  1.00  0.00    -0.142 C  
HETATM    6  C   UNL     1     -11.903  14.383  68.069  1.00  0.00    -0.361 A  
HETATM    7  N   UNL     1     -10.283   8.457  69.319  1.00  0.00    -0.204 NA 
HETATM    8  O   UNL     1      -8.543  14.151  66.645  1.00  0.00    -0.423 OA 
HETATM    9  C   UNL     1     -10.006   9.875  68.999  1.00  0.00    -0.187 C  
HETATM   10  C   UNL     1     -12.078  13.075  68.518  1.00  0.00    -0.185 A  
HETATM   11  C   UNL     1     -10.717  14.749  67.441  1.00  0.00    -0.281 A  
HETATM   12  C   UNL     1     -11.065  12.117  68.347  1.00  0.00    -0.289 A  
HETATM   13  C   UNL     1      -9.715  13.799  67.254  1.00  0.00    -0.242 A  
HETATM   14  H   UNL     1      -7.860  13.504  66.518  1.00  0.00     0.000 HD 
HETATM   15  C   UNL     1      -8.767  11.473  67.483  1.00  0.00    -0.145 C  
HETATM   16  C   UNL     1     -11.301  10.708  68.844  1.00  0.00    -0.337 C  
ENDROOT
BRANCH   3  17
HETATM   17  N   UNL     1      -9.190   7.051  66.875  1.00  0.00    -0.144 N  
HETATM   18  H   UNL     1     -10.109   7.417  66.625  1.00  0.00     0.000 HD 
BRANCH  17  19
HETATM   19  S   UNL     1      -8.489   5.734  66.097  1.00  0.00    -0.135 S  
HETATM   20  O   UNL     1      -7.307   5.297  66.791  1.00  0.00    -0.083 OA 
HETATM   21  O   UNL     1      -8.460   6.091  64.699  1.00  0.00    -0.106 OA 
BRANCH  19  22
HETATM   22  N   UNL     1      -9.719   4.574  66.344  1.00  0.00    -0.188 N  
BRANCH  22  23
HETATM   23  C   UNL     1      -9.393   3.578  67.414  1.00  0.00    -0.206 C  
HETATM   24  C   UNL     1      -9.726   4.057  68.821  1.00  0.00    -0.143 C  
ENDBRANCH  22  23
BRANCH  22  25
HETATM   25  C   UNL     1     -10.257   4.006  65.076  1.00  0.00    -0.181 C  
HETATM   26  C   UNL     1      -9.534   2.746  64.627  1.00  0.00    -0.142 C  
ENDBRANCH  22  25
ENDBRANCH  19  22
ENDBRANCH  17  19
ENDBRANCH   3  17
BRANCH   7  27
HETATM   27  C   UNL     1     -11.090   8.212  70.522  1.00  0.00    -0.253 C  
BRANCH  27  28
HETATM   28  C   UNL     1     -11.710   6.813  70.630  1.00  0.00    -0.440 C  
HETATM   29  C   UNL     1     -11.298   6.121  71.921  1.00  0.00    -0.350 C  
ENDBRANCH  27  28
ENDBRANCH   7  27
TORSDOF 7
ENDMDL
MODEL      126
REMARK 921   NORMALIZED FREE ENERGY PREDICTED BY IDOCK:   -3.84 KCAL/MOL
REMARK 922        TOTAL FREE ENERGY PREDICTED BY IDOCK:   -6.63 KCAL/MOL
REMARK 923 INTER-LIGAND FREE ENERGY PREDICTED BY IDOCK:   -5.71 KCAL/MOL
REMARK 924 INTRA-LIGAND FREE ENERGY PREDICTED BY IDOCK:   -0.92 KCAL/MOL
REMARK 927      BINDING AFFINITY PREDICTED BY RF-SCORE:    0.00 PKD
ROOT
HETATM    1  C   UNL     1      -8.759  16.596  66.791  1.00  0.00    -0.256 C  
HETATM    2  C   UNL     1      -9.492  15.941  65.611  1.00  0.00    -0.217 C  
HETATM    3  C   UNL     1      -9.769  14.457  65.873  1.00  0.00    -0.276 C  
HETATM    4  C   UNL     1      -7.484  18.706  67.447  1.00  0.00    -0.226 A  
HETATM    5  C   UNL     1      -8.430  13.784  66.215  1.00  0.00     0.739 C  
HETATM    6  C   UNL     1      -5.838  20.001  69.320  1.00  0.00    -0.319 A  
HETATM    7  N   UNL     1      -7.817  14.363  67.424  1.00  0.00    -0.189 NA 
HETATM    8  O   UNL     1      -7.904  20.811  66.414  1.00  0.00    -0.520 OA 
HETATM    9  C   UNL     1      -7.506  15.798  67.238  1.00  0.00    -0.217 C  
HETATM   10  C   UNL     1      -6.010  18.619  69.375  1.00  0.00    -0.263 A  
HETATM   11  C   UNL     1      -6.471  20.740  68.326  1.00  0.00    -0.302 A  
HETATM   12  C   UNL     1      -6.814  17.959  68.432  1.00  0.00    -0.227 A  
HETATM   13  C   UNL     1      -7.284  20.093  67.399  1.00  0.00    -0.276 A  
HETATM   14  H   UNL     1      -8.458  20.370  65.781  1.00  0.00     0.000 HD 
HETATM   15  C   UNL     1      -8.355  18.031  66.416  1.00  0.00    -0.275 C  
HETATM   16  C   UNL     1      -6.978  16.459  68.534  1.00  0.00    -0.154 C  
ENDROOT
BRANCH   3  17
HETATM   17  N   UNL     1     -10.805  14.317  66.962  1.00  0.00    -0.293 N  
HETATM   18  H   UNL     1     -10.832  14.925  67.781  1.00  0.00     0.000 HD 
BRANCH  17  19
HETATM   19  S   UNL     1     -11.911  13.074  66.711  1.00  0.00    -0.370 S  
HETATM   20  O   UNL     1     -11.343  12.041  65.886  1.00  0.00    -0.330 OA 
HETATM   21  O   UNL     1     -13.148  13.731  66.362  1.00  0.00    -0.000 OA 
BRANCH  19  22
HETATM   22  N   UNL     1     -12.033  12.479  68.308  1.00  0.00    -0.296 N  
BRANCH  22  23
HETATM   23  C   UNL     1     -11.478  13.415  69.337  1.00  0.00    -0.274 C  
HETATM   24  C   UNL     1     -12.540  14.055  70.221  1.00  0.00    -0.354 C  
ENDBRANCH  22  23
BRANCH  22  25
HETATM   25  C   UNL     1     -11.615  11.054  68.440  1.00  0.00    -0.302 C  
HETATM   26  C   UNL     1     -10.215  10.889  69.008  1.00  0.00    -0.219 C  
ENDBRANCH  22  25
ENDBRANCH  19  22
ENDBRANCH  17  19
ENDBRANCH   3  17
BRANCH   7  27
HETATM   27  C   UNL     1      -6.715  13.521  67.909  1.00  0.00    -0.150 C  
BRANCH  27  28
HETATM   28  C   UNL     1      -6.886  12.958  69.326  1.00  0.00    -0.018 C  
HETATM   29  C   UNL     1      -5.652  13.210  70.178  1.00  0.00    -0.130 C  
ENDBRANCH  27  28
ENDBRANCH   7  27
TORSDOF 7
ENDMDL
MODEL      127
REMARK 921   NORMALIZED FREE ENERGY PREDICTED BY IDOCK:   -3.82 KCAL/MOL
REMARK 922        TOTAL FREE ENERGY PREDICTED BY IDOCK:   -6.60 KCAL/MOL
REMARK 923 INTER-LIGAND FREE ENERGY PREDICTED BY IDOCK:   -6.69 KCAL/MOL
REMARK 924 INTRA-LIGAND FREE ENERGY PREDICTED BY IDOCK:    0.09 KCAL/MOL
REMARK 927      BINDING AFFINITY PREDICTED BY RF-SCORE:    0.00 PKD
ROOT
HETATM    1  C   UNL     1     -11.418   9.294  70.961  1.00  0.00    -0.387 C  
HETATM    2  C   UNL     1     -11.656   7.902  71.567  1.00  0.00    -0.306 C  
HETATM    3  C   UNL     1     -10.774   6.840  70.902  1.00  0.00    -0.233 C  
HETATM    4  C   UNL     1     -12.396  11.649  70.885  1.00  0.00    -0.436 A  
HETATM    5  C   UNL     1     -11.026   6.903  69.387  1.00  0.00    -0.237 C  
HETATM    6  C   UNL     1     -12.380  14.190  69.686  1.00  0.00    -0.304 A  
HETATM    7  N   UNL     1     -10.673   8.219  68.826  1.00  0.00    -0.109 NA 
HETATM    8  O   UNL     1     -13.687  12.541  72.676  1.00  0.00    -0.601 OA 
HETATM    9  C   UNL     1     -11.499   9.298  69.413  1.00  0.00     0.280 C  
HETATM   10  C   UNL     1     -11.748  13.116  69.062  1.00  0.00    -0.367 A  
HETATM   11  C   UNL     1     -13.033  14.001  70.899  1.00  0.00    -0.347 A  
HETATM   12  C   UNL     1     -11.766  11.837  69.642  1.00  0.00    -0.413 A  
HETATM   13  C   UNL     1     -13.041  12.738  71.488  1.00  0.00    -0.286 A  
HETATM   14  H   UNL     1     -13.693  11.681  73.078  1.00  0.00     0.000 HD 
HETATM   15  C   UNL     1     -12.439  10.289  71.538  1.00  0.00    -0.524 C  
HETATM   16  C   UNL     1     -11.062  10.703  68.933  1.00  0.00    -0.314 C  
ENDROOT
BRANCH   3  17
HETATM   17  N   UNL     1      -9.331   7.069  71.279  1.00  0.00    -0.160 N  
HETATM   18  H   UNL     1      -8.692   7.626  70.711  1.00  0.00     0.000 HD 
BRANCH  17  19
HETATM   19  S   UNL     1      -8.864   6.327  72.716  1.00  0.00    -0.124 S  
HETATM   20  O   UNL     1      -9.596   6.863  73.832  1.00  0.00    -0.200 OA 
HETATM   21  O   UNL     1      -7.421   6.319  72.687  1.00  0.00    -0.097 OA 
BRANCH  19  22
HETATM   22  N   UNL     1      -9.431   4.744  72.411  1.00  0.00    -0.132 N  
BRANCH  22  23
HETATM   23  C   UNL     1      -9.225   4.299  70.996  1.00  0.00    -0.140 C  
HETATM   24  C   UNL     1      -9.167   2.786  70.830  1.00  0.00    -0.206 C  
ENDBRANCH  22  23
BRANCH  22  25
HETATM   25  C   UNL     1     -10.784   4.483  72.980  1.00  0.00    -0.225 C  
HETATM   26  C   UNL     1     -10.776   3.457  74.101  1.00  0.00    -0.255 C  
ENDBRANCH  22  25
ENDBRANCH  19  22
ENDBRANCH  17  19
ENDBRANCH   3  17
BRANCH   7  27
HETATM   27  C   UNL     1     -10.624   8.169  67.358  1.00  0.00    -0.255 C  
BRANCH  27  28
HETATM   28  C   UNL     1      -9.223   8.041  66.745  1.00  0.00    -0.206 C  
HETATM   29  C   UNL     1      -8.161   8.635  67.657  1.00  0.00    -0.107 C  
ENDBRANCH  27  28
ENDBRANCH   7  27
TORSDOF 7
ENDMDL
MODEL      128
REMARK 921   NORMALIZED FREE ENERGY PREDICTED BY IDOCK:   -3.81 KCAL/MOL
REMARK 922        TOTAL FREE ENERGY PREDICTED BY IDOCK:   -6.59 KCAL/MOL
REMARK 923 INTER-LIGAND FREE ENERGY PREDICTED BY IDOCK:   -5.71 KCAL/MOL
REMARK 924 INTRA-LIGAND FREE ENERGY PREDICTED BY IDOCK:   -0.88 KCAL/MOL
REMARK 927      BINDING AFFINITY PREDICTED BY RF-SCORE:    0.00 PKD
ROOT
HETATM    1  C   UNL     1      -9.384   8.430  70.126  1.00  0.00    -0.164 C  
HETATM    2  C   UNL     1      -8.952   9.901  70.018  1.00  0.00    -0.206 C  
HETATM    3  C   UNL     1      -8.580  10.274  68.579  1.00  0.00    -0.126 C  
HETATM    4  C   UNL     1      -9.850   6.590  71.831  1.00  0.00    -0.168 A  
HETATM    5  C   UNL     1      -7.508   9.281  68.100  1.00  0.00    -0.083 C  
HETATM    6  C   UNL     1     -10.319   3.862  72.313  1.00  0.00    -0.170 A  
HETATM    7  N   UNL     1      -8.002   7.893  68.108  1.00  0.00    -0.123 NA 
HETATM    8  O   UNL     1     -10.591   7.072  74.042  1.00  0.00    -0.443 OA 
HETATM    9  C   UNL     1      -8.369   7.456  69.473  1.00  0.00    -0.132 C  
HETATM   10  C   UNL     1      -9.811   4.279  71.084  1.00  0.00    -0.250 A  
HETATM   11  C   UNL     1     -10.581   4.797  73.309  1.00  0.00    -0.287 A  
HETATM   12  C   UNL     1      -9.554   5.639  70.839  1.00  0.00    -0.212 A  
HETATM   13  C   UNL     1     -10.344   6.148  73.066  1.00  0.00    -0.206 A  
HETATM   14  H   UNL     1     -10.430   7.994  73.877  1.00  0.00     0.000 HD 
HETATM   15  C   UNL     1      -9.584   8.058  71.605  1.00  0.00    -0.218 C  
HETATM   16  C   UNL     1      -9.009   6.047  69.489  1.00  0.00    -0.131 C  
ENDROOT
BRANCH   3  17
HETATM   17  N   UNL     1      -9.819  10.279  67.718  1.00  0.00    -0.166 N  
HETATM   18  H   UNL     1     -10.421   9.462  67.609  1.00  0.00     0.000 HD 
BRANCH  17  19
HETATM   19  S   UNL     1     -10.123  11.746  66.950  1.00  0.00    -0.210 S  
HETATM   20  O   UNL     1     -10.686  11.534  65.644  1.00  0.00    -0.267 OA 
HETATM   21  O   UNL     1      -8.927  12.530  67.145  1.00  0.00    -0.186 OA 
BRANCH  19  22
HETATM   22  N   UNL     1     -11.351  12.349  67.974  1.00  0.00    -0.265 N  
BRANCH  22  23
HETATM   23  C   UNL     1     -11.020  13.674  68.587  1.00  0.00    -0.267 C  
HETATM   24  C   UNL     1     -11.612  14.862  67.841  1.00  0.00    -0.364 C  
ENDBRANCH  22  23
BRANCH  22  25
HETATM   25  C   UNL     1     -11.896  11.323  68.908  1.00  0.00    -0.345 C  
HETATM   26  C   UNL     1     -11.921  11.783  70.356  1.00  0.00    -0.422 C  
ENDBRANCH  22  25
ENDBRANCH  19  22
ENDBRANCH  17  19
ENDBRANCH   3  17
BRANCH   7  27
HETATM   27  C   UNL     1      -7.093   7.007  67.368  1.00  0.00    -0.088 C  
BRANCH  27  28
HETATM   28  C   UNL     1      -7.547   6.621  65.955  1.00  0.00    -0.087 C  
HETATM   29  C   UNL     1      -8.413   5.371  65.971  1.00  0.00    -0.123 C  
ENDBRANCH  27  28
ENDBRANCH   7  27
TORSDOF 7
ENDMDL
MODEL      129
REMARK 921   NORMALIZED FREE ENERGY PREDICTED BY IDOCK:   -3.79 KCAL/MOL
REMARK 922        TOTAL FREE ENERGY PREDICTED BY IDOCK:   -6.56 KCAL/MOL
REMARK 923 INTER-LIGAND FREE ENERGY PREDICTED BY IDOCK:   -5.98 KCAL/MOL
REMARK 924 INTRA-LIGAND FREE ENERGY PREDICTED BY IDOCK:   -0.58 KCAL/MOL
REMARK 927      BINDING AFFINITY PREDICTED BY RF-SCORE:    0.00 PKD
ROOT
HETATM    1  C   UNL     1      -9.039  12.340  68.051  1.00  0.00    -0.191 C  
HETATM    2  C   UNL     1      -8.222  13.537  67.541  1.00  0.00    -0.186 C  
HETATM    3  C   UNL     1      -9.037  14.406  66.578  1.00  0.00    -0.205 C  
HETATM    4  C   UNL     1      -8.800  10.119  69.284  1.00  0.00    -0.191 A  
HETATM    5  C   UNL     1      -9.561  13.496  65.455  1.00  0.00     0.114 C  
HETATM    6  C   UNL     1      -9.982   7.688  70.049  1.00  0.00    -0.190 A  
HETATM    7  N   UNL     1     -10.437  12.431  65.975  1.00  0.00    -0.248 NA 
HETATM    8  O   UNL     1      -7.062   9.731  70.865  1.00  0.00    -0.296 OA 
HETATM    9  C   UNL     1      -9.710  11.539  66.906  1.00  0.00    -0.186 C  
HETATM   10  C   UNL     1     -10.563   8.466  69.049  1.00  0.00    -0.172 A  
HETATM   11  C   UNL     1      -8.806   8.109  70.661  1.00  0.00    -0.143 A  
HETATM   12  C   UNL     1      -9.970   9.674  68.645  1.00  0.00    -0.179 A  
HETATM   13  C   UNL     1      -8.222   9.314  70.276  1.00  0.00    -0.172 A  
HETATM   14  H   UNL     1      -6.664  10.553  70.603  1.00  0.00     0.000 HD 
HETATM   15  C   UNL     1      -8.134  11.410  68.875  1.00  0.00    -0.067 C  
HETATM   16  C   UNL     1     -10.639  10.489  67.561  1.00  0.00    -0.306 C  
ENDROOT
BRANCH   3  17
HETATM   17  N   UNL     1     -10.134  15.114  67.335  1.00  0.00    -0.228 N  
HETATM   18  H   UNL     1     -10.639  14.684  68.110  1.00  0.00     0.000 HD 
BRANCH  17  19
HETATM   19  S   UNL     1     -10.453  16.676  66.793  1.00  0.00    -0.218 S  
HETATM   20  O   UNL     1     -11.655  17.191  67.391  1.00  0.00     0.433 OA 
HETATM   21  O   UNL     1     -10.279  16.623  65.361  1.00  0.00    -0.585 OA 
BRANCH  19  22
HETATM   22  N   UNL     1      -9.117  17.490  67.481  1.00  0.00    -0.233 N  
BRANCH  22  23
HETATM   23  C   UNL     1      -9.466  18.277  68.707  1.00  0.00    -0.281 C  
HETATM   24  C   UNL     1      -9.491  19.783  68.484  1.00  0.00    -0.398 C  
ENDBRANCH  22  23
BRANCH  22  25
HETATM   25  C   UNL     1      -8.278  18.201  66.474  1.00  0.00    -0.267 C  
HETATM   26  C   UNL     1      -6.965  17.494  66.181  1.00  0.00    -0.323 C  
ENDBRANCH  22  25
ENDBRANCH  19  22
ENDBRANCH  17  19
ENDBRANCH   3  17
BRANCH   7  27
HETATM   27  C   UNL     1     -11.166  11.770  64.884  1.00  0.00    -0.266 C  
BRANCH  27  28
HETATM   28  C   UNL     1     -12.523  12.389  64.524  1.00  0.00    -0.519 C  
HETATM   29  C   UNL     1     -12.754  13.696  65.268  1.00  0.00    -0.478 C  
ENDBRANCH  27  28
ENDBRANCH   7  27
TORSDOF 7
ENDMDL
MODEL      130
REMARK 921   NORMALIZED FREE ENERGY PREDICTED BY IDOCK:   -3.78 KCAL/MOL
REMARK 922        TOTAL FREE ENERGY PREDICTED BY IDOCK:   -6.54 KCAL/MOL
REMARK 923 INTER-LIGAND FREE ENERGY PREDICTED BY IDOCK:   -5.64 KCAL/MOL
REMARK 924 INTRA-LIGAND FREE ENERGY PREDICTED BY IDOCK:   -0.90 KCAL/MOL
REMARK 927      BINDING AFFINITY PREDICTED BY RF-SCORE:    0.00 PKD
ROOT
HETATM    1  C   UNL     1     -10.009   8.226  67.311  1.00  0.00    -0.289 C  
HETATM    2  C   UNL     1     -11.015   9.184  67.967  1.00  0.00    -0.032 C  
HETATM    3  C   UNL     1     -10.318  10.411  68.564  1.00  0.00    -0.176 C  
HETATM    4  C   UNL     1      -9.798   5.863  66.371  1.00  0.00    -0.161 A  
HETATM    5  C   UNL     1      -9.229   9.909  69.526  1.00  0.00    -0.223 C  
HETATM    6  C   UNL     1      -8.110   3.817  65.445  1.00  0.00    -0.097 A  
HETATM    7  N   UNL     1      -8.218   9.091  68.833  1.00  0.00    -0.118 NA 
HETATM    8  O   UNL     1     -11.659   4.700  65.445  1.00  0.00    -1.015 OA 
HETATM    9  C   UNL     1      -8.819   7.875  68.241  1.00  0.00    -0.129 C  
HETATM   10  C   UNL     1      -7.582   4.893  66.156  1.00  0.00    -0.091 A  
HETATM   11  C   UNL     1      -9.478   3.748  65.205  1.00  0.00    -0.168 A  
HETATM   12  C   UNL     1      -8.419   5.912  66.641  1.00  0.00    -0.111 A  
HETATM   13  C   UNL     1     -10.311   4.764  65.669  1.00  0.00    -0.189 A  
HETATM   14  H   UNL     1     -12.227   5.392  65.761  1.00  0.00     0.000 HD 
HETATM   15  C   UNL     1     -10.728   6.938  66.878  1.00  0.00    -0.386 C  
HETATM   16  C   UNL     1      -7.802   7.064  67.402  1.00  0.00    -0.111 C  
ENDROOT
BRANCH   3  17
HETATM   17  N   UNL     1      -9.781  11.281  67.454  1.00  0.00    -0.173 N  
HETATM   18  H   UNL     1      -8.935  11.052  66.931  1.00  0.00     0.000 HD 
BRANCH  17  19
HETATM   19  S   UNL     1     -10.694  12.663  67.154  1.00  0.00    -0.245 S  
HETATM   20  O   UNL     1     -11.665  12.872  68.194  1.00  0.00    -0.316 OA 
HETATM   21  O   UNL     1     -11.076  12.570  65.765  1.00  0.00    -0.289 OA 
BRANCH  19  22
HETATM   22  N   UNL     1      -9.473  13.847  67.312  1.00  0.00    -0.230 N  
BRANCH  22  23
HETATM   23  C   UNL     1      -8.372  13.448  68.246  1.00  0.00    -0.160 C  
HETATM   24  C   UNL     1      -6.983  13.531  67.629  1.00  0.00    -0.176 C  
ENDBRANCH  22  23
BRANCH  22  25
HETATM   25  C   UNL     1     -10.009  15.226  67.498  1.00  0.00    -0.226 C  
HETATM   26  C   UNL     1      -9.797  16.121  66.289  1.00  0.00    -0.329 C  
ENDBRANCH  22  25
ENDBRANCH  19  22
ENDBRANCH  17  19
ENDBRANCH   3  17
BRANCH   7  27
HETATM   27  C   UNL     1      -7.039   8.880  69.684  1.00  0.00    -0.054 C  
BRANCH  27  28
HETATM   28  C   UNL     1      -5.825   9.762  69.365  1.00  0.00    -0.033 C  
HETATM   29  C   UNL     1      -5.670  10.884  70.381  1.00  0.00    -0.117 C  
ENDBRANCH  27  28
ENDBRANCH   7  27
TORSDOF 7
ENDMDL
MODEL      131
REMARK 921   NORMALIZED FREE ENERGY PREDICTED BY IDOCK:   -3.77 KCAL/MOL
REMARK 922        TOTAL FREE ENERGY PREDICTED BY IDOCK:   -6.53 KCAL/MOL
REMARK 923 INTER-LIGAND FREE ENERGY PREDICTED BY IDOCK:   -6.41 KCAL/MOL
REMARK 924 INTRA-LIGAND FREE ENERGY PREDICTED BY IDOCK:   -0.12 KCAL/MOL
REMARK 927      BINDING AFFINITY PREDICTED BY RF-SCORE:    0.00 PKD
ROOT
HETATM    1  C   UNL     1     -11.238   9.730  69.711  1.00  0.00    -0.242 C  
HETATM    2  C   UNL     1     -11.687  11.169  70.006  1.00  0.00    -0.438 C  
HETATM    3  C   UNL     1     -11.166  12.149  68.950  1.00  0.00    -0.269 C  
HETATM    4  C   UNL     1     -11.099   7.410  70.765  1.00  0.00    -0.285 A  
HETATM    5  C   UNL     1      -9.640  11.984  68.871  1.00  0.00     0.117 C  
HETATM    6  C   UNL     1     -10.097   4.790  70.615  1.00  0.00    -0.288 A  
HETATM    7  N   UNL     1      -9.254  10.620  68.470  1.00  0.00    -0.162 NA 
HETATM    8  O   UNL     1     -12.616   6.695  72.456  1.00  0.00    -0.505 OA 
HETATM    9  C   UNL     1      -9.713   9.616  69.455  1.00  0.00    -0.203 C  
HETATM   10  C   UNL     1      -9.559   5.793  69.810  1.00  0.00    -0.199 A  
HETATM   11  C   UNL     1     -11.122   5.089  71.505  1.00  0.00     0.183 A  
HETATM   12  C   UNL     1     -10.039   7.111  69.891  1.00  0.00    -0.197 A  
HETATM   13  C   UNL     1     -11.614   6.390  71.578  1.00  0.00    -0.310 A  
HETATM   14  H   UNL     1     -12.952   7.582  72.505  1.00  0.00     0.000 HD 
HETATM   15  C   UNL     1     -11.639   8.814  70.881  1.00  0.00    -0.320 C  
HETATM   16  C   UNL     1      -9.431   8.166  68.994  1.00  0.00    -0.155 C  
ENDROOT
BRANCH   3  17
HETATM   17  N   UNL     1     -11.864  11.899  67.635  1.00  0.00    -0.265 N  
HETATM   18  H   UNL     1     -12.237  10.986  67.372  1.00  0.00     0.000 HD 
BRANCH  17  19
HETATM   19  S   UNL     1     -11.975  13.253  66.642  1.00  0.00    -0.367 S  
HETATM   20  O   UNL     1     -11.776  14.461  67.396  1.00  0.00    -0.362 OA 
HETATM   21  O   UNL     1     -13.160  13.041  65.844  1.00  0.00    -0.062 OA 
BRANCH  19  22
HETATM   22  N   UNL     1     -10.598  12.996  65.663  1.00  0.00    -0.278 N  
BRANCH  22  23
HETATM   23  C   UNL     1     -10.417  14.040  64.604  1.00  0.00    -0.373 C  
HETATM   24  C   UNL     1     -11.176  15.331  64.877  1.00  0.00    -0.422 C  
ENDBRANCH  22  23
BRANCH  22  25
HETATM   25  C   UNL     1     -10.452  11.584  65.209  1.00  0.00    -0.283 C  
HETATM   26  C   UNL     1     -10.521  11.428  63.699  1.00  0.00    -0.472 C  
ENDBRANCH  22  25
ENDBRANCH  19  22
ENDBRANCH  17  19
ENDBRANCH   3  17
BRANCH   7  27
HETATM   27  C   UNL     1      -7.833  10.561  68.102  1.00  0.00    -0.109 C  
BRANCH  27  28
HETATM   28  C   UNL     1      -6.881  11.351  69.009  1.00  0.00    -0.102 C  
HETATM   29  C   UNL     1      -5.475  10.771  68.980  1.00  0.00    -0.040 C  
ENDBRANCH  27  28
ENDBRANCH   7  27
TORSDOF 7
ENDMDL
MODEL      132
REMARK 921   NORMALIZED FREE ENERGY PREDICTED BY IDOCK:   -3.76 KCAL/MOL
REMARK 922        TOTAL FREE ENERGY PREDICTED BY IDOCK:   -6.52 KCAL/MOL
REMARK 923 INTER-LIGAND FREE ENERGY PREDICTED BY IDOCK:   -5.81 KCAL/MOL
REMARK 924 INTRA-LIGAND FREE ENERGY PREDICTED BY IDOCK:   -0.70 KCAL/MOL
REMARK 927      BINDING AFFINITY PREDICTED BY RF-SCORE:    0.00 PKD
ROOT
HETATM    1  C   UNL     1     -10.461   6.796  71.583  1.00  0.00    -0.231 C  
HETATM    2  C   UNL     1     -10.576   8.161  72.281  1.00  0.00    -0.378 C  
HETATM    3  C   UNL     1     -10.461   9.316  71.281  1.00  0.00    -0.338 C  
HETATM    4  C   UNL     1     -10.133   4.312  72.063  1.00  0.00    -0.244 A  
HETATM    5  C   UNL     1      -9.148   9.132  70.501  1.00  0.00    -0.241 C  
HETATM    6  C   UNL     1      -9.590   1.748  71.050  1.00  0.00    -0.197 A  
HETATM    7  N   UNL     1      -9.128   7.864  69.751  1.00  0.00    -0.146 NA 
HETATM    8  O   UNL     1     -10.834   3.316  74.110  1.00  0.00    -0.197 OA 
HETATM    9  C   UNL     1      -9.221   6.697  70.657  1.00  0.00    -0.159 C  
HETATM   10  C   UNL     1      -9.348   2.877  70.269  1.00  0.00    -0.219 A  
HETATM   11  C   UNL     1     -10.088   1.892  72.341  1.00  0.00    -0.220 A  
HETATM   12  C   UNL     1      -9.598   4.164  70.772  1.00  0.00    -0.260 A  
HETATM   13  C   UNL     1     -10.353   3.165  72.840  1.00  0.00    -0.164 A  
HETATM   14  H   UNL     1     -11.015   4.184  74.450  1.00  0.00     0.000 HD 
HETATM   15  C   UNL     1     -10.411   5.679  72.639  1.00  0.00    -0.249 C  
HETATM   16  C   UNL     1      -9.328   5.359  69.886  1.00  0.00    -0.184 C  
ENDROOT
BRANCH   3  17
HETATM   17  N   UNL     1     -11.683   9.346  70.396  1.00  0.00    -0.428 N  
HETATM   18  H   UNL     1     -11.786   8.751  69.574  1.00  0.00     0.000 HD 
BRANCH  17  19
HETATM   19  S   UNL     1     -12.862  10.446  70.881  1.00  0.00    -0.377 S  
HETATM   20  O   UNL     1     -12.560  10.981  72.181  1.00  0.00    -0.096 OA 
HETATM   21  O   UNL     1     -14.121   9.801  70.597  1.00  0.00     0.154 OA 
BRANCH  19  22
HETATM   22  N   UNL     1     -12.596  11.672  69.720  1.00  0.00     0.002 N  
BRANCH  22  23
HETATM   23  C   UNL     1     -11.909  11.183  68.483  1.00  0.00    -0.260 C  
HETATM   24  C   UNL     1     -10.804  12.107  67.988  1.00  0.00    -0.258 C  
ENDBRANCH  22  23
BRANCH  22  25
HETATM   25  C   UNL     1     -12.053  12.931  70.307  1.00  0.00    -0.302 C  
HETATM   26  C   UNL     1     -13.083  13.716  71.102  1.00  0.00    -0.306 C  
ENDBRANCH  22  25
ENDBRANCH  19  22
ENDBRANCH  17  19
ENDBRANCH   3  17
BRANCH   7  27
HETATM   27  C   UNL     1      -8.023   7.844  68.783  1.00  0.00    -0.124 C  
BRANCH  27  28
HETATM   28  C   UNL     1      -8.404   8.182  67.335  1.00  0.00    -0.122 C  
HETATM   29  C   UNL     1      -9.887   7.958  67.083  1.00  0.00    -0.273 C  
ENDBRANCH  27  28
ENDBRANCH   7  27
TORSDOF 7
ENDMDL
MODEL      133
REMARK 921   NORMALIZED FREE ENERGY PREDICTED BY IDOCK:   -3.73 KCAL/MOL
REMARK 922        TOTAL FREE ENERGY PREDICTED BY IDOCK:   -6.47 KCAL/MOL
REMARK 923 INTER-LIGAND FREE ENERGY PREDICTED BY IDOCK:   -5.78 KCAL/MOL
REMARK 924 INTRA-LIGAND FREE ENERGY PREDICTED BY IDOCK:   -0.69 KCAL/MOL
REMARK 927      BINDING AFFINITY PREDICTED BY RF-SCORE:    0.00 PKD
ROOT
HETATM    1  C   UNL     1     -10.129   8.443  67.449  1.00  0.00    -0.301 C  
HETATM    2  C   UNL     1     -11.064   9.660  67.377  1.00  0.00     0.004 C  
HETATM    3  C   UNL     1     -10.460  10.876  68.088  1.00  0.00    -0.182 C  
HETATM    4  C   UNL     1     -10.071   5.923  67.049  1.00  0.00    -0.221 A  
HETATM    5  C   UNL     1     -10.109  10.453  69.524  1.00  0.00    -0.219 C  
HETATM    6  C   UNL     1      -8.690   3.498  67.372  1.00  0.00    -0.129 A  
HETATM    7  N   UNL     1      -9.120   9.362  69.549  1.00  0.00    -0.154 NA 
HETATM    8  O   UNL     1     -11.492   4.862  65.459  1.00  0.00    -0.914 OA 
HETATM    9  C   UNL     1      -9.641   8.143  68.890  1.00  0.00    -0.153 C  
HETATM   10  C   UNL     1      -8.320   4.619  68.113  1.00  0.00    -0.094 A  
HETATM   11  C   UNL     1      -9.756   3.575  66.481  1.00  0.00    -0.043 A  
HETATM   12  C   UNL     1      -9.016   5.832  67.974  1.00  0.00    -0.111 A  
HETATM   13  C   UNL     1     -10.439   4.779  66.327  1.00  0.00    -0.269 A  
HETATM   14  H   UNL     1     -11.958   5.683  65.354  1.00  0.00     0.000 HD 
HETATM   15  C   UNL     1     -10.844   7.208  66.875  1.00  0.00    -0.307 C  
HETATM   16  C   UNL     1      -8.576   7.024  68.792  1.00  0.00    -0.125 C  
ENDROOT
BRANCH   3  17
HETATM   17  N   UNL     1      -9.273  11.385  67.307  1.00  0.00    -0.163 N  
HETATM   18  H   UNL     1      -8.475  10.796  67.066  1.00  0.00     0.000 HD 
BRANCH  17  19
HETATM   19  S   UNL     1      -9.377  13.006  66.867  1.00  0.00    -0.244 S  
HETATM   20  O   UNL     1      -9.421  13.148  65.436  1.00  0.00     0.033 OA 
HETATM   21  O   UNL     1      -8.383  13.680  67.667  1.00  0.00    -0.156 OA 
BRANCH  19  22
HETATM   22  N   UNL     1     -10.926  13.368  67.490  1.00  0.00    -0.263 N  
BRANCH  22  23
HETATM   23  C   UNL     1     -11.880  13.880  66.456  1.00  0.00    -0.414 C  
HETATM   24  C   UNL     1     -12.532  12.785  65.625  1.00  0.00    -0.341 C  
ENDBRANCH  22  23
BRANCH  22  25
HETATM   25  C   UNL     1     -10.883  14.136  68.767  1.00  0.00    -0.258 C  
HETATM   26  C   UNL     1     -11.424  15.550  68.635  1.00  0.00    -0.367 C  
ENDBRANCH  22  25
ENDBRANCH  19  22
ENDBRANCH  17  19
ENDBRANCH   3  17
BRANCH   7  27
HETATM   27  C   UNL     1      -8.570   9.181  70.899  1.00  0.00    -0.206 C  
BRANCH  27  28
HETATM   28  C   UNL     1      -7.067   9.453  71.045  1.00  0.00    -0.060 C  
HETATM   29  C   UNL     1      -6.559  10.374  69.946  1.00  0.00    -0.124 C  
ENDBRANCH  27  28
ENDBRANCH   7  27
TORSDOF 7
ENDMDL
MODEL      134
REMARK 921   NORMALIZED FREE ENERGY PREDICTED BY IDOCK:   -3.71 KCAL/MOL
REMARK 922        TOTAL FREE ENERGY PREDICTED BY IDOCK:   -6.45 KCAL/MOL
REMARK 923 INTER-LIGAND FREE ENERGY PREDICTED BY IDOCK:   -5.69 KCAL/MOL
REMARK 924 INTRA-LIGAND FREE ENERGY PREDICTED BY IDOCK:   -0.76 KCAL/MOL
REMARK 927      BINDING AFFINITY PREDICTED BY RF-SCORE:    0.00 PKD
ROOT
HETATM    1  C   UNL     1      -9.342  10.208  66.288  1.00  0.00    -0.214 C  
HETATM    2  C   UNL     1     -10.546  10.838  67.005  1.00  0.00    -0.312 C  
HETATM    3  C   UNL     1     -10.386  12.355  67.147  1.00  0.00    -0.219 C  
HETATM    4  C   UNL     1      -8.251   7.957  65.785  1.00  0.00    -0.130 A  
HETATM    5  C   UNL     1      -9.044  12.622  67.847  1.00  0.00    -0.200 C  
HETATM    6  C   UNL     1      -6.005   6.566  64.829  1.00  0.00    -0.034 A  
HETATM    7  N   UNL     1      -7.905  12.105  67.068  1.00  0.00    -0.152 NA 
HETATM    8  O   UNL     1      -9.515   5.943  65.643  1.00  0.00    -0.361 OA 
HETATM    9  C   UNL     1      -7.984  10.636  66.902  1.00  0.00    -0.124 C  
HETATM   10  C   UNL     1      -5.907   7.919  65.153  1.00  0.00    -0.037 A  
HETATM   11  C   UNL     1      -7.214   5.899  64.993  1.00  0.00    -0.066 A  
HETATM   12  C   UNL     1      -7.018   8.619  65.650  1.00  0.00    -0.075 A  
HETATM   13  C   UNL     1      -8.324   6.592  65.470  1.00  0.00    -0.144 A  
HETATM   14  H   UNL     1     -10.272   6.415  65.968  1.00  0.00     0.000 HD 
HETATM   15  C   UNL     1      -9.466   8.675  66.319  1.00  0.00    -0.307 C  
HETATM   16  C   UNL     1      -6.868  10.086  65.982  1.00  0.00    -0.105 C  
ENDROOT
BRANCH   3  17
HETATM   17  N   UNL     1     -10.492  13.007  65.789  1.00  0.00    -0.276 N  
HETATM   18  H   UNL     1     -10.032  12.634  64.959  1.00  0.00     0.000 HD 
BRANCH  17  19
HETATM   19  S   UNL     1     -11.435  14.401  65.763  1.00  0.00    -0.338 S  
HETATM   20  O   UNL     1     -12.712  14.169  66.381  1.00  0.00    -0.356 OA 
HETATM   21  O   UNL     1     -11.323  14.908  64.416  1.00  0.00    -0.303 OA 
BRANCH  19  22
HETATM   22  N   UNL     1     -10.505  15.389  66.802  1.00  0.00    -0.293 N  
BRANCH  22  23
HETATM   23  C   UNL     1     -11.241  15.816  68.034  1.00  0.00    -0.338 C  
HETATM   24  C   UNL     1     -10.413  15.720  69.309  1.00  0.00    -0.247 C  
ENDBRANCH  22  23
BRANCH  22  25
HETATM   25  C   UNL     1      -9.765  16.466  66.085  1.00  0.00    -0.327 C  
HETATM   26  C   UNL     1     -10.458  17.817  66.152  1.00  0.00    -0.301 C  
ENDBRANCH  22  25
ENDBRANCH  19  22
ENDBRANCH  17  19
ENDBRANCH   3  17
BRANCH   7  27
HETATM   27  C   UNL     1      -6.633  12.629  67.585  1.00  0.00    -0.143 C  
BRANCH  27  28
HETATM   28  C   UNL     1      -6.548  14.156  67.710  1.00  0.00    -0.188 C  
HETATM   29  C   UNL     1      -6.089  14.576  69.098  1.00  0.00    -0.096 C  
ENDBRANCH  27  28
ENDBRANCH   7  27
TORSDOF 7
ENDMDL
MODEL      135
REMARK 921   NORMALIZED FREE ENERGY PREDICTED BY IDOCK:   -3.71 KCAL/MOL
REMARK 922        TOTAL FREE ENERGY PREDICTED BY IDOCK:   -6.44 KCAL/MOL
REMARK 923 INTER-LIGAND FREE ENERGY PREDICTED BY IDOCK:   -5.60 KCAL/MOL
REMARK 924 INTRA-LIGAND FREE ENERGY PREDICTED BY IDOCK:   -0.84 KCAL/MOL
REMARK 927      BINDING AFFINITY PREDICTED BY RF-SCORE:    0.00 PKD
ROOT
HETATM    1  C   UNL     1      -9.117   9.401  68.396  1.00  0.00    -0.128 C  
HETATM    2  C   UNL     1      -9.156   9.452  69.931  1.00  0.00    -0.221 C  
HETATM    3  C   UNL     1     -10.583   9.657  70.451  1.00  0.00    -0.295 C  
HETATM    4  C   UNL     1      -7.503   9.480  66.421  1.00  0.00    -0.097 A  
HETATM    5  C   UNL     1     -11.150  10.918  69.779  1.00  0.00    -0.262 C  
HETATM    6  C   UNL     1      -7.160   9.718  63.642  1.00  0.00    -0.116 A  
HETATM    7  N   UNL     1     -11.205  10.782  68.313  1.00  0.00    -0.276 NA 
HETATM    8  O   UNL     1      -5.246   8.741  66.601  1.00  0.00    -0.033 OA 
HETATM    9  C   UNL     1      -9.855  10.595  67.735  1.00  0.00    -0.165 C  
HETATM   10  C   UNL     1      -8.379  10.053  64.229  1.00  0.00    -0.169 A  
HETATM   11  C   UNL     1      -6.105   9.279  64.435  1.00  0.00    -0.076 A  
HETATM   12  C   UNL     1      -8.556   9.957  65.620  1.00  0.00    -0.157 A  
HETATM   13  C   UNL     1      -6.280   9.165  65.813  1.00  0.00    -0.056 A  
HETATM   14  H   UNL     1      -5.365   8.663  67.540  1.00  0.00     0.000 HD 
HETATM   15  C   UNL     1      -7.656   9.365  67.918  1.00  0.00    -0.087 C  
HETATM   16  C   UNL     1      -9.897  10.324  66.212  1.00  0.00    -0.276 C  
ENDROOT
BRANCH   3  17
HETATM   17  N   UNL     1     -11.403   8.418  70.188  1.00  0.00    -0.441 N  
HETATM   18  H   UNL     1     -11.542   8.034  69.253  1.00  0.00     0.000 HD 
BRANCH  17  19
HETATM   19  S   UNL     1     -12.071   7.724  71.568  1.00  0.00    -0.319 S  
HETATM   20  O   UNL     1     -13.433   7.325  71.335  1.00  0.00    -0.388 OA 
HETATM   21  O   UNL     1     -11.713   8.610  72.649  1.00  0.00    -0.325 OA 
BRANCH  19  22
HETATM   22  N   UNL     1     -11.108   6.315  71.668  1.00  0.00    -0.263 N  
BRANCH  22  23
HETATM   23  C   UNL     1     -10.547   6.072  73.035  1.00  0.00    -0.240 C  
HETATM   24  C   UNL     1      -9.122   6.576  73.213  1.00  0.00    -0.139 C  
ENDBRANCH  22  23
BRANCH  22  25
HETATM   25  C   UNL     1     -10.142   6.181  70.540  1.00  0.00    -0.189 C  
HETATM   26  C   UNL     1     -10.511   5.079  69.561  1.00  0.00    -0.129 C  
ENDBRANCH  22  25
ENDBRANCH  19  22
ENDBRANCH  17  19
ENDBRANCH   3  17
BRANCH   7  27
HETATM   27  C   UNL     1     -12.021  11.848  67.715  1.00  0.00    -0.079 C  
BRANCH  27  28
HETATM   28  C   UNL     1     -11.900  13.225  68.380  1.00  0.00    -0.395 C  
HETATM   29  C   UNL     1     -10.994  14.151  67.582  1.00  0.00    -0.278 C  
ENDBRANCH  27  28
ENDBRANCH   7  27
TORSDOF 7
ENDMDL
MODEL      136
REMARK 921   NORMALIZED FREE ENERGY PREDICTED BY IDOCK:   -3.70 KCAL/MOL
REMARK 922        TOTAL FREE ENERGY PREDICTED BY IDOCK:   -6.43 KCAL/MOL
REMARK 923 INTER-LIGAND FREE ENERGY PREDICTED BY IDOCK:   -5.55 KCAL/MOL
REMARK 924 INTRA-LIGAND FREE ENERGY PREDICTED BY IDOCK:   -0.88 KCAL/MOL
REMARK 927      BINDING AFFINITY PREDICTED BY RF-SCORE:    0.00 PKD
ROOT
HETATM    1  C   UNL     1      -8.726   8.337  66.843  1.00  0.00    -0.141 C  
HETATM    2  C   UNL     1      -9.930   9.004  66.162  1.00  0.00    -0.311 C  
HETATM    3  C   UNL     1     -10.536  10.104  67.039  1.00  0.00    -0.240 C  
HETATM    4  C   UNL     1      -7.184   6.310  66.672  1.00  0.00    -0.074 A  
HETATM    5  C   UNL     1     -10.868   9.484  68.406  1.00  0.00    -0.137 C  
HETATM    6  C   UNL     1      -5.203   4.725  67.877  1.00  0.00    -0.011 A  
HETATM    7  N   UNL     1      -9.665   8.961  69.079  1.00  0.00    -0.168 NA 
HETATM    8  O   UNL     1      -6.724   5.244  64.593  1.00  0.00    -0.045 OA 
HETATM    9  C   UNL     1      -9.032   7.879  68.293  1.00  0.00    -0.132 C  
HETATM   10  C   UNL     1      -5.932   5.636  68.640  1.00  0.00    -0.024 A  
HETATM   11  C   UNL     1      -5.467   4.589  66.519  1.00  0.00    -0.013 A  
HETATM   12  C   UNL     1      -6.938   6.420  68.052  1.00  0.00    -0.076 A  
HETATM   13  C   UNL     1      -6.452   5.376  65.926  1.00  0.00    -0.040 A  
HETATM   14  H   UNL     1      -7.395   5.780  64.189  1.00  0.00     0.000 HD 
HETATM   15  C   UNL     1      -8.259   7.134  66.006  1.00  0.00    -0.129 C  
HETATM   16  C   UNL     1      -7.699   7.400  68.916  1.00  0.00    -0.115 C  
ENDROOT
BRANCH   3  17
HETATM   17  N   UNL     1      -9.580  11.269  67.127  1.00  0.00    -0.176 N  
HETATM   18  H   UNL     1      -8.599  11.162  67.389  1.00  0.00     0.000 HD 
BRANCH  17  19
HETATM   19  S   UNL     1     -10.268  12.759  66.756  1.00  0.00    -0.242 S  
HETATM   20  O   UNL     1      -9.253  13.734  66.459  1.00  0.00    -0.257 OA 
HETATM   21  O   UNL     1     -11.261  12.983  67.780  1.00  0.00    -0.254 OA 
BRANCH  19  22
HETATM   22  N   UNL     1     -11.061  12.347  65.299  1.00  0.00    -0.294 N  
BRANCH  22  23
HETATM   23  C   UNL     1     -10.210  12.537  64.082  1.00  0.00    -0.350 C  
HETATM   24  C   UNL     1     -10.274  11.375  63.100  1.00  0.00    -0.380 C  
ENDBRANCH  22  23
BRANCH  22  25
HETATM   25  C   UNL     1     -12.447  12.890  65.209  1.00  0.00    -0.493 C  
HETATM   26  C   UNL     1     -12.490  14.390  64.968  1.00  0.00    -0.366 C  
ENDBRANCH  22  25
ENDBRANCH  19  22
ENDBRANCH  17  19
ENDBRANCH   3  17
BRANCH   7  27
HETATM   27  C   UNL     1      -9.942   8.657  70.490  1.00  0.00    -0.189 C  
BRANCH  27  28
HETATM   28  C   UNL     1     -11.043   9.501  71.145  1.00  0.00    -0.450 C  
HETATM   29  C   UNL     1     -11.905   8.664  72.078  1.00  0.00    -0.443 C  
ENDBRANCH  27  28
ENDBRANCH   7  27
TORSDOF 7
ENDMDL
MODEL      137
REMARK 921   NORMALIZED FREE ENERGY PREDICTED BY IDOCK:   -3.70 KCAL/MOL
REMARK 922        TOTAL FREE ENERGY PREDICTED BY IDOCK:   -6.43 KCAL/MOL
REMARK 923 INTER-LIGAND FREE ENERGY PREDICTED BY IDOCK:   -6.28 KCAL/MOL
REMARK 924 INTRA-LIGAND FREE ENERGY PREDICTED BY IDOCK:   -0.15 KCAL/MOL
REMARK 927      BINDING AFFINITY PREDICTED BY RF-SCORE:    0.00 PKD
ROOT
HETATM    1  C   UNL     1      -9.724  10.299  66.995  1.00  0.00    -0.217 C  
HETATM    2  C   UNL     1     -10.098  11.653  66.373  1.00  0.00    -0.246 C  
HETATM    3  C   UNL     1     -10.627  12.630  67.427  1.00  0.00    -0.224 C  
HETATM    4  C   UNL     1      -9.137   7.893  66.378  1.00  0.00    -0.221 A  
HETATM    5  C   UNL     1     -11.793  11.946  68.158  1.00  0.00    -0.270 C  
HETATM    6  C   UNL     1      -8.737   5.250  67.241  1.00  0.00    -0.107 A  
HETATM    7  N   UNL     1     -11.366  10.712  68.841  1.00  0.00    -0.265 NA 
HETATM    8  O   UNL     1      -8.109   7.335  64.303  1.00  0.00    -0.241 OA 
HETATM    9  C   UNL     1     -10.854   9.710  67.879  1.00  0.00    -0.215 C  
HETATM   10  C   UNL     1      -9.373   6.170  68.072  1.00  0.00    -0.114 A  
HETATM   11  C   UNL     1      -8.313   5.637  65.974  1.00  0.00    -0.124 A  
HETATM   12  C   UNL     1      -9.596   7.489  67.644  1.00  0.00    -0.171 A  
HETATM   13  C   UNL     1      -8.516   6.948  65.550  1.00  0.00    -0.116 A  
HETATM   14  H   UNL     1      -8.247   8.229  64.014  1.00  0.00     0.000 HD 
HETATM   15  C   UNL     1      -9.361   9.301  65.882  1.00  0.00    -0.297 C  
HETATM   16  C   UNL     1     -10.283   8.455  68.582  1.00  0.00    -0.220 C  
ENDROOT
BRANCH   3  17
HETATM   17  N   UNL     1      -9.504  13.043  68.348  1.00  0.00    -0.323 N  
HETATM   18  H   UNL     1      -9.112  12.421  69.056  1.00  0.00     0.000 HD 
BRANCH  17  19
HETATM   19  S   UNL     1      -8.952  14.614  68.106  1.00  0.00    -0.185 S  
HETATM   20  O   UNL     1      -8.372  14.759  66.797  1.00  0.00    -0.200 OA 
HETATM   21  O   UNL     1      -8.218  14.947  69.303  1.00  0.00    -0.172 OA 
BRANCH  19  22
HETATM   22  N   UNL     1     -10.446  15.443  68.126  1.00  0.00    -0.243 N  
BRANCH  22  23
HETATM   23  C   UNL     1     -10.352  16.855  67.638  1.00  0.00    -0.317 C  
HETATM   24  C   UNL     1     -10.520  16.997  66.132  1.00  0.00    -0.274 C  
ENDBRANCH  22  23
BRANCH  22  25
HETATM   25  C   UNL     1     -11.212  15.246  69.390  1.00  0.00    -0.285 C  
HETATM   26  C   UNL     1     -10.933  16.316  70.433  1.00  0.00    -0.282 C  
ENDBRANCH  22  25
ENDBRANCH  19  22
ENDBRANCH  17  19
ENDBRANCH   3  17
BRANCH   7  27
HETATM   27  C   UNL     1     -12.399  10.242  69.774  1.00  0.00     0.038 C  
BRANCH  27  28
HETATM   28  C   UNL     1     -11.909   9.903  71.188  1.00  0.00    -0.472 C  
HETATM   29  C   UNL     1     -13.073   9.634  72.130  1.00  0.00    -0.520 C  
ENDBRANCH  27  28
ENDBRANCH   7  27
TORSDOF 7
ENDMDL
MODEL      138
REMARK 921   NORMALIZED FREE ENERGY PREDICTED BY IDOCK:   -3.62 KCAL/MOL
REMARK 922        TOTAL FREE ENERGY PREDICTED BY IDOCK:   -6.32 KCAL/MOL
REMARK 923 INTER-LIGAND FREE ENERGY PREDICTED BY IDOCK:   -5.42 KCAL/MOL
REMARK 924 INTRA-LIGAND FREE ENERGY PREDICTED BY IDOCK:   -0.90 KCAL/MOL
REMARK 927      BINDING AFFINITY PREDICTED BY RF-SCORE:    0.00 PKD
ROOT
HETATM    1  C   UNL     1      -8.486  13.266  68.016  1.00  0.00    -0.170 C  
HETATM    2  C   UNL     1      -7.538  12.130  68.430  1.00  0.00    -0.128 C  
HETATM    3  C   UNL     1      -8.159  10.754  68.168  1.00  0.00    -0.117 C  
HETATM    4  C   UNL     1      -8.827  15.785  68.238  1.00  0.00    -0.180 A  
HETATM    5  C   UNL     1      -9.520  10.711  68.882  1.00  0.00    -0.192 C  
HETATM    6  C   UNL     1     -10.530  17.991  67.889  1.00  0.00    -0.408 A  
HETATM    7  N   UNL     1     -10.441  11.741  68.371  1.00  0.00    -0.208 NA 
HETATM    8  O   UNL     1      -7.002  17.286  68.540  1.00  0.00    -0.190 OA 
HETATM    9  C   UNL     1      -9.912  13.104  68.604  1.00  0.00    -0.111 C  
HETATM   10  C   UNL     1     -11.042  16.696  67.841  1.00  0.00    -0.212 A  
HETATM   11  C   UNL     1      -9.175  18.194  68.125  1.00  0.00    -0.298 A  
HETATM   12  C   UNL     1     -10.203  15.586  68.034  1.00  0.00    -0.229 A  
HETATM   13  C   UNL     1      -8.335  17.096  68.300  1.00  0.00    -0.232 A  
HETATM   14  H   UNL     1      -6.429  16.538  68.660  1.00  0.00     0.000 HD 
HETATM   15  C   UNL     1      -7.895  14.617  68.451  1.00  0.00    -0.131 C  
HETATM   16  C   UNL     1     -10.801  14.198  67.966  1.00  0.00    -0.256 C  
ENDROOT
BRANCH   3  17
HETATM   17  N   UNL     1      -8.255  10.514  66.681  1.00  0.00    -0.125 N  
HETATM   18  H   UNL     1      -8.079  11.244  65.990  1.00  0.00     0.000 HD 
BRANCH  17  19
HETATM   19  S   UNL     1      -8.677   8.941  66.259  1.00  0.00    -0.149 S  
HETATM   20  O   UNL     1     -10.084   8.845  65.975  1.00  0.00    -0.260 OA 
HETATM   21  O   UNL     1      -8.042   8.101  67.246  1.00  0.00    -0.117 OA 
BRANCH  19  22
HETATM   22  N   UNL     1      -7.821   8.805  64.786  1.00  0.00    -0.116 N  
BRANCH  22  23
HETATM   23  C   UNL     1      -6.371   9.162  64.905  1.00  0.00    -0.066 C  
HETATM   24  C   UNL     1      -5.438   7.960  64.873  1.00  0.00    -0.033 C  
ENDBRANCH  22  23
BRANCH  22  25
HETATM   25  C   UNL     1      -8.542   9.406  63.628  1.00  0.00    -0.208 C  
HETATM   26  C   UNL     1      -7.610   9.965  62.565  1.00  0.00    -0.129 C  
ENDBRANCH  22  25
ENDBRANCH  19  22
ENDBRANCH  17  19
ENDBRANCH   3  17
BRANCH   7  27
HETATM   27  C   UNL     1     -11.814  11.494  68.832  1.00  0.00    -0.341 C  
BRANCH  27  28
HETATM   28  C   UNL     1     -11.954  11.068  70.299  1.00  0.00    -0.452 C  
HETATM   29  C   UNL     1     -12.635  12.145  71.130  1.00  0.00    -0.360 C  
ENDBRANCH  27  28
ENDBRANCH   7  27
TORSDOF 7
ENDMDL
MODEL      139
REMARK 921   NORMALIZED FREE ENERGY PREDICTED BY IDOCK:   -3.61 KCAL/MOL
REMARK 922        TOTAL FREE ENERGY PREDICTED BY IDOCK:   -6.30 KCAL/MOL
REMARK 923 INTER-LIGAND FREE ENERGY PREDICTED BY IDOCK:   -5.54 KCAL/MOL
REMARK 924 INTRA-LIGAND FREE ENERGY PREDICTED BY IDOCK:   -0.76 KCAL/MOL
REMARK 927      BINDING AFFINITY PREDICTED BY RF-SCORE:    0.00 PKD
ROOT
HETATM    1  C   UNL     1      -9.347  11.599  67.734  1.00  0.00    -0.178 C  
HETATM    2  C   UNL     1      -8.194  11.145  68.643  1.00  0.00    -0.152 C  
HETATM    3  C   UNL     1      -8.480   9.780  69.276  1.00  0.00    -0.152 C  
HETATM    4  C   UNL     1     -10.248  13.638  66.493  1.00  0.00    -0.284 A  
HETATM    5  C   UNL     1      -9.833   9.873  69.999  1.00  0.00    -0.243 C  
HETATM    6  C   UNL     1     -12.377  14.813  65.086  1.00  0.00    -0.158 A  
HETATM    7  N   UNL     1     -10.932  10.194  69.071  1.00  0.00    -0.226 NA 
HETATM    8  O   UNL     1      -8.819  15.379  65.716  1.00  0.00    -0.374 OA 
HETATM    9  C   UNL     1     -10.730  11.513  68.429  1.00  0.00    -0.208 C  
HETATM   10  C   UNL     1     -12.586  13.658  65.838  1.00  0.00    -0.478 A  
HETATM   11  C   UNL     1     -11.114  15.395  65.044  1.00  0.00    -0.428 A  
HETATM   12  C   UNL     1     -11.533  13.074  66.561  1.00  0.00    -0.385 A  
HETATM   13  C   UNL     1     -10.062  14.810  65.745  1.00  0.00    -0.339 A  
HETATM   14  H   UNL     1      -8.102  14.980  66.194  1.00  0.00     0.000 HD 
HETATM   15  C   UNL     1      -9.093  13.039  67.258  1.00  0.00    -0.209 C  
HETATM   16  C   UNL     1     -11.804  11.817  67.357  1.00  0.00    -0.210 C  
ENDROOT
BRANCH   3  17
HETATM   17  N   UNL     1      -8.442   8.708  68.214  1.00  0.00    -0.130 N  
HETATM   18  H   UNL     1      -9.268   8.420  67.688  1.00  0.00     0.000 HD 
BRANCH  17  19
HETATM   19  S   UNL     1      -6.921   8.030  67.969  1.00  0.00    -0.075 S  
HETATM   20  O   UNL     1      -6.946   6.613  68.215  1.00  0.00    -0.071 OA 
HETATM   21  O   UNL     1      -6.001   8.904  68.656  1.00  0.00    -0.044 OA 
BRANCH  19  22
HETATM   22  N   UNL     1      -6.769   8.281  66.286  1.00  0.00    -0.057 N  
BRANCH  22  23
HETATM   23  C   UNL     1      -5.382   8.654  65.861  1.00  0.00    -0.034 C  
HETATM   24  C   UNL     1      -5.231  10.119  65.477  1.00  0.00    -0.063 C  
ENDBRANCH  22  23
BRANCH  22  25
HETATM   25  C   UNL     1      -7.865   9.112  65.712  1.00  0.00    -0.098 C  
HETATM   26  C   UNL     1      -8.374   8.597  64.376  1.00  0.00    -0.148 C  
ENDBRANCH  22  25
ENDBRANCH  19  22
ENDBRANCH  17  19
ENDBRANCH   3  17
BRANCH   7  27
HETATM   27  C   UNL     1     -12.238   9.978  69.707  1.00  0.00     0.187 C  
BRANCH  27  28
HETATM   28  C   UNL     1     -12.256  10.087  71.237  1.00  0.00    -0.498 C  
HETATM   29  C   UNL     1     -13.218  11.169  71.707  1.00  0.00    -0.486 C  
ENDBRANCH  27  28
ENDBRANCH   7  27
TORSDOF 7
ENDMDL
MODEL      140
REMARK 921   NORMALIZED FREE ENERGY PREDICTED BY IDOCK:   -3.43 KCAL/MOL
REMARK 922        TOTAL FREE ENERGY PREDICTED BY IDOCK:   -6.05 KCAL/MOL
REMARK 923 INTER-LIGAND FREE ENERGY PREDICTED BY IDOCK:   -5.05 KCAL/MOL
REMARK 924 INTRA-LIGAND FREE ENERGY PREDICTED BY IDOCK:   -1.00 KCAL/MOL
REMARK 927      BINDING AFFINITY PREDICTED BY RF-SCORE:    0.00 PKD
ROOT
HETATM    1  C   UNL     1     -10.214   6.196  68.606  1.00  0.00    -0.220 C  
HETATM    2  C   UNL     1     -10.975   5.973  67.289  1.00  0.00    -0.356 C  
HETATM    3  C   UNL     1     -10.018   5.876  66.096  1.00  0.00     0.013 C  
HETATM    4  C   UNL     1     -10.566   6.849  71.047  1.00  0.00    -0.244 A  
HETATM    5  C   UNL     1      -9.141   7.139  66.094  1.00  0.00    -0.119 C  
HETATM    6  C   UNL     1      -9.412   7.614  73.492  1.00  0.00    -0.347 A  
HETATM    7  N   UNL     1      -8.339   7.253  67.325  1.00  0.00    -0.118 NA 
HETATM    8  O   UNL     1     -12.614   6.425  72.187  1.00  0.00    -0.514 OA 
HETATM    9  C   UNL     1      -9.200   7.366  68.524  1.00  0.00    -0.142 C  
HETATM   10  C   UNL     1      -8.663   7.661  72.317  1.00  0.00    -0.160 A  
HETATM   11  C   UNL     1     -10.739   7.200  73.452  1.00  0.00    -0.410 A  
HETATM   12  C   UNL     1      -9.236   7.300  71.086  1.00  0.00    -0.156 A  
HETATM   13  C   UNL     1     -11.308   6.825  72.237  1.00  0.00    -0.273 A  
HETATM   14  H   UNL     1     -13.002   6.168  71.359  1.00  0.00     0.000 HD 
HETATM   15  C   UNL     1     -11.216   6.455  69.743  1.00  0.00    -0.484 C  
HETATM   16  C   UNL     1      -8.384   7.360  69.839  1.00  0.00    -0.134 C  
ENDROOT
BRANCH   3  17
HETATM   17  N   UNL     1      -9.223   4.596  66.184  1.00  0.00    -0.133 N  
HETATM   18  H   UNL     1      -8.587   4.391  66.955  1.00  0.00     0.000 HD 
BRANCH  17  19
HETATM   19  S   UNL     1      -9.475   3.535  64.902  1.00  0.00    -0.162 S  
HETATM   20  O   UNL     1     -10.689   3.856  64.200  1.00  0.00    -0.276 OA 
HETATM   21  O   UNL     1      -9.237   2.219  65.446  1.00  0.00    -0.127 OA 
BRANCH  19  22
HETATM   22  N   UNL     1      -8.151   3.970  63.913  1.00  0.00    -0.089 N  
BRANCH  22  23
HETATM   23  C   UNL     1      -6.957   4.436  64.687  1.00  0.00    -0.050 C  
HETATM   24  C   UNL     1      -5.910   3.354  64.912  1.00  0.00    -0.022 C  
ENDBRANCH  22  23
BRANCH  22  25
HETATM   25  C   UNL     1      -8.538   4.818  62.750  1.00  0.00    -0.118 C  
HETATM   26  C   UNL     1      -7.794   6.142  62.698  1.00  0.00    -0.097 C  
ENDBRANCH  22  25
ENDBRANCH  19  22
ENDBRANCH  17  19
ENDBRANCH   3  17
BRANCH   7  27
HETATM   27  C   UNL     1      -7.296   8.277  67.180  1.00  0.00    -0.088 C  
BRANCH  27  28
HETATM   28  C   UNL     1      -7.506   9.280  66.038  1.00  0.00    -0.095 C  
HETATM   29  C   UNL     1      -6.902  10.636  66.371  1.00  0.00    -0.129 C  
ENDBRANCH  27  28
ENDBRANCH   7  27
TORSDOF 7
ENDMDL
MODEL      141
REMARK 921   NORMALIZED FREE ENERGY PREDICTED BY IDOCK:   -3.37 KCAL/MOL
REMARK 922        TOTAL FREE ENERGY PREDICTED BY IDOCK:   -5.97 KCAL/MOL
REMARK 923 INTER-LIGAND FREE ENERGY PREDICTED BY IDOCK:   -6.38 KCAL/MOL
REMARK 924 INTRA-LIGAND FREE ENERGY PREDICTED BY IDOCK:    0.42 KCAL/MOL
REMARK 927      BINDING AFFINITY PREDICTED BY RF-SCORE:    0.00 PKD
ROOT
HETATM    1  C   UNL     1      -8.600  14.428  67.317  1.00  0.00    -0.230 C  
HETATM    2  C   UNL     1      -8.939  15.775  67.975  1.00  0.00    -0.178 C  
HETATM    3  C   UNL     1      -7.674  16.555  68.346  1.00  0.00    -0.189 C  
HETATM    4  C   UNL     1      -9.645  12.204  66.628  1.00  0.00    -0.226 A  
HETATM    5  C   UNL     1      -6.802  15.643  69.224  1.00  0.00    -0.164 C  
HETATM    6  C   UNL     1      -9.250   9.567  65.745  1.00  0.00    -0.267 A  
HETATM    7  N   UNL     1      -6.400  14.416  68.514  1.00  0.00    -0.082 NA 
HETATM    8  O   UNL     1     -11.950  12.012  66.061  1.00  0.00    -0.559 OA 
HETATM    9  C   UNL     1      -7.575  13.600  68.135  1.00  0.00    -0.137 C  
HETATM   10  C   UNL     1      -8.184  10.299  66.266  1.00  0.00    -0.131 A  
HETATM   11  C   UNL     1     -10.516  10.138  65.676  1.00  0.00    -0.103 A  
HETATM   12  C   UNL     1      -8.374  11.611  66.728  1.00  0.00    -0.171 A  
HETATM   13  C   UNL     1     -10.707  11.445  66.118  1.00  0.00    -0.267 A  
HETATM   14  H   UNL     1     -12.080  12.903  66.362  1.00  0.00     0.000 HD 
HETATM   15  C   UNL     1      -9.887  13.611  67.117  1.00  0.00    -0.242 C  
HETATM   16  C   UNL     1      -7.188  12.371  67.279  1.00  0.00    -0.125 C  
ENDROOT
BRANCH   3  17
HETATM   17  N   UNL     1      -6.977  17.021  67.091  1.00  0.00    -0.162 N  
HETATM   18  H   UNL     1      -6.165  16.543  66.698  1.00  0.00     0.000 HD 
BRANCH  17  19
HETATM   19  S   UNL     1      -7.653  18.396  66.394  1.00  0.00    -0.256 S  
HETATM   20  O   UNL     1      -9.031  18.172  66.048  1.00  0.00    -0.503 OA 
HETATM   21  O   UNL     1      -6.687  18.840  65.418  1.00  0.00    -0.402 OA 
BRANCH  19  22
HETATM   22  N   UNL     1      -7.600  19.448  67.740  1.00  0.00    -0.261 N  
BRANCH  22  23
HETATM   23  C   UNL     1      -6.330  19.347  68.526  1.00  0.00    -0.249 C  
HETATM   24  C   UNL     1      -6.206  20.389  69.629  1.00  0.00    -0.310 C  
ENDBRANCH  22  23
BRANCH  22  25
HETATM   25  C   UNL     1      -8.858  19.443  68.540  1.00  0.00    -0.366 C  
HETATM   26  C   UNL     1      -9.945  20.328  67.955  1.00  0.00    -0.459 C  
ENDBRANCH  22  25
ENDBRANCH  19  22
ENDBRANCH  17  19
ENDBRANCH   3  17
BRANCH   7  27
HETATM   27  C   UNL     1      -5.333  13.714  69.239  1.00  0.00    -0.078 C  
BRANCH  27  28
HETATM   28  C   UNL     1      -5.249  14.009  70.743  1.00  0.00    -0.124 C  
HETATM   29  C   UNL     1      -5.129  12.728  71.555  1.00  0.00    -0.144 C  
ENDBRANCH  27  28
ENDBRANCH   7  27
TORSDOF 7
ENDMDL
MODEL      142
REMARK 921   NORMALIZED FREE ENERGY PREDICTED BY IDOCK:   -3.37 KCAL/MOL
REMARK 922        TOTAL FREE ENERGY PREDICTED BY IDOCK:   -5.96 KCAL/MOL
REMARK 923 INTER-LIGAND FREE ENERGY PREDICTED BY IDOCK:   -5.25 KCAL/MOL
REMARK 924 INTRA-LIGAND FREE ENERGY PREDICTED BY IDOCK:   -0.71 KCAL/MOL
REMARK 927      BINDING AFFINITY PREDICTED BY RF-SCORE:    0.00 PKD
ROOT
HETATM    1  C   UNL     1      -8.708  10.761  64.816  1.00  0.00    -0.118 C  
HETATM    2  C   UNL     1     -10.037  11.246  65.416  1.00  0.00    -0.314 C  
HETATM    3  C   UNL     1      -9.853  12.533  66.227  1.00  0.00    -0.252 C  
HETATM    4  C   UNL     1      -7.628   8.747  63.682  1.00  0.00    -0.124 A  
HETATM    5  C   UNL     1      -8.762  12.272  67.278  1.00  0.00    -0.188 C  
HETATM    6  C   UNL     1      -5.270   7.498  62.802  1.00  0.00    -0.041 A  
HETATM    7  N   UNL     1      -7.472  11.925  66.656  1.00  0.00    -0.014 NA 
HETATM    8  O   UNL     1      -8.891   7.196  62.388  1.00  0.00    -0.361 OA 
HETATM    9  C   UNL     1      -7.569  10.678  65.865  1.00  0.00    -0.138 C  
HETATM   10  C   UNL     1      -5.206   8.574  63.686  1.00  0.00    -0.057 A  
HETATM   11  C   UNL     1      -6.505   7.032  62.365  1.00  0.00    -0.052 A  
HETATM   12  C   UNL     1      -6.379   9.193  64.148  1.00  0.00    -0.083 A  
HETATM   13  C   UNL     1      -7.672   7.653  62.806  1.00  0.00    -0.123 A  
HETATM   14  H   UNL     1      -9.686   7.619  62.689  1.00  0.00     0.000 HD 
HETATM   15  C   UNL     1      -8.909   9.386  64.158  1.00  0.00    -0.216 C  
HETATM   16  C   UNL     1      -6.261  10.361  65.101  1.00  0.00    -0.114 C  
ENDROOT
BRANCH   3  17
HETATM   17  N   UNL     1      -9.528  13.677  65.298  1.00  0.00    -0.396 N  
HETATM   18  H   UNL     1      -8.885  13.586  64.511  1.00  0.00     0.000 HD 
BRANCH  17  19
HETATM   19  S   UNL     1     -10.316  15.117  65.671  1.00  0.00    -0.390 S  
HETATM   20  O   UNL     1     -10.818  15.750  64.482  1.00  0.00    -0.467 OA 
HETATM   21  O   UNL     1      -9.435  15.805  66.584  1.00  0.00    -0.228 OA 
BRANCH  19  22
HETATM   22  N   UNL     1     -11.642  14.492  66.549  1.00  0.00    -0.370 N  
BRANCH  22  23
HETATM   23  C   UNL     1     -12.902  14.403  65.744  1.00  0.00    -0.155 C  
HETATM   24  C   UNL     1     -12.993  13.152  64.881  1.00  0.00    -0.213 C  
ENDBRANCH  22  23
BRANCH  22  25
HETATM   25  C   UNL     1     -11.784  15.090  67.907  1.00  0.00    -0.289 C  
HETATM   26  C   UNL     1     -11.338  14.159  69.023  1.00  0.00    -0.310 C  
ENDBRANCH  22  25
ENDBRANCH  19  22
ENDBRANCH  17  19
ENDBRANCH   3  17
BRANCH   7  27
HETATM   27  C   UNL     1      -6.382  11.982  67.640  1.00  0.00    -0.099 C  
BRANCH  27  28
HETATM   28  C   UNL     1      -6.308  13.268  68.474  1.00  0.00    -0.083 C  
HETATM   29  C   UNL     1      -6.277  12.963  69.965  1.00  0.00    -0.058 C  
ENDBRANCH  27  28
ENDBRANCH   7  27
TORSDOF 7
ENDMDL
MODEL      143
REMARK 921   NORMALIZED FREE ENERGY PREDICTED BY IDOCK:   -3.35 KCAL/MOL
REMARK 922        TOTAL FREE ENERGY PREDICTED BY IDOCK:   -5.94 KCAL/MOL
REMARK 923 INTER-LIGAND FREE ENERGY PREDICTED BY IDOCK:   -4.97 KCAL/MOL
REMARK 924 INTRA-LIGAND FREE ENERGY PREDICTED BY IDOCK:   -0.97 KCAL/MOL
REMARK 927      BINDING AFFINITY PREDICTED BY RF-SCORE:    0.00 PKD
ROOT
HETATM    1  C   UNL     1     -10.469   5.510  68.466  1.00  0.00    -0.234 C  
HETATM    2  C   UNL     1     -10.910   6.177  67.153  1.00  0.00    -0.442 C  
HETATM    3  C   UNL     1     -10.093   5.668  65.961  1.00  0.00     0.029 C  
HETATM    4  C   UNL     1     -10.711   5.699  70.999  1.00  0.00    -0.304 A  
HETATM    5  C   UNL     1      -8.605   5.878  66.289  1.00  0.00    -0.132 C  
HETATM    6  C   UNL     1      -9.827   4.879  73.537  1.00  0.00    -0.167 A  
HETATM    7  N   UNL     1      -8.196   5.126  67.488  1.00  0.00    -0.103 NA 
HETATM    8  O   UNL     1     -12.639   6.657  72.018  1.00  0.00    -0.480 OA 
HETATM    9  C   UNL     1      -8.936   5.576  68.689  1.00  0.00    -0.114 C  
HETATM   10  C   UNL     1      -9.057   4.612  72.406  1.00  0.00    -0.142 A  
HETATM   11  C   UNL     1     -11.030   5.567  73.410  1.00  0.00    -0.324 A  
HETATM   12  C   UNL     1      -9.479   5.035  71.135  1.00  0.00    -0.212 A  
HETATM   13  C   UNL     1     -11.462   5.973  72.150  1.00  0.00    -0.302 A  
HETATM   14  H   UNL     1     -12.934   6.934  71.158  1.00  0.00     0.000 HD 
HETATM   15  C   UNL     1     -11.196   6.170  69.650  1.00  0.00    -0.488 C  
HETATM   16  C   UNL     1      -8.615   4.717  69.935  1.00  0.00    -0.094 C  
ENDROOT
BRANCH   3  17
HETATM   17  N   UNL     1     -10.446   4.228  65.680  1.00  0.00    -0.476 N  
HETATM   18  H   UNL     1     -10.999   3.658  66.320  1.00  0.00     0.000 HD 
BRANCH  17  19
HETATM   19  S   UNL     1      -9.850   3.642  64.219  1.00  0.00    -0.195 S  
HETATM   20  O   UNL     1      -9.255   4.699  63.446  1.00  0.00    -0.127 OA 
HETATM   21  O   UNL     1     -10.903   2.811  63.686  1.00  0.00    -0.223 OA 
BRANCH  19  22
HETATM   22  N   UNL     1      -8.600   2.637  64.808  1.00  0.00    -0.094 N  
BRANCH  22  23
HETATM   23  C   UNL     1      -7.914   1.847  63.737  1.00  0.00    -0.061 C  
HETATM   24  C   UNL     1      -6.608   2.467  63.257  1.00  0.00    -0.026 C  
ENDBRANCH  22  23
BRANCH  22  25
HETATM   25  C   UNL     1      -8.984   1.872  66.029  1.00  0.00    -0.097 C  
HETATM   26  C   UNL     1      -7.816   1.605  66.963  1.00  0.00    -0.065 C  
ENDBRANCH  22  25
ENDBRANCH  19  22
ENDBRANCH  17  19
ENDBRANCH   3  17
BRANCH   7  27
HETATM   27  C   UNL     1      -6.732   5.087  67.610  1.00  0.00    -0.055 C  
BRANCH  27  28
HETATM   28  C   UNL     1      -6.013   6.426  67.401  1.00  0.00    -0.020 C  
HETATM   29  C   UNL     1      -5.419   6.947  68.700  1.00  0.00    -0.017 C  
ENDBRANCH  27  28
ENDBRANCH   7  27
TORSDOF 7
ENDMDL
MODEL      144
REMARK 921   NORMALIZED FREE ENERGY PREDICTED BY IDOCK:   -3.35 KCAL/MOL
REMARK 922        TOTAL FREE ENERGY PREDICTED BY IDOCK:   -5.94 KCAL/MOL
REMARK 923 INTER-LIGAND FREE ENERGY PREDICTED BY IDOCK:   -4.89 KCAL/MOL
REMARK 924 INTRA-LIGAND FREE ENERGY PREDICTED BY IDOCK:   -1.05 KCAL/MOL
REMARK 927      BINDING AFFINITY PREDICTED BY RF-SCORE:    0.00 PKD
ROOT
HETATM    1  C   UNL     1     -10.007   7.275  68.239  1.00  0.00    -0.177 C  
HETATM    2  C   UNL     1     -10.648   6.206  69.138  1.00  0.00    -0.345 C  
HETATM    3  C   UNL     1      -9.815   4.920  69.165  1.00  0.00    -0.193 C  
HETATM    4  C   UNL     1     -10.493   9.512  67.113  1.00  0.00    -0.322 A  
HETATM    5  C   UNL     1      -9.615   4.461  67.712  1.00  0.00    -0.160 C  
HETATM    6  C   UNL     1      -9.693  11.458  65.251  1.00  0.00    -0.276 A  
HETATM    7  N   UNL     1      -8.892   5.467  66.913  1.00  0.00    -0.111 NA 
HETATM    8  O   UNL     1     -12.059  11.066  68.011  1.00  0.00    -0.744 OA 
HETATM    9  C   UNL     1      -9.646   6.737  66.830  1.00  0.00    -0.166 C  
HETATM   10  C   UNL     1      -9.109  10.192  65.237  1.00  0.00    -0.234 A  
HETATM   11  C   UNL     1     -10.684  11.755  66.180  1.00  0.00    -0.320 A  
HETATM   12  C   UNL     1      -9.516   9.205  66.150  1.00  0.00    -0.309 A  
HETATM   13  C   UNL     1     -11.080  10.786  67.099  1.00  0.00    -0.227 A  
HETATM   14  H   UNL     1     -12.329  10.406  68.638  1.00  0.00     0.000 HD 
HETATM   15  C   UNL     1     -10.957   8.477  68.108  1.00  0.00     0.126 C  
HETATM   16  C   UNL     1      -8.851   7.848  66.103  1.00  0.00    -0.197 C  
ENDROOT
BRANCH   3  17
HETATM   17  N   UNL     1      -8.520   5.168  69.899  1.00  0.00    -0.095 N  
HETATM   18  H   UNL     1      -7.738   5.678  69.486  1.00  0.00     0.000 HD 
BRANCH  17  19
HETATM   19  S   UNL     1      -8.474   4.533  71.457  1.00  0.00    -0.111 S  
HETATM   20  O   UNL     1      -7.515   3.465  71.548  1.00  0.00    -0.045 OA 
HETATM   21  O   UNL     1      -9.855   4.349  71.832  1.00  0.00    -0.164 OA 
BRANCH  19  22
HETATM   22  N   UNL     1      -7.851   5.886  72.294  1.00  0.00    -0.102 N  
BRANCH  22  23
HETATM   23  C   UNL     1      -8.116   7.189  71.604  1.00  0.00    -0.102 C  
HETATM   24  C   UNL     1      -9.221   8.013  72.250  1.00  0.00    -0.243 C  
ENDBRANCH  22  23
BRANCH  22  25
HETATM   25  C   UNL     1      -6.457   5.687  72.783  1.00  0.00    -0.066 C  
HETATM   26  C   UNL     1      -5.413   6.369  71.915  1.00  0.00    -0.031 C  
ENDBRANCH  22  25
ENDBRANCH  19  22
ENDBRANCH  17  19
ENDBRANCH   3  17
BRANCH   7  27
HETATM   27  C   UNL     1      -8.441   4.898  65.636  1.00  0.00    -0.124 C  
BRANCH  27  28
HETATM   28  C   UNL     1      -7.228   3.962  65.718  1.00  0.00    -0.071 C  
HETATM   29  C   UNL     1      -7.555   2.577  65.180  1.00  0.00    -0.076 C  
ENDBRANCH  27  28
ENDBRANCH   7  27
TORSDOF 7
ENDMDL
MODEL      145
REMARK 921   NORMALIZED FREE ENERGY PREDICTED BY IDOCK:   -3.30 KCAL/MOL
REMARK 922        TOTAL FREE ENERGY PREDICTED BY IDOCK:   -5.87 KCAL/MOL
REMARK 923 INTER-LIGAND FREE ENERGY PREDICTED BY IDOCK:   -5.05 KCAL/MOL
REMARK 924 INTRA-LIGAND FREE ENERGY PREDICTED BY IDOCK:   -0.82 KCAL/MOL
REMARK 927      BINDING AFFINITY PREDICTED BY RF-SCORE:    0.00 PKD
ROOT
HETATM    1  C   UNL     1      -9.923   7.640  67.944  1.00  0.00    -0.208 C  
HETATM    2  C   UNL     1     -11.216   7.154  68.618  1.00  0.00     0.085 C  
HETATM    3  C   UNL     1     -10.919   6.274  69.836  1.00  0.00    -0.370 C  
HETATM    4  C   UNL     1      -9.057   8.748  65.815  1.00  0.00    -0.267 A  
HETATM    5  C   UNL     1      -9.998   5.132  69.376  1.00  0.00    -0.222 C  
HETATM    6  C   UNL     1      -6.843   9.443  64.231  1.00  0.00    -0.095 A  
HETATM    7  N   UNL     1      -8.720   5.637  68.846  1.00  0.00    -0.107 NA 
HETATM    8  O   UNL     1     -10.403  10.226  64.521  1.00  0.00    -0.284 OA 
HETATM    9  C   UNL     1      -8.927   6.488  67.652  1.00  0.00    -0.114 C  
HETATM   10  C   UNL     1      -6.705   8.511  65.258  1.00  0.00    -0.063 A  
HETATM   11  C   UNL     1      -8.083  10.020  63.979  1.00  0.00    -0.153 A  
HETATM   12  C   UNL     1      -7.809   8.141  66.043  1.00  0.00    -0.093 A  
HETATM   13  C   UNL     1      -9.178   9.670  64.766  1.00  0.00    -0.238 A  
HETATM   14  H   UNL     1     -11.150   9.988  65.057  1.00  0.00     0.000 HD 
HETATM   15  C   UNL     1     -10.266   8.374  66.637  1.00  0.00    -0.335 C  
HETATM   16  C   UNL     1      -7.612   7.131  67.152  1.00  0.00    -0.103 C  
ENDROOT
BRANCH   3  17
HETATM   17  N   UNL     1     -10.325   7.115  70.939  1.00  0.00    -0.201 N  
HETATM   18  H   UNL     1      -9.372   7.481  70.904  1.00  0.00     0.000 HD 
BRANCH  17  19
HETATM   19  S   UNL     1     -11.365   7.399  72.231  1.00  0.00    -0.296 S  
HETATM   20  O   UNL     1     -12.407   6.409  72.278  1.00  0.00    -0.252 OA 
HETATM   21  O   UNL     1     -11.660   8.811  72.177  1.00  0.00    -0.362 OA 
BRANCH  19  22
HETATM   22  N   UNL     1     -10.289   7.110  73.527  1.00  0.00    -0.342 N  
BRANCH  22  23
HETATM   23  C   UNL     1      -8.897   7.596  73.266  1.00  0.00    -0.199 C  
HETATM   24  C   UNL     1      -8.052   7.743  74.524  1.00  0.00    -0.269 C  
ENDBRANCH  22  23
BRANCH  22  25
HETATM   25  C   UNL     1     -10.399   5.733  74.087  1.00  0.00    -0.282 C  
HETATM   26  C   UNL     1      -9.659   4.690  73.265  1.00  0.00    -0.143 C  
ENDBRANCH  22  25
ENDBRANCH  19  22
ENDBRANCH  17  19
ENDBRANCH   3  17
BRANCH   7  27
HETATM   27  C   UNL     1      -7.744   4.549  68.701  1.00  0.00    -0.071 C  
BRANCH  27  28
HETATM   28  C   UNL     1      -6.498   4.653  69.590  1.00  0.00    -0.032 C  
HETATM   29  C   UNL     1      -6.798   4.231  71.021  1.00  0.00    -0.036 C  
ENDBRANCH  27  28
ENDBRANCH   7  27
TORSDOF 7
ENDMDL
MODEL      146
REMARK 921   NORMALIZED FREE ENERGY PREDICTED BY IDOCK:   -3.28 KCAL/MOL
REMARK 922        TOTAL FREE ENERGY PREDICTED BY IDOCK:   -5.83 KCAL/MOL
REMARK 923 INTER-LIGAND FREE ENERGY PREDICTED BY IDOCK:   -5.32 KCAL/MOL
REMARK 924 INTRA-LIGAND FREE ENERGY PREDICTED BY IDOCK:   -0.51 KCAL/MOL
REMARK 927      BINDING AFFINITY PREDICTED BY RF-SCORE:    0.00 PKD
ROOT
HETATM    1  C   UNL     1      -9.997   7.960  68.920  1.00  0.00    -0.194 C  
HETATM    2  C   UNL     1     -10.120   7.915  67.389  1.00  0.00    -0.292 C  
HETATM    3  C   UNL     1      -9.930   9.302  66.768  1.00  0.00    -0.245 C  
HETATM    4  C   UNL     1     -10.430   6.570  71.016  1.00  0.00    -0.260 A  
HETATM    5  C   UNL     1     -10.932  10.257  67.438  1.00  0.00    -0.252 C  
HETATM    6  C   UNL     1     -10.603   6.490  73.819  1.00  0.00    -0.285 A  
HETATM    7  N   UNL     1     -10.703  10.362  68.890  1.00  0.00    -0.209 NA 
HETATM    8  O   UNL     1     -10.392   4.189  70.985  1.00  0.00    -0.035 OA 
HETATM    9  C   UNL     1     -10.885   9.057  69.563  1.00  0.00    -0.166 C  
HETATM   10  C   UNL     1     -10.601   7.713  73.151  1.00  0.00    -0.438 A  
HETATM   11  C   UNL     1     -10.534   5.304  73.095  1.00  0.00    -0.251 A  
HETATM   12  C   UNL     1     -10.535   7.765  71.749  1.00  0.00    -0.259 A  
HETATM   13  C   UNL     1     -10.452   5.349  71.705  1.00  0.00    -0.227 A  
HETATM   14  H   UNL     1     -10.336   4.220  70.037  1.00  0.00     0.000 HD 
HETATM   15  C   UNL     1     -10.361   6.586  69.508  1.00  0.00    -0.237 C  
HETATM   16  C   UNL     1     -10.528   9.115  71.068  1.00  0.00    -0.368 C  
ENDROOT
BRANCH   3  17
HETATM   17  N   UNL     1      -8.493   9.737  66.924  1.00  0.00    -0.120 N  
HETATM   18  H   UNL     1      -8.041   9.840  67.833  1.00  0.00     0.000 HD 
BRANCH  17  19
HETATM   19  S   UNL     1      -7.699  10.038  65.470  1.00  0.00    -0.140 S  
HETATM   20  O   UNL     1      -8.369  11.069  64.724  1.00  0.00     0.016 OA 
HETATM   21  O   UNL     1      -7.440   8.736  64.903  1.00  0.00    -0.091 OA 
BRANCH  19  22
HETATM   22  N   UNL     1      -6.235  10.677  66.077  1.00  0.00    -0.123 N  
BRANCH  22  23
HETATM   23  C   UNL     1      -5.153   9.652  66.225  1.00  0.00    -0.039 C  
HETATM   24  C   UNL     1      -5.355   8.712  67.405  1.00  0.00    -0.034 C  
ENDBRANCH  22  23
BRANCH  22  25
HETATM   25  C   UNL     1      -6.427  11.586  67.242  1.00  0.00    -0.110 C  
HETATM   26  C   UNL     1      -5.242  12.506  67.488  1.00  0.00    -0.103 C  
ENDBRANCH  22  25
ENDBRANCH  19  22
ENDBRANCH  17  19
ENDBRANCH   3  17
BRANCH   7  27
HETATM   27  C   UNL     1     -11.450  11.492  69.459  1.00  0.00    -0.311 C  
BRANCH  27  28
HETATM   28  C   UNL     1     -11.484  12.764  68.602  1.00  0.00    -0.341 C  
HETATM   29  C   UNL     1     -10.117  13.428  68.536  1.00  0.00    -0.208 C  
ENDBRANCH  27  28
ENDBRANCH   7  27
TORSDOF 7
ENDMDL
MODEL      147
REMARK 921   NORMALIZED FREE ENERGY PREDICTED BY IDOCK:   -3.18 KCAL/MOL
REMARK 922        TOTAL FREE ENERGY PREDICTED BY IDOCK:   -5.70 KCAL/MOL
REMARK 923 INTER-LIGAND FREE ENERGY PREDICTED BY IDOCK:   -5.06 KCAL/MOL
REMARK 924 INTRA-LIGAND FREE ENERGY PREDICTED BY IDOCK:   -0.64 KCAL/MOL
REMARK 927      BINDING AFFINITY PREDICTED BY RF-SCORE:    0.00 PKD
ROOT
HETATM    1  C   UNL     1     -10.153   6.746  69.302  1.00  0.00    -0.179 C  
HETATM    2  C   UNL     1     -10.481   7.105  70.760  1.00  0.00    -0.227 C  
HETATM    3  C   UNL     1     -10.601   8.620  70.954  1.00  0.00    -0.214 C  
HETATM    4  C   UNL     1      -9.384   4.809  67.830  1.00  0.00    -0.164 A  
HETATM    5  C   UNL     1      -9.302   9.263  70.439  1.00  0.00    -0.250 C  
HETATM    6  C   UNL     1      -8.437   3.960  65.325  1.00  0.00    -0.112 A  
HETATM    7  N   UNL     1      -9.087   8.993  69.006  1.00  0.00    -0.142 NA 
HETATM    8  O   UNL     1      -9.835   2.538  68.391  1.00  0.00    -0.071 OA 
HETATM    9  C   UNL     1      -8.946   7.543  68.743  1.00  0.00    -0.129 C  
HETATM   10  C   UNL     1      -8.421   5.313  65.659  1.00  0.00    -0.135 A  
HETATM   11  C   UNL     1      -8.910   3.025  66.240  1.00  0.00    -0.144 A  
HETATM   12  C   UNL     1      -8.874   5.747  66.916  1.00  0.00    -0.114 A  
HETATM   13  C   UNL     1      -9.376   3.451  67.482  1.00  0.00    -0.204 A  
HETATM   14  H   UNL     1     -10.153   2.829  69.237  1.00  0.00     0.000 HD 
HETATM   15  C   UNL     1      -9.877   5.238  69.191  1.00  0.00    -0.257 C  
HETATM   16  C   UNL     1      -8.844   7.225  67.232  1.00  0.00    -0.124 C  
ENDROOT
BRANCH   3  17
HETATM   17  N   UNL     1     -11.838   9.126  70.253  1.00  0.00    -0.468 N  
HETATM   18  H   UNL     1     -11.948   9.105  69.239  1.00  0.00     0.000 HD 
BRANCH  17  19
HETATM   19  S   UNL     1     -13.021   9.729  71.287  1.00  0.00    -0.377 S  
HETATM   20  O   UNL     1     -12.692   9.454  72.660  1.00  0.00    -0.265 OA 
HETATM   21  O   UNL     1     -14.277   9.315  70.708  1.00  0.00     0.063 OA 
BRANCH  19  22
HETATM   22  N   UNL     1     -12.812  11.402  71.009  1.00  0.00    -0.324 N  
BRANCH  22  23
HETATM   23  C   UNL     1     -11.650  11.717  70.119  1.00  0.00    -0.195 C  
HETATM   24  C   UNL     1     -11.971  12.724  69.023  1.00  0.00    -0.288 C  
ENDBRANCH  22  23
BRANCH  22  25
HETATM   25  C   UNL     1     -12.917  12.223  72.249  1.00  0.00    -0.030 C  
HETATM   26  C   UNL     1     -14.141  13.123  72.271  1.00  0.00    -0.372 C  
ENDBRANCH  22  25
ENDBRANCH  19  22
ENDBRANCH  17  19
ENDBRANCH   3  17
BRANCH   7  27
HETATM   27  C   UNL     1      -8.027   9.853  68.463  1.00  0.00    -0.086 C  
BRANCH  27  28
HETATM   28  C   UNL     1      -8.387  11.338  68.320  1.00  0.00    -0.150 C  
HETATM   29  C   UNL     1      -7.267  12.234  68.827  1.00  0.00    -0.098 C  
ENDBRANCH  27  28
ENDBRANCH   7  27
TORSDOF 7
ENDMDL
MODEL      148
REMARK 921   NORMALIZED FREE ENERGY PREDICTED BY IDOCK:   -3.10 KCAL/MOL
REMARK 922        TOTAL FREE ENERGY PREDICTED BY IDOCK:   -5.58 KCAL/MOL
REMARK 923 INTER-LIGAND FREE ENERGY PREDICTED BY IDOCK:   -4.88 KCAL/MOL
REMARK 924 INTRA-LIGAND FREE ENERGY PREDICTED BY IDOCK:   -0.71 KCAL/MOL
REMARK 927      BINDING AFFINITY PREDICTED BY RF-SCORE:    0.00 PKD
ROOT
HETATM    1  C   UNL     1      -8.902   8.345  69.130  1.00  0.00    -0.142 C  
HETATM    2  C   UNL     1      -7.638   7.474  69.204  1.00  0.00    -0.100 C  
HETATM    3  C   UNL     1      -7.974   6.026  69.575  1.00  0.00    -0.106 C  
HETATM    4  C   UNL     1      -9.664  10.777  69.002  1.00  0.00    -0.201 A  
HETATM    5  C   UNL     1      -8.781   6.052  70.884  1.00  0.00    -0.135 C  
HETATM    6  C   UNL     1     -11.784  12.614  69.167  1.00  0.00    -0.375 A  
HETATM    7  N   UNL     1     -10.043   6.799  70.736  1.00  0.00    -0.191 NA 
HETATM    8  O   UNL     1      -8.315  12.475  68.016  1.00  0.00    -0.153 OA 
HETATM    9  C   UNL     1      -9.795   8.217  70.391  1.00  0.00    -0.186 C  
HETATM   10  C   UNL     1     -11.944  11.314  69.644  1.00  0.00    -0.423 A  
HETATM   11  C   UNL     1     -10.567  13.008  68.621  1.00  0.00    -0.257 A  
HETATM   12  C   UNL     1     -10.884  10.393  69.585  1.00  0.00    -0.320 A  
HETATM   13  C   UNL     1      -9.518  12.094  68.544  1.00  0.00    -0.122 A  
HETATM   14  H   UNL     1      -7.600  11.852  67.964  1.00  0.00     0.000 HD 
HETATM   15  C   UNL     1      -8.503   9.816  68.924  1.00  0.00    -0.129 C  
HETATM   16  C   UNL     1     -11.105   8.992  70.108  1.00  0.00    -0.228 C  
ENDROOT
BRANCH   3  17
HETATM   17  N   UNL     1      -8.708   5.365  68.433  1.00  0.00    -0.099 N  
HETATM   18  H   UNL     1      -9.333   5.875  67.808  1.00  0.00     0.000 HD 
BRANCH  17  19
HETATM   19  S   UNL     1      -8.406   3.717  68.278  1.00  0.00    -0.085 S  
HETATM   20  O   UNL     1      -9.509   2.943  68.783  1.00  0.00    -0.177 OA 
HETATM   21  O   UNL     1      -7.060   3.530  68.765  1.00  0.00    -0.049 OA 
BRANCH  19  22
HETATM   22  N   UNL     1      -8.398   3.592  66.574  1.00  0.00    -0.100 N  
BRANCH  22  23
HETATM   23  C   UNL     1      -9.384   4.499  65.904  1.00  0.00    -0.159 C  
HETATM   24  C   UNL     1      -9.520   4.260  64.407  1.00  0.00    -0.149 C  
ENDBRANCH  22  23
BRANCH  22  25
HETATM   25  C   UNL     1      -8.382   2.183  66.086  1.00  0.00    -0.095 C  
HETATM   26  C   UNL     1      -7.086   1.805  65.387  1.00  0.00    -0.051 C  
ENDBRANCH  22  25
ENDBRANCH  19  22
ENDBRANCH  17  19
ENDBRANCH   3  17
BRANCH   7  27
HETATM   27  C   UNL     1     -10.933   6.559  71.880  1.00  0.00    -0.250 C  
BRANCH  27  28
HETATM   28  C   UNL     1     -10.381   5.623  72.964  1.00  0.00    -0.230 C  
HETATM   29  C   UNL     1     -11.362   4.505  73.286  1.00  0.00    -0.364 C  
ENDBRANCH  27  28
ENDBRANCH   7  27
TORSDOF 7
ENDMDL
MODEL      149
REMARK 921   NORMALIZED FREE ENERGY PREDICTED BY IDOCK:   -3.07 KCAL/MOL
REMARK 922        TOTAL FREE ENERGY PREDICTED BY IDOCK:   -5.55 KCAL/MOL
REMARK 923 INTER-LIGAND FREE ENERGY PREDICTED BY IDOCK:   -6.23 KCAL/MOL
REMARK 924 INTRA-LIGAND FREE ENERGY PREDICTED BY IDOCK:    0.69 KCAL/MOL
REMARK 927      BINDING AFFINITY PREDICTED BY RF-SCORE:    0.00 PKD
ROOT
HETATM    1  C   UNL     1     -10.148  15.534  69.144  1.00  0.00    -0.239 C  
HETATM    2  C   UNL     1      -8.656  15.663  68.800  1.00  0.00    -0.193 C  
HETATM    3  C   UNL     1      -8.418  15.589  67.289  1.00  0.00    -0.193 C  
HETATM    4  C   UNL     1     -11.735  15.148  71.104  1.00  0.00    -0.400 A  
HETATM    5  C   UNL     1      -9.057  14.289  66.776  1.00  0.00    -0.249 C  
HETATM    6  C   UNL     1     -14.346  14.574  71.969  1.00  0.00    -0.639 A  
HETATM    7  N   UNL     1     -10.510  14.257  67.020  1.00  0.00    -0.270 NA 
HETATM    8  O   UNL     1     -11.177  15.791  73.329  1.00  0.00     0.269 OA 
HETATM    9  C   UNL     1     -10.817  14.310  68.467  1.00  0.00    -0.253 C  
HETATM   10  C   UNL     1     -13.987  14.369  70.638  1.00  0.00     0.498 A  
HETATM   11  C   UNL     1     -13.405  15.050  72.876  1.00  0.00    -0.585 A  
HETATM   12  C   UNL     1     -12.679  14.634  70.199  1.00  0.00    -0.268 A  
HETATM   13  C   UNL     1     -12.111  15.331  72.443  1.00  0.00    -0.405 A  
HETATM   14  H   UNL     1     -10.295  15.983  73.034  1.00  0.00     0.000 HD 
HETATM   15  C   UNL     1     -10.320  15.443  70.670  1.00  0.00     0.065 C  
HETATM   16  C   UNL     1     -12.337  14.405  68.744  1.00  0.00    -0.080 C  
ENDROOT
BRANCH   3  17
HETATM   17  N   UNL     1      -8.969  16.829  66.626  1.00  0.00    -0.233 N  
HETATM   18  H   UNL     1      -9.491  16.802  65.750  1.00  0.00     0.000 HD 
BRANCH  17  19
HETATM   19  S   UNL     1      -8.649  18.258  67.456  1.00  0.00    -0.252 S  
HETATM   20  O   UNL     1      -7.341  18.224  68.051  1.00  0.00    -0.228 OA 
HETATM   21  O   UNL     1      -9.834  18.514  68.239  1.00  0.00    -0.324 OA 
BRANCH  19  22
HETATM   22  N   UNL     1      -8.613  19.345  66.138  1.00  0.00    -0.329 N  
BRANCH  22  23
HETATM   23  C   UNL     1      -7.229  19.772  65.755  1.00  0.00    -0.318 C  
HETATM   24  C   UNL     1      -6.493  20.525  66.854  1.00  0.00    -0.283 C  
ENDBRANCH  22  23
BRANCH  22  25
HETATM   25  C   UNL     1      -9.619  20.440  66.249  1.00  0.00    -0.209 C  
HETATM   26  C   UNL     1     -10.819  20.246  65.338  1.00  0.00     0.078 C  
ENDBRANCH  22  25
ENDBRANCH  19  22
ENDBRANCH  17  19
ENDBRANCH   3  17
BRANCH   7  27
HETATM   27  C   UNL     1     -11.147  13.170  66.264  1.00  0.00    -0.287 C  
BRANCH  27  28
HETATM   28  C   UNL     1     -10.843  13.143  64.760  1.00  0.00    -0.368 C  
HETATM   29  C   UNL     1     -11.973  12.494  63.976  1.00  0.00    -0.536 C  
ENDBRANCH  27  28
ENDBRANCH   7  27
TORSDOF 7
ENDMDL
MODEL      150
REMARK 921   NORMALIZED FREE ENERGY PREDICTED BY IDOCK:   -3.02 KCAL/MOL
REMARK 922        TOTAL FREE ENERGY PREDICTED BY IDOCK:   -5.48 KCAL/MOL
REMARK 923 INTER-LIGAND FREE ENERGY PREDICTED BY IDOCK:   -4.79 KCAL/MOL
REMARK 924 INTRA-LIGAND FREE ENERGY PREDICTED BY IDOCK:   -0.69 KCAL/MOL
REMARK 927      BINDING AFFINITY PREDICTED BY RF-SCORE:    0.00 PKD
ROOT
HETATM    1  C   UNL     1      -8.911   5.513  68.078  1.00  0.00    -0.108 C  
HETATM    2  C   UNL     1      -8.651   5.654  69.585  1.00  0.00    -0.110 C  
HETATM    3  C   UNL     1      -8.568   7.124  70.007  1.00  0.00    -0.141 C  
HETATM    4  C   UNL     1      -8.895   3.803  66.184  1.00  0.00    -0.127 A  
HETATM    5  C   UNL     1      -7.501   7.804  69.133  1.00  0.00    -0.094 C  
HETATM    6  C   UNL     1      -9.006   3.320  63.419  1.00  0.00    -0.092 A  
HETATM    7  N   UNL     1      -7.849   7.749  67.702  1.00  0.00    -0.120 NA 
HETATM    8  O   UNL     1      -9.292   1.486  66.569  1.00  0.00    -0.320 OA 
HETATM    9  C   UNL     1      -7.932   6.353  67.217  1.00  0.00    -0.112 C  
HETATM   10  C   UNL     1      -8.758   4.606  63.896  1.00  0.00    -0.140 A  
HETATM   11  C   UNL     1      -9.184   2.269  64.313  1.00  0.00    -0.124 A  
HETATM   12  C   UNL     1      -8.681   4.855  65.277  1.00  0.00    -0.146 A  
HETATM   13  C   UNL     1      -9.126   2.514  65.683  1.00  0.00    -0.108 A  
HETATM   14  H   UNL     1      -9.252   1.652  67.503  1.00  0.00     0.000 HD 
HETATM   15  C   UNL     1      -8.818   4.032  67.674  1.00  0.00    -0.132 C  
HETATM   16  C   UNL     1      -8.418   6.266  65.750  1.00  0.00    -0.148 C  
ENDROOT
BRANCH   3  17
HETATM   17  N   UNL     1      -9.930   7.764  69.895  1.00  0.00    -0.188 N  
HETATM   18  H   UNL     1     -10.677   7.376  69.317  1.00  0.00     0.000 HD 
BRANCH  17  19
HETATM   19  S   UNL     1     -10.113   9.169  70.802  1.00  0.00    -0.291 S  
HETATM   20  O   UNL     1      -9.096  10.130  70.470  1.00  0.00     0.131 OA 
HETATM   21  O   UNL     1     -10.322   8.721  72.158  1.00  0.00    -0.331 OA 
BRANCH  19  22
HETATM   22  N   UNL     1     -11.601   9.721  70.168  1.00  0.00    -0.220 N  
BRANCH  22  23
HETATM   23  C   UNL     1     -11.466  10.933  69.299  1.00  0.00    -0.302 C  
HETATM   24  C   UNL     1     -11.205  10.613  67.834  1.00  0.00    -0.376 C  
ENDBRANCH  22  23
BRANCH  22  25
HETATM   25  C   UNL     1     -12.691   9.772  71.184  1.00  0.00    -0.340 C  
HETATM   26  C   UNL     1     -12.917  11.164  71.752  1.00  0.00    -0.526 C  
ENDBRANCH  22  25
ENDBRANCH  19  22
ENDBRANCH  17  19
ENDBRANCH   3  17
BRANCH   7  27
HETATM   27  C   UNL     1      -6.996   8.655  66.919  1.00  0.00    -0.077 C  
BRANCH  27  28
HETATM   28  C   UNL     1      -7.718   9.832  66.250  1.00  0.00    -0.103 C  
HETATM   29  C   UNL     1      -7.382  11.150  66.932  1.00  0.00    -0.138 C  
ENDBRANCH  27  28
ENDBRANCH   7  27
TORSDOF 7
ENDMDL
MODEL      151
REMARK 921   NORMALIZED FREE ENERGY PREDICTED BY IDOCK:   -2.99 KCAL/MOL
REMARK 922        TOTAL FREE ENERGY PREDICTED BY IDOCK:   -5.43 KCAL/MOL
REMARK 923 INTER-LIGAND FREE ENERGY PREDICTED BY IDOCK:   -4.67 KCAL/MOL
REMARK 924 INTRA-LIGAND FREE ENERGY PREDICTED BY IDOCK:   -0.77 KCAL/MOL
REMARK 927      BINDING AFFINITY PREDICTED BY RF-SCORE:    0.00 PKD
ROOT
HETATM    1  C   UNL     1      -8.267   9.895  68.214  1.00  0.00    -0.109 C  
HETATM    2  C   UNL     1      -7.366  11.024  68.737  1.00  0.00    -0.111 C  
HETATM    3  C   UNL     1      -6.809  11.876  67.591  1.00  0.00    -0.112 C  
HETATM    4  C   UNL     1      -9.414   7.735  68.942  1.00  0.00    -0.150 A  
HETATM    5  C   UNL     1      -6.102  10.931  66.606  1.00  0.00    -0.101 C  
HETATM    6  C   UNL     1     -10.790   5.404  68.187  1.00  0.00     0.057 A  
HETATM    7  N   UNL     1      -7.029   9.936  66.037  1.00  0.00    -0.099 NA 
HETATM    8  O   UNL     1     -10.079   7.354  71.198  1.00  0.00    -0.187 OA 
HETATM    9  C   UNL     1      -7.598   9.063  67.088  1.00  0.00    -0.091 C  
HETATM   10  C   UNL     1     -10.102   6.153  67.233  1.00  0.00    -0.202 A  
HETATM   11  C   UNL     1     -10.783   5.804  69.519  1.00  0.00    -0.408 A  
HETATM   12  C   UNL     1      -9.395   7.309  67.603  1.00  0.00    -0.139 A  
HETATM   13  C   UNL     1     -10.097   6.959  69.889  1.00  0.00    -0.188 A  
HETATM   14  H   UNL     1      -9.611   8.142  71.450  1.00  0.00     0.000 HD 
HETATM   15  C   UNL     1      -8.664   8.970  69.377  1.00  0.00    -0.142 C  
HETATM   16  C   UNL     1      -8.669   8.093  66.534  1.00  0.00    -0.160 C  
ENDROOT
BRANCH   3  17
HETATM   17  N   UNL     1      -7.925  12.673  66.960  1.00  0.00    -0.357 N  
HETATM   18  H   UNL     1      -8.323  12.443  66.049  1.00  0.00     0.000 HD 
BRANCH  17  19
HETATM   19  S   UNL     1      -8.457  13.973  67.888  1.00  0.00    -0.185 S  
HETATM   20  O   UNL     1      -7.412  14.447  68.755  1.00  0.00    -0.122 OA 
HETATM   21  O   UNL     1      -9.746  13.571  68.399  1.00  0.00    -0.221 OA 
BRANCH  19  22
HETATM   22  N   UNL     1      -8.691  15.125  66.647  1.00  0.00    -0.276 N  
BRANCH  22  23
HETATM   23  C   UNL     1      -8.104  16.466  66.961  1.00  0.00    -0.201 C  
HETATM   24  C   UNL     1      -9.077  17.419  67.641  1.00  0.00    -0.234 C  
ENDBRANCH  22  23
BRANCH  22  25
HETATM   25  C   UNL     1     -10.081  15.138  66.110  1.00  0.00    -0.295 C  
HETATM   26  C   UNL     1     -10.256  14.269  64.875  1.00  0.00    -0.361 C  
ENDBRANCH  22  25
ENDBRANCH  19  22
ENDBRANCH  17  19
ENDBRANCH   3  17
BRANCH   7  27
HETATM   27  C   UNL     1      -6.425   9.251  64.887  1.00  0.00    -0.075 C  
BRANCH  27  28
HETATM   28  C   UNL     1      -6.985   9.642  63.513  1.00  0.00    -0.109 C  
HETATM   29  C   UNL     1      -5.997   9.331  62.399  1.00  0.00    -0.090 C  
ENDBRANCH  27  28
ENDBRANCH   7  27
TORSDOF 7
ENDMDL
MODEL      152
REMARK 921   NORMALIZED FREE ENERGY PREDICTED BY IDOCK:   -2.97 KCAL/MOL
REMARK 922        TOTAL FREE ENERGY PREDICTED BY IDOCK:   -5.41 KCAL/MOL
REMARK 923 INTER-LIGAND FREE ENERGY PREDICTED BY IDOCK:   -6.59 KCAL/MOL
REMARK 924 INTRA-LIGAND FREE ENERGY PREDICTED BY IDOCK:    1.18 KCAL/MOL
REMARK 927      BINDING AFFINITY PREDICTED BY RF-SCORE:    0.00 PKD
ROOT
HETATM    1  C   UNL     1      -9.428  13.832  66.806  1.00  0.00    -0.281 C  
HETATM    2  C   UNL     1      -8.821  15.120  66.228  1.00  0.00    -0.211 C  
HETATM    3  C   UNL     1      -9.907  16.131  65.844  1.00  0.00    -0.353 C  
HETATM    4  C   UNL     1      -8.833  11.430  67.428  1.00  0.00    -0.150 A  
HETATM    5  C   UNL     1     -10.885  15.428  64.889  1.00  0.00    -0.425 C  
HETATM    6  C   UNL     1      -9.737   8.874  68.166  1.00  0.00    -0.180 A  
HETATM    7  N   UNL     1     -11.534  14.267  65.523  1.00  0.00    -0.322 NA 
HETATM    8  O   UNL     1      -6.630  10.800  68.076  1.00  0.00    -0.062 OA 
HETATM    9  C   UNL     1     -10.544  13.237  65.909  1.00  0.00    -0.281 C  
HETATM   10  C   UNL     1     -10.628   9.808  67.639  1.00  0.00    -0.333 A  
HETATM   11  C   UNL     1      -8.394   9.203  68.313  1.00  0.00    -0.120 A  
HETATM   12  C   UNL     1     -10.183  11.082  67.249  1.00  0.00    -0.234 A  
HETATM   13  C   UNL     1      -7.950  10.471  67.943  1.00  0.00    -0.106 A  
HETATM   14  H   UNL     1      -6.327  11.664  67.824  1.00  0.00     0.000 HD 
HETATM   15  C   UNL     1      -8.319  12.788  67.017  1.00  0.00    -0.123 C  
HETATM   16  C   UNL     1     -11.186  12.065  66.689  1.00  0.00    -0.380 C  
ENDROOT
BRANCH   3  17
HETATM   17  N   UNL     1     -10.568  16.665  67.092  1.00  0.00    -0.299 N  
HETATM   18  H   UNL     1     -11.579  16.658  67.229  1.00  0.00     0.000 HD 
BRANCH  17  19
HETATM   19  S   UNL     1      -9.496  17.273  68.238  1.00  0.00    -0.293 S  
HETATM   20  O   UNL     1     -10.137  18.255  69.070  1.00  0.00    -0.379 OA 
HETATM   21  O   UNL     1      -8.287  17.568  67.507  1.00  0.00    -0.211 OA 
BRANCH  19  22
HETATM   22  N   UNL     1      -9.248  15.860  69.167  1.00  0.00    -0.240 N  
BRANCH  22  23
HETATM   23  C   UNL     1     -10.392  15.535  70.077  1.00  0.00    -0.302 C  
HETATM   24  C   UNL     1     -11.268  14.394  69.578  1.00  0.00    -0.294 C  
ENDBRANCH  22  23
BRANCH  22  25
HETATM   25  C   UNL     1      -7.892  15.791  69.785  1.00  0.00     0.098 C  
HETATM   26  C   UNL     1      -6.902  16.766  69.169  1.00  0.00    -0.227 C  
ENDBRANCH  22  25
ENDBRANCH  19  22
ENDBRANCH  17  19
ENDBRANCH   3  17
BRANCH   7  27
HETATM   27  C   UNL     1     -12.674  13.800  64.722  1.00  0.00    -0.215 C  
BRANCH  27  28
HETATM   28  C   UNL     1     -12.324  13.222  63.345  1.00  0.00    -0.402 C  
HETATM   29  C   UNL     1     -12.511  11.713  63.311  1.00  0.00    -0.262 C  
ENDBRANCH  27  28
ENDBRANCH   7  27
TORSDOF 7
ENDMDL
MODEL      153
REMARK 921   NORMALIZED FREE ENERGY PREDICTED BY IDOCK:   -2.95 KCAL/MOL
REMARK 922        TOTAL FREE ENERGY PREDICTED BY IDOCK:   -5.38 KCAL/MOL
REMARK 923 INTER-LIGAND FREE ENERGY PREDICTED BY IDOCK:   -4.24 KCAL/MOL
REMARK 924 INTRA-LIGAND FREE ENERGY PREDICTED BY IDOCK:   -1.13 KCAL/MOL
REMARK 927      BINDING AFFINITY PREDICTED BY RF-SCORE:    0.00 PKD
ROOT
HETATM    1  C   UNL     1      -8.012   6.733  66.488  1.00  0.00    -0.105 C  
HETATM    2  C   UNL     1      -8.618   7.810  65.575  1.00  0.00    -0.126 C  
HETATM    3  C   UNL     1      -9.595   8.710  66.338  1.00  0.00    -0.247 C  
HETATM    4  C   UNL     1      -6.669   4.564  66.425  1.00  0.00    -0.050 A  
HETATM    5  C   UNL     1     -10.645   7.804  67.002  1.00  0.00    -0.326 C  
HETATM    6  C   UNL     1      -5.727   2.312  67.815  1.00  0.00    -0.019 A  
HETATM    7  N   UNL     1     -10.035   6.865  67.959  1.00  0.00    -0.149 NA 
HETATM    8  O   UNL     1      -5.137   4.077  64.667  1.00  0.00    -0.008 OA 
HETATM    9  C   UNL     1      -9.085   5.949  67.288  1.00  0.00    -0.111 C  
HETATM   10  C   UNL     1      -6.745   3.095  68.357  1.00  0.00    -0.044 A  
HETATM   11  C   UNL     1      -5.185   2.638  66.576  1.00  0.00    -0.008 A  
HETATM   12  C   UNL     1      -7.237   4.212  67.661  1.00  0.00    -0.067 A  
HETATM   13  C   UNL     1      -5.657   3.754  65.890  1.00  0.00    -0.018 A  
HETATM   14  H   UNL     1      -5.458   4.838  64.199  1.00  0.00     0.000 HD 
HETATM   15  C   UNL     1      -7.173   5.756  65.648  1.00  0.00    -0.075 C  
HETATM   16  C   UNL     1      -8.337   5.037  68.290  1.00  0.00    -0.095 C  
ENDROOT
BRANCH   3  17
HETATM   17  N   UNL     1      -8.837   9.567  67.322  1.00  0.00    -0.128 N  
HETATM   18  H   UNL     1      -8.447   9.199  68.191  1.00  0.00     0.000 HD 
BRANCH  17  19
HETATM   19  S   UNL     1      -8.688  11.180  66.865  1.00  0.00    -0.157 S  
HETATM   20  O   UNL     1      -9.109  11.368  65.503  1.00  0.00    -0.205 OA 
HETATM   21  O   UNL     1      -7.378  11.583  67.319  1.00  0.00    -0.114 OA 
BRANCH  19  22
HETATM   22  N   UNL     1      -9.865  11.873  67.892  1.00  0.00    -0.185 N  
BRANCH  22  23
HETATM   23  C   UNL     1     -10.232  11.000  69.052  1.00  0.00    -0.200 C  
HETATM   24  C   UNL     1     -11.730  10.772  69.200  1.00  0.00    -0.368 C  
ENDBRANCH  22  23
BRANCH  22  25
HETATM   25  C   UNL     1     -11.008  12.479  67.153  1.00  0.00    -0.263 C  
HETATM   26  C   UNL     1     -10.904  13.990  67.021  1.00  0.00    -0.291 C  
ENDBRANCH  22  25
ENDBRANCH  19  22
ENDBRANCH  17  19
ENDBRANCH   3  17
BRANCH   7  27
HETATM   27  C   UNL     1     -11.059   6.230  68.799  1.00  0.00    -0.346 C  
BRANCH  27  28
HETATM   28  C   UNL     1     -11.022   6.605  70.286  1.00  0.00    -0.355 C  
HETATM   29  C   UNL     1      -9.953   7.649  70.570  1.00  0.00    -0.184 C  
ENDBRANCH  27  28
ENDBRANCH   7  27
TORSDOF 7
ENDMDL
MODEL      154
REMARK 921   NORMALIZED FREE ENERGY PREDICTED BY IDOCK:   -2.90 KCAL/MOL
REMARK 922        TOTAL FREE ENERGY PREDICTED BY IDOCK:   -5.30 KCAL/MOL
REMARK 923 INTER-LIGAND FREE ENERGY PREDICTED BY IDOCK:   -4.46 KCAL/MOL
REMARK 924 INTRA-LIGAND FREE ENERGY PREDICTED BY IDOCK:   -0.84 KCAL/MOL
REMARK 927      BINDING AFFINITY PREDICTED BY RF-SCORE:    0.00 PKD
ROOT
HETATM    1  C   UNL     1      -9.514   8.486  69.521  1.00  0.00    -0.165 C  
HETATM    2  C   UNL     1     -10.785   8.189  70.332  1.00  0.00    -0.234 C  
HETATM    3  C   UNL     1     -10.898   6.700  70.677  1.00  0.00    -0.253 C  
HETATM    4  C   UNL     1      -8.404  10.301  68.112  1.00  0.00    -0.118 A  
HETATM    5  C   UNL     1     -10.806   5.906  69.363  1.00  0.00    -0.352 C  
HETATM    6  C   UNL     1      -6.347  10.999  66.330  1.00  0.00    -0.133 A  
HETATM    7  N   UNL     1      -9.522   6.128  68.675  1.00  0.00    -0.124 NA 
HETATM    8  O   UNL     1      -8.843  12.616  68.458  1.00  0.00    -0.318 OA 
HETATM    9  C   UNL     1      -9.349   7.549  68.296  1.00  0.00    -0.141 C  
HETATM   10  C   UNL     1      -6.639   9.658  66.573  1.00  0.00    -0.071 A  
HETATM   11  C   UNL     1      -7.086  11.995  66.960  1.00  0.00    -0.091 A  
HETATM   12  C   UNL     1      -7.678   9.297  67.446  1.00  0.00    -0.095 A  
HETATM   13  C   UNL     1      -8.106  11.644  67.841  1.00  0.00    -0.138 A  
HETATM   14  H   UNL     1      -9.538  12.376  69.059  1.00  0.00     0.000 HD 
HETATM   15  C   UNL     1      -9.529   9.951  69.055  1.00  0.00    -0.185 C  
HETATM   16  C   UNL     1      -7.956   7.830  67.685  1.00  0.00    -0.124 C  
ENDROOT
BRANCH   3  17
HETATM   17  N   UNL     1      -9.830   6.327  71.677  1.00  0.00    -0.165 N  
HETATM   18  H   UNL     1      -8.847   6.221  71.424  1.00  0.00     0.000 HD 
BRANCH  17  19
HETATM   19  S   UNL     1     -10.399   6.101  73.244  1.00  0.00    -0.243 S  
HETATM   20  O   UNL     1     -11.162   4.885  73.343  1.00  0.00    -0.318 OA 
HETATM   21  O   UNL     1     -10.948   7.377  73.636  1.00  0.00    -0.306 OA 
BRANCH  19  22
HETATM   22  N   UNL     1      -8.911   5.869  74.052  1.00  0.00    -0.122 N  
BRANCH  22  23
HETATM   23  C   UNL     1      -7.758   6.556  73.388  1.00  0.00    -0.092 C  
HETATM   24  C   UNL     1      -7.378   7.882  74.034  1.00  0.00    -0.185 C  
ENDBRANCH  22  23
BRANCH  22  25
HETATM   25  C   UNL     1      -8.674   4.453  74.455  1.00  0.00    -0.097 C  
HETATM   26  C   UNL     1      -7.735   3.712  73.519  1.00  0.00    -0.070 C  
ENDBRANCH  22  25
ENDBRANCH  19  22
ENDBRANCH  17  19
ENDBRANCH   3  17
BRANCH   7  27
HETATM   27  C   UNL     1      -9.324   5.145  67.602  1.00  0.00    -0.122 C  
BRANCH  27  28
HETATM   28  C   UNL     1      -8.195   4.131  67.832  1.00  0.00    -0.093 C  
HETATM   29  C   UNL     1      -8.448   2.835  67.077  1.00  0.00    -0.105 C  
ENDBRANCH  27  28
ENDBRANCH   7  27
TORSDOF 7
ENDMDL
MODEL      155
REMARK 921   NORMALIZED FREE ENERGY PREDICTED BY IDOCK:   -2.83 KCAL/MOL
REMARK 922        TOTAL FREE ENERGY PREDICTED BY IDOCK:   -5.21 KCAL/MOL
REMARK 923 INTER-LIGAND FREE ENERGY PREDICTED BY IDOCK:   -6.73 KCAL/MOL
REMARK 924 INTRA-LIGAND FREE ENERGY PREDICTED BY IDOCK:    1.52 KCAL/MOL
REMARK 927      BINDING AFFINITY PREDICTED BY RF-SCORE:    0.00 PKD
ROOT
HETATM    1  C   UNL     1      -9.477  14.588  66.895  1.00  0.00    -0.263 C  
HETATM    2  C   UNL     1      -9.361  15.619  68.029  1.00  0.00    -0.193 C  
HETATM    3  C   UNL     1      -7.928  15.708  68.564  1.00  0.00    -0.138 C  
HETATM    4  C   UNL     1     -11.193  13.300  65.515  1.00  0.00    -0.307 A  
HETATM    5  C   UNL     1      -7.491  14.292  68.973  1.00  0.00    -0.102 C  
HETATM    6  C   UNL     1     -11.699  11.224  63.691  1.00  0.00     0.147 A  
HETATM    7  N   UNL     1      -7.504  13.362  67.830  1.00  0.00    -0.131 NA 
HETATM    8  O   UNL     1     -13.377  14.153  65.096  1.00  0.00    -0.684 OA 
HETATM    9  C   UNL     1      -8.865  13.213  67.268  1.00  0.00    -0.208 C  
HETATM   10  C   UNL     1     -10.479  11.286  64.362  1.00  0.00    -0.407 A  
HETATM   11  C   UNL     1     -12.675  12.184  63.936  1.00  0.00    -0.487 A  
HETATM   12  C   UNL     1     -10.223  12.308  65.291  1.00  0.00    -0.305 A  
HETATM   13  C   UNL     1     -12.421  13.210  64.843  1.00  0.00    -0.433 A  
HETATM   14  H   UNL     1     -13.203  14.853  65.714  1.00  0.00     0.000 HD 
HETATM   15  C   UNL     1     -10.954  14.412  66.507  1.00  0.00    -0.316 C  
HETATM   16  C   UNL     1      -8.883  12.340  65.990  1.00  0.00     0.146 C  
ENDROOT
BRANCH   3  17
HETATM   17  N   UNL     1      -7.033  16.332  67.521  1.00  0.00    -0.141 N  
HETATM   18  H   UNL     1      -6.107  15.967  67.295  1.00  0.00     0.000 HD 
BRANCH  17  19
HETATM   19  S   UNL     1      -7.691  17.683  66.762  1.00  0.00    -0.245 S  
HETATM   20  O   UNL     1      -9.037  17.423  66.328  1.00  0.00    -0.356 OA 
HETATM   21  O   UNL     1      -6.671  18.138  65.848  1.00  0.00    -0.246 OA 
BRANCH  19  22
HETATM   22  N   UNL     1      -7.753  18.751  68.095  1.00  0.00    -0.276 N  
BRANCH  22  23
HETATM   23  C   UNL     1      -6.603  18.591  69.041  1.00  0.00    -0.262 C  
HETATM   24  C   UNL     1      -6.202  19.881  69.744  1.00  0.00    -0.387 C  
ENDBRANCH  22  23
BRANCH  22  25
HETATM   25  C   UNL     1      -9.102  18.830  68.725  1.00  0.00    -0.293 C  
HETATM   26  C   UNL     1      -9.996  19.887  68.099  1.00  0.00    -0.551 C  
ENDBRANCH  22  25
ENDBRANCH  19  22
ENDBRANCH  17  19
ENDBRANCH   3  17
BRANCH   7  27
HETATM   27  C   UNL     1      -6.802  12.114  68.160  1.00  0.00    -0.075 C  
BRANCH  27  28
HETATM   28  C   UNL     1      -7.671  11.006  68.771  1.00  0.00    -0.135 C  
HETATM   29  C   UNL     1      -7.226   9.629  68.302  1.00  0.00    -0.079 C  
ENDBRANCH  27  28
ENDBRANCH   7  27
TORSDOF 7
ENDMDL
MODEL      156
REMARK 921   NORMALIZED FREE ENERGY PREDICTED BY IDOCK:   -2.82 KCAL/MOL
REMARK 922        TOTAL FREE ENERGY PREDICTED BY IDOCK:   -5.18 KCAL/MOL
REMARK 923 INTER-LIGAND FREE ENERGY PREDICTED BY IDOCK:   -5.10 KCAL/MOL
REMARK 924 INTRA-LIGAND FREE ENERGY PREDICTED BY IDOCK:   -0.09 KCAL/MOL
REMARK 927      BINDING AFFINITY PREDICTED BY RF-SCORE:    0.00 PKD
ROOT
HETATM    1  C   UNL     1      -9.080  12.422  67.376  1.00  0.00    -0.183 C  
HETATM    2  C   UNL     1      -8.336  13.704  66.971  1.00  0.00    -0.099 C  
HETATM    3  C   UNL     1      -9.247  14.664  66.200  1.00  0.00    -0.175 C  
HETATM    4  C   UNL     1      -8.688  10.066  68.275  1.00  0.00    -0.119 A  
HETATM    5  C   UNL     1      -9.838  13.893  65.008  1.00  0.00    -0.046 C  
HETATM    6  C   UNL     1      -9.745   7.515  68.793  1.00  0.00    -0.151 A  
HETATM    7  N   UNL     1     -10.642  12.739  65.444  1.00  0.00    -0.281 NA 
HETATM    8  O   UNL     1      -6.819   9.533  69.652  1.00  0.00    -0.055 OA 
HETATM    9  C   UNL     1      -9.822  11.757  66.187  1.00  0.00    -0.229 C  
HETATM   10  C   UNL     1     -10.424   8.398  67.955  1.00  0.00    -0.255 A  
HETATM   11  C   UNL     1      -8.534   7.892  69.363  1.00  0.00    -0.133 A  
HETATM   12  C   UNL     1      -9.895   9.669  67.673  1.00  0.00    -0.202 A  
HETATM   13  C   UNL     1      -8.013   9.157  69.101  1.00  0.00    -0.097 A  
HETATM   14  H   UNL     1      -6.464  10.395  69.473  1.00  0.00     0.000 HD 
HETATM   15  C   UNL     1      -8.089  11.423  67.995  1.00  0.00    -0.134 C  
HETATM   16  C   UNL     1     -10.669  10.597  66.764  1.00  0.00    -0.272 C  
ENDROOT
BRANCH   3  17
HETATM   17  N   UNL     1     -10.296  15.227  67.128  1.00  0.00    -0.261 N  
HETATM   18  H   UNL     1     -11.175  14.748  67.324  1.00  0.00     0.000 HD 
BRANCH  17  19
HETATM   19  S   UNL     1      -9.892  16.711  67.811  1.00  0.00    -0.257 S  
HETATM   20  O   UNL     1     -10.966  17.655  67.659  1.00  0.00    -0.296 OA 
HETATM   21  O   UNL     1      -8.558  16.995  67.339  1.00  0.00    -0.194 OA 
BRANCH  19  22
HETATM   22  N   UNL     1      -9.809  16.251  69.454  1.00  0.00    -0.244 N  
BRANCH  22  23
HETATM   23  C   UNL     1      -8.847  15.133  69.713  1.00  0.00     0.059 C  
HETATM   24  C   UNL     1      -7.386  15.564  69.696  1.00  0.00    -0.163 C  
ENDBRANCH  22  23
BRANCH  22  25
HETATM   25  C   UNL     1     -11.148  16.111  70.095  1.00  0.00    -0.371 C  
HETATM   26  C   UNL     1     -11.419  14.711  70.621  1.00  0.00    -0.256 C  
ENDBRANCH  22  25
ENDBRANCH  19  22
ENDBRANCH  17  19
ENDBRANCH   3  17
BRANCH   7  27
HETATM   27  C   UNL     1     -11.441  12.204  64.333  1.00  0.00    -0.350 C  
BRANCH  27  28
HETATM   28  C   UNL     1     -12.654  13.049  63.922  1.00  0.00    -0.290 C  
HETATM   29  C   UNL     1     -13.134  13.927  65.067  1.00  0.00    -0.042 C  
ENDBRANCH  27  28
ENDBRANCH   7  27
TORSDOF 7
ENDMDL
MODEL      157
REMARK 921   NORMALIZED FREE ENERGY PREDICTED BY IDOCK:   -2.76 KCAL/MOL
REMARK 922        TOTAL FREE ENERGY PREDICTED BY IDOCK:   -5.10 KCAL/MOL
REMARK 923 INTER-LIGAND FREE ENERGY PREDICTED BY IDOCK:   -4.12 KCAL/MOL
REMARK 924 INTRA-LIGAND FREE ENERGY PREDICTED BY IDOCK:   -0.98 KCAL/MOL
REMARK 927      BINDING AFFINITY PREDICTED BY RF-SCORE:    0.00 PKD
ROOT
HETATM    1  C   UNL     1      -8.260  10.308  68.573  1.00  0.00    -0.111 C  
HETATM    2  C   UNL     1      -8.383  11.835  68.451  1.00  0.00    -0.153 C  
HETATM    3  C   UNL     1      -8.784  12.256  67.034  1.00  0.00    -0.199 C  
HETATM    4  C   UNL     1      -7.381   8.477  70.118  1.00  0.00    -0.051 A  
HETATM    5  C   UNL     1      -7.769  11.641  66.057  1.00  0.00     0.358 C  
HETATM    6  C   UNL     1      -6.751   5.761  70.464  1.00  0.00    -0.048 A  
HETATM    7  N   UNL     1      -7.767  10.169  66.122  1.00  0.00    -0.108 NA 
HETATM    8  O   UNL     1      -7.229   8.777  72.476  1.00  0.00    -0.313 OA 
HETATM    9  C   UNL     1      -7.372   9.686  67.465  1.00  0.00    -0.090 C  
HETATM   10  C   UNL     1      -6.961   6.275  69.185  1.00  0.00    -0.068 A  
HETATM   11  C   UNL     1      -6.838   6.598  71.571  1.00  0.00    -0.066 A  
HETATM   12  C   UNL     1      -7.257   7.636  68.999  1.00  0.00    -0.080 A  
HETATM   13  C   UNL     1      -7.148   7.945  71.394  1.00  0.00    -0.060 A  
HETATM   14  H   UNL     1      -7.440   9.695  72.356  1.00  0.00     0.000 HD 
HETATM   15  C   UNL     1      -7.695   9.945  69.957  1.00  0.00    -0.188 C  
HETATM   16  C   UNL     1      -7.484   8.148  67.595  1.00  0.00    -0.094 C  
ENDROOT
BRANCH   3  17
HETATM   17  N   UNL     1     -10.208  11.835  66.762  1.00  0.00    -0.208 N  
HETATM   18  H   UNL     1     -10.510  10.860  66.781  1.00  0.00     0.000 HD 
BRANCH  17  19
HETATM   19  S   UNL     1     -11.255  13.109  66.424  1.00  0.00    -0.310 S  
HETATM   20  O   UNL     1     -11.096  14.171  67.381  1.00  0.00    -0.291 OA 
HETATM   21  O   UNL     1     -12.536  12.492  66.179  1.00  0.00    -0.522 OA 
BRANCH  19  22
HETATM   22  N   UNL     1     -10.597  13.625  64.934  1.00  0.00    -0.384 N  
BRANCH  22  23
HETATM   23  C   UNL     1     -10.552  15.115  64.786  1.00  0.00    -0.276 C  
HETATM   24  C   UNL     1     -11.621  15.673  63.858  1.00  0.00     0.319 C  
ENDBRANCH  22  23
BRANCH  22  25
HETATM   25  C   UNL     1     -11.132  12.876  63.762  1.00  0.00    -0.379 C  
HETATM   26  C   UNL     1     -10.182  11.808  63.246  1.00  0.00    -0.452 C  
ENDBRANCH  22  25
ENDBRANCH  19  22
ENDBRANCH  17  19
ENDBRANCH   3  17
BRANCH   7  27
HETATM   27  C   UNL     1      -7.032   9.593  64.987  1.00  0.00    -0.111 C  
BRANCH  27  28
HETATM   28  C   UNL     1      -7.897   8.946  63.898  1.00  0.00    -0.137 C  
HETATM   29  C   UNL     1      -7.217   9.006  62.538  1.00  0.00    -0.098 C  
ENDBRANCH  27  28
ENDBRANCH   7  27
TORSDOF 7
ENDMDL
MODEL      158
REMARK 921   NORMALIZED FREE ENERGY PREDICTED BY IDOCK:   -2.73 KCAL/MOL
REMARK 922        TOTAL FREE ENERGY PREDICTED BY IDOCK:   -5.06 KCAL/MOL
REMARK 923 INTER-LIGAND FREE ENERGY PREDICTED BY IDOCK:   -4.33 KCAL/MOL
REMARK 924 INTRA-LIGAND FREE ENERGY PREDICTED BY IDOCK:   -0.73 KCAL/MOL
REMARK 927      BINDING AFFINITY PREDICTED BY RF-SCORE:    0.00 PKD
ROOT
HETATM    1  C   UNL     1      -8.729   6.522  68.252  1.00  0.00    -0.117 C  
HETATM    2  C   UNL     1      -9.790   7.364  67.526  1.00  0.00    -0.203 C  
HETATM    3  C   UNL     1     -10.273   8.531  68.393  1.00  0.00    -0.203 C  
HETATM    4  C   UNL     1      -7.490   4.296  68.119  1.00  0.00    -0.068 A  
HETATM    5  C   UNL     1     -10.759   7.951  69.731  1.00  0.00    -0.233 C  
HETATM    6  C   UNL     1      -5.820   2.427  69.389  1.00  0.00    -0.023 A  
HETATM    7  N   UNL     1      -9.679   7.253  70.451  1.00  0.00    -0.173 NA 
HETATM    8  O   UNL     1      -7.086   3.196  66.045  1.00  0.00    -0.059 OA 
HETATM    9  C   UNL     1      -9.170   6.098  69.677  1.00  0.00    -0.143 C  
HETATM   10  C   UNL     1      -6.447   3.426  70.132  1.00  0.00    -0.032 A  
HETATM   11  C   UNL     1      -6.033   2.346  68.017  1.00  0.00    -0.024 A  
HETATM   12  C   UNL     1      -7.299   4.354  69.510  1.00  0.00    -0.051 A  
HETATM   13  C   UNL     1      -6.864   3.273  67.392  1.00  0.00    -0.046 A  
HETATM   14  H   UNL     1      -7.652   3.828  65.619  1.00  0.00     0.000 HD 
HETATM   15  C   UNL     1      -8.401   5.274  67.417  1.00  0.00    -0.106 C  
HETATM   16  C   UNL     1      -7.953   5.425  70.354  1.00  0.00    -0.100 C  
ENDROOT
BRANCH   3  17
HETATM   17  N   UNL     1      -9.165   9.544  68.546  1.00  0.00    -0.131 N  
HETATM   18  H   UNL     1      -8.184   9.280  68.643  1.00  0.00     0.000 HD 
BRANCH  17  19
HETATM   19  S   UNL     1      -9.684  11.145  68.544  1.00  0.00    -0.198 S  
HETATM   20  O   UNL     1      -8.565  12.048  68.550  1.00  0.00    -0.157 OA 
HETATM   21  O   UNL     1     -10.718  11.209  69.548  1.00  0.00    -0.222 OA 
BRANCH  19  22
HETATM   22  N   UNL     1     -10.412  11.202  66.998  1.00  0.00    -0.224 N  
BRANCH  22  23
HETATM   23  C   UNL     1      -9.498  11.712  65.927  1.00  0.00    -0.228 C  
HETATM   24  C   UNL     1      -9.652  10.992  64.595  1.00  0.00    -0.297 C  
ENDBRANCH  22  23
BRANCH  22  25
HETATM   25  C   UNL     1     -11.782  11.789  67.014  1.00  0.00    -0.167 C  
HETATM   26  C   UNL     1     -11.788  13.291  67.248  1.00  0.00    -0.421 C  
ENDBRANCH  22  25
ENDBRANCH  19  22
ENDBRANCH  17  19
ENDBRANCH   3  17
BRANCH   7  27
HETATM   27  C   UNL     1     -10.066   6.978  71.841  1.00  0.00    -0.182 C  
BRANCH  27  28
HETATM   28  C   UNL     1     -11.474   6.399  72.035  1.00  0.00    -0.350 C  
HETATM   29  C   UNL     1     -11.424   5.002  72.636  1.00  0.00    -0.167 C  
ENDBRANCH  27  28
ENDBRANCH   7  27
TORSDOF 7
ENDMDL
MODEL      159
REMARK 921   NORMALIZED FREE ENERGY PREDICTED BY IDOCK:   -2.64 KCAL/MOL
REMARK 922        TOTAL FREE ENERGY PREDICTED BY IDOCK:   -4.93 KCAL/MOL
REMARK 923 INTER-LIGAND FREE ENERGY PREDICTED BY IDOCK:   -4.26 KCAL/MOL
REMARK 924 INTRA-LIGAND FREE ENERGY PREDICTED BY IDOCK:   -0.68 KCAL/MOL
REMARK 927      BINDING AFFINITY PREDICTED BY RF-SCORE:    0.00 PKD
ROOT
HETATM    1  C   UNL     1     -10.278   6.053  72.026  1.00  0.00    -0.228 C  
HETATM    2  C   UNL     1     -10.929   7.032  73.015  1.00  0.00    -0.327 C  
HETATM    3  C   UNL     1     -11.095   8.426  72.399  1.00  0.00    -0.361 C  
HETATM    4  C   UNL     1      -9.187   3.749  71.900  1.00  0.00    -0.180 A  
HETATM    5  C   UNL     1      -9.716   8.884  71.898  1.00  0.00    -0.279 C  
HETATM    6  C   UNL     1      -7.692   1.909  70.393  1.00  0.00    -0.039 A  
HETATM    7  N   UNL     1      -9.179   7.981  70.866  1.00  0.00    -0.147 NA 
HETATM    8  O   UNL     1      -9.746   2.000  73.417  1.00  0.00    -0.081 OA 
HETATM    9  C   UNL     1      -8.977   6.613  71.394  1.00  0.00    -0.139 C  
HETATM   10  C   UNL     1      -7.756   3.245  70.004  1.00  0.00    -0.043 A  
HETATM   11  C   UNL     1      -8.357   1.487  71.539  1.00  0.00    -0.052 A  
HETATM   12  C   UNL     1      -8.485   4.178  70.760  1.00  0.00    -0.095 A  
HETATM   13  C   UNL     1      -9.095   2.404  72.285  1.00  0.00    -0.080 A  
HETATM   14  H   UNL     1     -10.249   2.625  73.925  1.00  0.00     0.000 HD 
HETATM   15  C   UNL     1      -9.978   4.723  72.739  1.00  0.00    -0.207 C  
HETATM   16  C   UNL     1      -8.533   5.617  70.296  1.00  0.00    -0.123 C  
ENDROOT
BRANCH   3  17
HETATM   17  N   UNL     1     -12.142   8.381  71.313  1.00  0.00    -0.291 N  
HETATM   18  H   UNL     1     -12.065   7.777  70.494  1.00  0.00     0.000 HD 
BRANCH  17  19
HETATM   19  S   UNL     1     -13.448   9.412  71.567  1.00  0.00    -0.332 S  
HETATM   20  O   UNL     1     -13.857   9.393  72.946  1.00  0.00    -0.274 OA 
HETATM   21  O   UNL     1     -14.372   9.124  70.496  1.00  0.00     0.342 OA 
BRANCH  19  22
HETATM   22  N   UNL     1     -12.688  10.910  71.252  1.00  0.00    -0.412 N  
BRANCH  22  23
HETATM   23  C   UNL     1     -13.195  12.028  72.110  1.00  0.00    -0.295 C  
HETATM   24  C   UNL     1     -13.549  13.288  71.331  1.00  0.00    -0.037 C  
ENDBRANCH  22  23
BRANCH  22  25
HETATM   25  C   UNL     1     -12.567  11.215  69.798  1.00  0.00    -0.063 C  
HETATM   26  C   UNL     1     -11.140  11.124  69.283  1.00  0.00    -0.318 C  
ENDBRANCH  22  25
ENDBRANCH  19  22
ENDBRANCH  17  19
ENDBRANCH   3  17
BRANCH   7  27
HETATM   27  C   UNL     1      -8.026   8.587  70.185  1.00  0.00    -0.105 C  
BRANCH  27  28
HETATM   28  C   UNL     1      -6.649   8.177  70.723  1.00  0.00    -0.037 C  
HETATM   29  C   UNL     1      -6.124   9.185  71.734  1.00  0.00    -0.055 C  
ENDBRANCH  27  28
ENDBRANCH   7  27
TORSDOF 7
ENDMDL
MODEL      160
REMARK 921   NORMALIZED FREE ENERGY PREDICTED BY IDOCK:   -2.53 KCAL/MOL
REMARK 922        TOTAL FREE ENERGY PREDICTED BY IDOCK:   -4.78 KCAL/MOL
REMARK 923 INTER-LIGAND FREE ENERGY PREDICTED BY IDOCK:   -3.93 KCAL/MOL
REMARK 924 INTRA-LIGAND FREE ENERGY PREDICTED BY IDOCK:   -0.85 KCAL/MOL
REMARK 927      BINDING AFFINITY PREDICTED BY RF-SCORE:    0.00 PKD
ROOT
HETATM    1  C   UNL     1      -6.617  10.918  69.348  1.00  0.00    -0.095 C  
HETATM    2  C   UNL     1      -6.151  12.298  68.859  1.00  0.00    -0.073 C  
HETATM    3  C   UNL     1      -6.716  12.624  67.472  1.00  0.00    -0.156 C  
HETATM    4  C   UNL     1      -6.158   9.158  71.138  1.00  0.00    -0.067 A  
HETATM    5  C   UNL     1      -6.331  11.473  66.528  1.00  0.00    -0.054 C  
HETATM    6  C   UNL     1      -6.590   6.540  72.060  1.00  0.00    -0.058 A  
HETATM    7  N   UNL     1      -6.896  10.187  66.970  1.00  0.00    -0.082 NA 
HETATM    8  O   UNL     1      -5.273   9.727  73.275  1.00  0.00    -0.236 OA 
HETATM    9  C   UNL     1      -6.382   9.798  68.302  1.00  0.00    -0.055 C  
HETATM   10  C   UNL     1      -6.913   6.883  70.749  1.00  0.00    -0.066 A  
HETATM   11  C   UNL     1      -6.038   7.491  72.911  1.00  0.00    -0.055 A  
HETATM   12  C   UNL     1      -6.683   8.184  70.271  1.00  0.00    -0.037 A  
HETATM   13  C   UNL     1      -5.823   8.788  72.448  1.00  0.00    -0.076 A  
HETATM   14  H   UNL     1      -5.127  10.611  72.959  1.00  0.00     0.000 HD 
HETATM   15  C   UNL     1      -5.894  10.565  70.659  1.00  0.00    -0.107 C  
HETATM   16  C   UNL     1      -7.056   8.514  68.843  1.00  0.00    -0.062 C  
ENDROOT
BRANCH   3  17
HETATM   17  N   UNL     1      -8.206  12.845  67.569  1.00  0.00    -0.172 N  
HETATM   18  H   UNL     1      -8.877  12.079  67.636  1.00  0.00     0.000 HD 
BRANCH  17  19
HETATM   19  S   UNL     1      -8.668  14.464  67.557  1.00  0.00    -0.210 S  
HETATM   20  O   UNL     1      -7.713  15.264  66.839  1.00  0.00    -0.199 OA 
HETATM   21  O   UNL     1      -9.038  14.762  68.919  1.00  0.00    -0.187 OA 
BRANCH  19  22
HETATM   22  N   UNL     1     -10.087  14.344  66.613  1.00  0.00    -0.267 N  
BRANCH  22  23
HETATM   23  C   UNL     1     -11.330  14.728  67.353  1.00  0.00    -0.351 C  
HETATM   24  C   UNL     1     -12.171  13.540  67.800  1.00  0.00    -0.194 C  
ENDBRANCH  22  23
BRANCH  22  25
HETATM   25  C   UNL     1     -10.168  13.079  65.828  1.00  0.00    -0.290 C  
HETATM   26  C   UNL     1     -10.522  13.301  64.366  1.00  0.00    -0.424 C  
ENDBRANCH  22  25
ENDBRANCH  19  22
ENDBRANCH  17  19
ENDBRANCH   3  17
BRANCH   7  27
HETATM   27  C   UNL     1      -6.784   9.172  65.913  1.00  0.00    -0.079 C  
BRANCH  27  28
HETATM   28  C   UNL     1      -6.942   9.690  64.478  1.00  0.00    -0.117 C  
HETATM   29  C   UNL     1      -8.113   9.022  63.771  1.00  0.00    -0.164 C  
ENDBRANCH  27  28
ENDBRANCH   7  27
TORSDOF 7
ENDMDL
MODEL      161
REMARK 921   NORMALIZED FREE ENERGY PREDICTED BY IDOCK:   -2.52 KCAL/MOL
REMARK 922        TOTAL FREE ENERGY PREDICTED BY IDOCK:   -4.77 KCAL/MOL
REMARK 923 INTER-LIGAND FREE ENERGY PREDICTED BY IDOCK:   -4.41 KCAL/MOL
REMARK 924 INTRA-LIGAND FREE ENERGY PREDICTED BY IDOCK:   -0.36 KCAL/MOL
REMARK 927      BINDING AFFINITY PREDICTED BY RF-SCORE:    0.00 PKD
ROOT
HETATM    1  C   UNL     1      -8.279  13.158  67.360  1.00  0.00    -0.187 C  
HETATM    2  C   UNL     1      -9.241  14.241  67.874  1.00  0.00    -0.194 C  
HETATM    3  C   UNL     1      -8.506  15.553  68.165  1.00  0.00    -0.147 C  
HETATM    4  C   UNL     1      -8.130  10.651  66.904  1.00  0.00    -0.124 A  
HETATM    5  C   UNL     1      -7.354  15.241  69.135  1.00  0.00    -0.172 C  
HETATM    6  C   UNL     1      -6.507   8.440  66.299  1.00  0.00    -0.054 A  
HETATM    7  N   UNL     1      -6.392  14.288  68.556  1.00  0.00    -0.086 NA 
HETATM    8  O   UNL     1     -10.048   9.349  66.355  1.00  0.00    -0.263 OA 
HETATM    9  C   UNL     1      -7.030  12.985  68.261  1.00  0.00    -0.101 C  
HETATM   10  C   UNL     1      -5.933   9.630  66.743  1.00  0.00    -0.059 A  
HETATM   11  C   UNL     1      -7.888   8.341  66.169  1.00  0.00    -0.098 A  
HETATM   12  C   UNL     1      -6.737  10.736  67.067  1.00  0.00    -0.090 A  
HETATM   13  C   UNL     1      -8.689   9.440  66.473  1.00  0.00    -0.134 A  
HETATM   14  H   UNL     1     -10.594  10.098  66.562  1.00  0.00     0.000 HD 
HETATM   15  C   UNL     1      -9.025  11.818  67.244  1.00  0.00    -0.172 C  
HETATM   16  C   UNL     1      -6.071  12.009  67.538  1.00  0.00    -0.114 C  
ENDROOT
BRANCH   3  17
HETATM   17  N   UNL     1      -8.045  16.176  66.870  1.00  0.00    -0.213 N  
HETATM   18  H   UNL     1      -7.747  15.624  66.065  1.00  0.00     0.000 HD 
BRANCH  17  19
HETATM   19  S   UNL     1      -8.065  17.859  66.865  1.00  0.00    -0.238 S  
HETATM   20  O   UNL     1      -7.721  18.373  65.566  1.00  0.00    -0.484 OA 
HETATM   21  O   UNL     1      -7.344  18.250  68.052  1.00  0.00    -0.228 OA 
BRANCH  19  22
HETATM   22  N   UNL     1      -9.734  18.121  67.122  1.00  0.00    -0.291 N  
BRANCH  22  23
HETATM   23  C   UNL     1     -10.436  18.707  65.936  1.00  0.00    -0.356 C  
HETATM   24  C   UNL     1     -10.729  20.195  66.069  1.00  0.00    -0.262 C  
ENDBRANCH  22  23
BRANCH  22  25
HETATM   25  C   UNL     1     -10.034  18.764  68.433  1.00  0.00    -0.392 C  
HETATM   26  C   UNL     1     -10.618  17.801  69.455  1.00  0.00     0.281 C  
ENDBRANCH  22  25
ENDBRANCH  19  22
ENDBRANCH  17  19
ENDBRANCH   3  17
BRANCH   7  27
HETATM   27  C   UNL     1      -5.158  14.237  69.352  1.00  0.00    -0.082 C  
BRANCH  27  28
HETATM   28  C   UNL     1      -5.310  13.685  70.775  1.00  0.00    -0.140 C  
HETATM   29  C   UNL     1      -5.452  14.805  71.795  1.00  0.00    -0.013 C  
ENDBRANCH  27  28
ENDBRANCH   7  27
TORSDOF 7
ENDMDL
MODEL      162
REMARK 921   NORMALIZED FREE ENERGY PREDICTED BY IDOCK:   -2.32 KCAL/MOL
REMARK 922        TOTAL FREE ENERGY PREDICTED BY IDOCK:   -4.49 KCAL/MOL
REMARK 923 INTER-LIGAND FREE ENERGY PREDICTED BY IDOCK:   -4.39 KCAL/MOL
REMARK 924 INTRA-LIGAND FREE ENERGY PREDICTED BY IDOCK:   -0.09 KCAL/MOL
REMARK 927      BINDING AFFINITY PREDICTED BY RF-SCORE:    0.00 PKD
ROOT
HETATM    1  C   UNL     1     -10.463   9.013  69.189  1.00  0.00    -0.239 C  
HETATM    2  C   UNL     1     -11.083  10.320  68.673  1.00  0.00    -0.290 C  
HETATM    3  C   UNL     1     -10.231  10.949  67.566  1.00  0.00    -0.190 C  
HETATM    4  C   UNL     1     -10.631   7.319  71.090  1.00  0.00    -0.236 A  
HETATM    5  C   UNL     1      -8.804  11.119  68.113  1.00  0.00    -0.148 C  
HETATM    6  C   UNL     1      -9.496   5.120  72.419  1.00  0.00    -0.166 A  
HETATM    7  N   UNL     1      -8.202   9.827  68.487  1.00  0.00    -0.104 NA 
HETATM    8  O   UNL     1     -12.669   6.930  72.261  1.00  0.00    -0.525 OA 
HETATM    9  C   UNL     1      -8.967   9.165  69.567  1.00  0.00    -0.151 C  
HETATM   10  C   UNL     1      -8.735   5.864  71.519  1.00  0.00    -0.132 A  
HETATM   11  C   UNL     1     -10.816   5.475  72.672  1.00  0.00    -0.305 A  
HETATM   12  C   UNL     1      -9.287   6.977  70.864  1.00  0.00    -0.157 A  
HETATM   13  C   UNL     1     -11.374   6.568  72.012  1.00  0.00    -0.285 A  
HETATM   14  H   UNL     1     -13.049   7.675  71.811  1.00  0.00     0.000 HD 
HETATM   15  C   UNL     1     -11.257   8.510  70.406  1.00  0.00    -0.224 C  
HETATM   16  C   UNL     1      -8.427   7.751  69.890  1.00  0.00    -0.132 C  
ENDROOT
BRANCH   3  17
HETATM   17  N   UNL     1     -10.298  10.094  66.324  1.00  0.00    -0.207 N  
HETATM   18  H   UNL     1     -10.840   9.231  66.275  1.00  0.00     0.000 HD 
BRANCH  17  19
HETATM   19  S   UNL     1      -9.402  10.685  65.027  1.00  0.00    -0.235 S  
HETATM   20  O   UNL     1      -8.885  11.996  65.316  1.00  0.00     0.262 OA 
HETATM   21  O   UNL     1     -10.211  10.427  63.860  1.00  0.00    -0.243 OA 
BRANCH  19  22
HETATM   22  N   UNL     1      -8.103   9.576  65.055  1.00  0.00    -0.119 N  
BRANCH  22  23
HETATM   23  C   UNL     1      -7.090   9.817  63.978  1.00  0.00    -0.123 C  
HETATM   24  C   UNL     1      -5.651   9.809  64.476  1.00  0.00    -0.080 C  
ENDBRANCH  22  23
BRANCH  22  25
HETATM   25  C   UNL     1      -8.540   8.161  65.225  1.00  0.00    -0.106 C  
HETATM   26  C   UNL     1      -7.634   7.164  64.521  1.00  0.00    -0.107 C  
ENDBRANCH  22  25
ENDBRANCH  19  22
ENDBRANCH  17  19
ENDBRANCH   3  17
BRANCH   7  27
HETATM   27  C   UNL     1      -6.756   9.966  68.711  1.00  0.00    -0.050 C  
BRANCH  27  28
HETATM   28  C   UNL     1      -6.047  11.008  67.836  1.00  0.00    -0.049 C  
HETATM   29  C   UNL     1      -5.826  12.311  68.590  1.00  0.00    -0.054 C  
ENDBRANCH  27  28
ENDBRANCH   7  27
TORSDOF 7
ENDMDL
MODEL      163
REMARK 921   NORMALIZED FREE ENERGY PREDICTED BY IDOCK:   -2.25 KCAL/MOL
REMARK 922        TOTAL FREE ENERGY PREDICTED BY IDOCK:   -4.38 KCAL/MOL
REMARK 923 INTER-LIGAND FREE ENERGY PREDICTED BY IDOCK:   -3.75 KCAL/MOL
REMARK 924 INTRA-LIGAND FREE ENERGY PREDICTED BY IDOCK:   -0.63 KCAL/MOL
REMARK 927      BINDING AFFINITY PREDICTED BY RF-SCORE:    0.00 PKD
ROOT
HETATM    1  C   UNL     1     -10.459   9.179  68.975  1.00  0.00    -0.238 C  
HETATM    2  C   UNL     1     -11.411   8.059  69.425  1.00  0.00     0.344 C  
HETATM    3  C   UNL     1     -10.676   6.723  69.575  1.00  0.00    -0.257 C  
HETATM    4  C   UNL     1     -10.445  11.564  68.069  1.00  0.00    -0.214 A  
HETATM    5  C   UNL     1      -9.964   6.428  68.245  1.00  0.00    -0.140 C  
HETATM    6  C   UNL     1      -8.970  13.656  66.911  1.00  0.00    -0.229 A  
HETATM    7  N   UNL     1      -8.975   7.467  67.909  1.00  0.00    -0.132 NA 
HETATM    8  O   UNL     1     -12.197  13.107  68.542  1.00  0.00    -0.248 OA 
HETATM    9  C   UNL     1      -9.616   8.789  67.733  1.00  0.00    -0.148 C  
HETATM   10  C   UNL     1      -8.452  12.363  66.935  1.00  0.00    -0.147 A  
HETATM   11  C   UNL     1     -10.228  13.910  67.448  1.00  0.00    -0.252 A  
HETATM   12  C   UNL     1      -9.189  11.305  67.493  1.00  0.00    -0.159 A  
HETATM   13  C   UNL     1     -10.956  12.869  68.019  1.00  0.00    -0.247 A  
HETATM   14  H   UNL     1     -12.693  12.398  68.931  1.00  0.00     0.000 HD 
HETATM   15  C   UNL     1     -11.267  10.453  68.676  1.00  0.00    -0.305 C  
HETATM   16  C   UNL     1      -8.584   9.919  67.504  1.00  0.00    -0.122 C  
ENDROOT
BRANCH   3  17
HETATM   17  N   UNL     1      -9.738   6.788  70.755  1.00  0.00    -0.179 N  
HETATM   18  H   UNL     1      -9.416   7.668  71.159  1.00  0.00     0.000 HD 
BRANCH  17  19
HETATM   19  S   UNL     1      -9.267   5.285  71.349  1.00  0.00    -0.148 S  
HETATM   20  O   UNL     1      -8.210   4.726  70.551  1.00  0.00    -0.087 OA 
HETATM   21  O   UNL     1     -10.498   4.571  71.590  1.00  0.00    -0.134 OA 
BRANCH  19  22
HETATM   22  N   UNL     1      -8.609   5.770  72.850  1.00  0.00    -0.122 N  
BRANCH  22  23
HETATM   23  C   UNL     1      -7.689   6.948  72.745  1.00  0.00    -0.093 C  
HETATM   24  C   UNL     1      -6.214   6.574  72.717  1.00  0.00    -0.054 C  
ENDBRANCH  22  23
BRANCH  22  25
HETATM   25  C   UNL     1      -8.108   4.630  73.670  1.00  0.00    -0.106 C  
HETATM   26  C   UNL     1      -9.209   3.906  74.426  1.00  0.00    -0.113 C  
ENDBRANCH  22  25
ENDBRANCH  19  22
ENDBRANCH  17  19
ENDBRANCH   3  17
BRANCH   7  27
HETATM   27  C   UNL     1      -8.097   7.025  66.817  1.00  0.00    -0.109 C  
BRANCH  27  28
HETATM   28  C   UNL     1      -6.747   6.437  67.248  1.00  0.00    -0.060 C  
HETATM   29  C   UNL     1      -6.714   4.927  67.068  1.00  0.00    -0.055 C  
ENDBRANCH  27  28
ENDBRANCH   7  27
TORSDOF 7
ENDMDL
MODEL      164
REMARK 921   NORMALIZED FREE ENERGY PREDICTED BY IDOCK:   -1.75 KCAL/MOL
REMARK 922        TOTAL FREE ENERGY PREDICTED BY IDOCK:   -3.69 KCAL/MOL
REMARK 923 INTER-LIGAND FREE ENERGY PREDICTED BY IDOCK:   -2.97 KCAL/MOL
REMARK 924 INTRA-LIGAND FREE ENERGY PREDICTED BY IDOCK:   -0.71 KCAL/MOL
REMARK 927      BINDING AFFINITY PREDICTED BY RF-SCORE:    0.00 PKD
ROOT
HETATM    1  C   UNL     1      -9.841   7.546  67.133  1.00  0.00    -0.263 C  
HETATM    2  C   UNL     1     -10.767   8.755  67.335  1.00  0.00    -0.216 C  
HETATM    3  C   UNL     1     -10.249   9.683  68.439  1.00  0.00    -0.188 C  
HETATM    4  C   UNL     1      -9.731   5.263  65.999  1.00  0.00    -0.159 A  
HETATM    5  C   UNL     1     -10.052   8.838  69.708  1.00  0.00    -0.196 C  
HETATM    6  C   UNL     1      -8.383   2.814  65.716  1.00  0.00    -0.093 A  
HETATM    7  N   UNL     1      -9.067   7.762  69.505  1.00  0.00    -0.146 NA 
HETATM    8  O   UNL     1     -10.968   4.770  64.024  1.00  0.00    -0.030 OA 
HETATM    9  C   UNL     1      -9.509   6.813  68.458  1.00  0.00    -0.131 C  
HETATM   10  C   UNL     1      -8.099   3.650  66.795  1.00  0.00    -0.095 A  
HETATM   11  C   UNL     1      -9.346   3.186  64.784  1.00  0.00    -0.148 A  
HETATM   12  C   UNL     1      -8.781   4.867  66.957  1.00  0.00    -0.103 A  
HETATM   13  C   UNL     1     -10.014   4.400  64.931  1.00  0.00    -0.124 A  
HETATM   14  H   UNL     1     -11.423   5.598  64.124  1.00  0.00     0.000 HD 
HETATM   15  C   UNL     1     -10.485   6.562  66.142  1.00  0.00     0.394 C  
HETATM   16  C   UNL     1      -8.436   5.745  68.138  1.00  0.00    -0.109 C  
ENDROOT
BRANCH   3  17
HETATM   17  N   UNL     1      -8.986  10.369  67.975  1.00  0.00    -0.128 N  
HETATM   18  H   UNL     1      -8.075  10.197  68.400  1.00  0.00     0.000 HD 
BRANCH  17  19
HETATM   19  S   UNL     1      -9.210  11.441  66.697  1.00  0.00    -0.186 S  
HETATM   20  O   UNL     1      -8.281  12.536  66.777  1.00  0.00    -0.116 OA 
HETATM   21  O   UNL     1     -10.636  11.657  66.629  1.00  0.00    -0.225 OA 
BRANCH  19  22
HETATM   22  N   UNL     1      -8.742  10.432  65.399  1.00  0.00    -0.173 N  
BRANCH  22  23
HETATM   23  C   UNL     1      -7.258  10.315  65.240  1.00  0.00    -0.134 C  
HETATM   24  C   UNL     1      -6.675   9.039  65.833  1.00  0.00    -0.072 C  
ENDBRANCH  22  23
BRANCH  22  25
HETATM   25  C   UNL     1      -9.508  10.690  64.146  1.00  0.00    -0.281 C  
HETATM   26  C   UNL     1      -8.796  11.635  63.192  1.00  0.00     0.213 C  
ENDBRANCH  22  25
ENDBRANCH  19  22
ENDBRANCH  17  19
ENDBRANCH   3  17
BRANCH   7  27
HETATM   27  C   UNL     1      -8.665   7.167  70.787  1.00  0.00    -0.147 C  
BRANCH  27  28
HETATM   28  C   UNL     1      -7.317   7.643  71.344  1.00  0.00    -0.074 C  
HETATM   29  C   UNL     1      -6.288   6.523  71.343  1.00  0.00    -0.042 C  
ENDBRANCH  27  28
ENDBRANCH   7  27
TORSDOF 7
ENDMDL
MODEL      165
REMARK 921   NORMALIZED FREE ENERGY PREDICTED BY IDOCK:   -1.73 KCAL/MOL
REMARK 922        TOTAL FREE ENERGY PREDICTED BY IDOCK:   -3.65 KCAL/MOL
REMARK 923 INTER-LIGAND FREE ENERGY PREDICTED BY IDOCK:   -2.84 KCAL/MOL
REMARK 924 INTRA-LIGAND FREE ENERGY PREDICTED BY IDOCK:   -0.81 KCAL/MOL
REMARK 927      BINDING AFFINITY PREDICTED BY RF-SCORE:    0.00 PKD
ROOT
HETATM    1  C   UNL     1      -6.220  12.307  70.297  1.00  0.00     0.015 C  
HETATM    2  C   UNL     1      -5.833  13.783  70.117  1.00  0.00    -0.142 C  
HETATM    3  C   UNL     1      -6.301  14.327  68.764  1.00  0.00    -0.087 C  
HETATM    4  C   UNL     1      -5.770  10.273  71.771  1.00  0.00     0.243 A  
HETATM    5  C   UNL     1      -5.739  13.406  67.669  1.00  0.00    -0.067 C  
HETATM    6  C   UNL     1      -6.057   7.504  72.150  1.00  0.00    -0.039 A  
HETATM    7  N   UNL     1      -6.229  12.024  67.809  1.00  0.00    -0.070 NA 
HETATM    8  O   UNL     1      -5.126  10.484  74.054  1.00  0.00    -0.330 OA 
HETATM    9  C   UNL     1      -5.801  11.425  69.092  1.00  0.00    -0.047 C  
HETATM   10  C   UNL     1      -6.293   8.069  70.898  1.00  0.00    -0.037 A  
HETATM   11  C   UNL     1      -5.663   8.312  73.212  1.00  0.00    -0.063 A  
HETATM   12  C   UNL     1      -6.134   9.449  70.692  1.00  0.00    -0.065 A  
HETATM   13  C   UNL     1      -5.520   9.684  73.018  1.00  0.00     0.103 A  
HETATM   14  H   UNL     1      -5.028  11.420  73.922  1.00  0.00     0.000 HD 
HETATM   15  C   UNL     1      -5.587  11.760  71.587  1.00  0.00     0.445 C  
HETATM   16  C   UNL     1      -6.408  10.019  69.318  1.00  0.00    -0.045 C  
ENDROOT
BRANCH   3  17
HETATM   17  N   UNL     1      -7.807  14.426  68.748  1.00  0.00    -0.139 N  
HETATM   18  H   UNL     1      -8.407  13.832  69.322  1.00  0.00     0.000 HD 
BRANCH  17  19
HETATM   19  S   UNL     1      -8.414  15.598  67.704  1.00  0.00    -0.163 S  
HETATM   20  O   UNL     1      -8.609  15.058  66.385  1.00  0.00    -0.222 OA 
HETATM   21  O   UNL     1      -7.601  16.768  67.934  1.00  0.00    -0.163 OA 
BRANCH  19  22
HETATM   22  N   UNL     1      -9.948  15.843  68.417  1.00  0.00    -0.219 N  
BRANCH  22  23
HETATM   23  C   UNL     1     -11.044  15.067  67.755  1.00  0.00    -0.310 C  
HETATM   24  C   UNL     1     -11.906  14.271  68.726  1.00  0.00    -0.377 C  
ENDBRANCH  22  23
BRANCH  22  25
HETATM   25  C   UNL     1     -10.247  17.277  68.693  1.00  0.00    -0.351 C  
HETATM   26  C   UNL     1     -10.779  18.023  67.480  1.00  0.00    -0.352 C  
ENDBRANCH  22  25
ENDBRANCH  19  22
ENDBRANCH  17  19
ENDBRANCH   3  17
BRANCH   7  27
HETATM   27  C   UNL     1      -5.940  11.239  66.601  1.00  0.00    -0.145 C  
BRANCH  27  28
HETATM   28  C   UNL     1      -7.165  10.690  65.858  1.00  0.00    -0.119 C  
HETATM   29  C   UNL     1      -7.167   9.169  65.835  1.00  0.00    -0.093 C  
ENDBRANCH  27  28
ENDBRANCH   7  27
TORSDOF 7
ENDMDL
MODEL      166
REMARK 921   NORMALIZED FREE ENERGY PREDICTED BY IDOCK:   -1.66 KCAL/MOL
REMARK 922        TOTAL FREE ENERGY PREDICTED BY IDOCK:   -3.55 KCAL/MOL
REMARK 923 INTER-LIGAND FREE ENERGY PREDICTED BY IDOCK:   -2.57 KCAL/MOL
REMARK 924 INTRA-LIGAND FREE ENERGY PREDICTED BY IDOCK:   -0.98 KCAL/MOL
REMARK 927      BINDING AFFINITY PREDICTED BY RF-SCORE:    0.00 PKD
ROOT
HETATM    1  C   UNL     1      -8.752   6.537  67.107  1.00  0.00    -0.111 C  
HETATM    2  C   UNL     1      -9.908   7.421  66.614  1.00  0.00    -0.263 C  
HETATM    3  C   UNL     1     -10.684   8.036  67.783  1.00  0.00    -0.104 C  
HETATM    4  C   UNL     1      -7.072   4.791  66.307  1.00  0.00    -0.075 A  
HETATM    5  C   UNL     1     -11.134   6.890  68.703  1.00  0.00    -0.086 C  
HETATM    6  C   UNL     1      -5.148   2.860  66.988  1.00  0.00    -0.008 A  
HETATM    7  N   UNL     1      -9.988   6.141  69.248  1.00  0.00    -0.151 NA 
HETATM    8  O   UNL     1      -6.299   4.716  64.056  1.00  0.00    -0.028 OA 
HETATM    9  C   UNL     1      -9.197   5.502  68.172  1.00  0.00    -0.109 C  
HETATM   10  C   UNL     1      -6.020   3.353  67.957  1.00  0.00    -0.027 A  
HETATM   11  C   UNL     1      -5.239   3.315  65.676  1.00  0.00    -0.009 A  
HETATM   12  C   UNL     1      -6.998   4.304  67.624  1.00  0.00    -0.059 A  
HETATM   13  C   UNL     1      -6.197   4.270  65.344  1.00  0.00    -0.027 A  
HETATM   14  H   UNL     1      -6.952   5.368  63.828  1.00  0.00     0.000 HD 
HETATM   15  C   UNL     1      -8.112   5.810  65.912  1.00  0.00    -0.113 C  
HETATM   16  C   UNL     1      -7.919   4.815  68.709  1.00  0.00    -0.079 C  
ENDROOT
BRANCH   3  17
HETATM   17  N   UNL     1      -9.823   9.061  68.481  1.00  0.00    -0.164 N  
HETATM   18  H   UNL     1      -9.152   8.816  69.210  1.00  0.00     0.000 HD 
BRANCH  17  19
HETATM   19  S   UNL     1     -10.064  10.642  67.956  1.00  0.00    -0.163 S  
HETATM   20  O   UNL     1     -10.043  11.559  69.063  1.00  0.00    -0.163 OA 
HETATM   21  O   UNL     1     -11.183  10.572  67.047  1.00  0.00    -0.238 OA 
BRANCH  19  22
HETATM   22  N   UNL     1      -8.631  10.858  67.051  1.00  0.00    -0.134 N  
BRANCH  22  23
HETATM   23  C   UNL     1      -7.563   9.860  67.377  1.00  0.00    -0.091 C  
HETATM   24  C   UNL     1      -6.607   9.584  66.224  1.00  0.00    -0.071 C  
ENDBRANCH  22  23
BRANCH  22  25
HETATM   25  C   UNL     1      -8.187  12.279  66.980  1.00  0.00    -0.155 C  
HETATM   26  C   UNL     1      -8.852  13.061  65.860  1.00  0.00     0.591 C  
ENDBRANCH  22  25
ENDBRANCH  19  22
ENDBRANCH  17  19
ENDBRANCH   3  17
BRANCH   7  27
HETATM   27  C   UNL     1     -10.410   5.262  70.348  1.00  0.00    -0.275 C  
BRANCH  27  28
HETATM   28  C   UNL     1     -10.667   5.958  71.690  1.00  0.00    -0.308 C  
HETATM   29  C   UNL     1      -9.433   5.925  72.580  1.00  0.00    -0.155 C  
ENDBRANCH  27  28
ENDBRANCH   7  27
TORSDOF 7
ENDMDL
MODEL      167
REMARK 921   NORMALIZED FREE ENERGY PREDICTED BY IDOCK:   -0.75 KCAL/MOL
REMARK 922        TOTAL FREE ENERGY PREDICTED BY IDOCK:   -2.27 KCAL/MOL
REMARK 923 INTER-LIGAND FREE ENERGY PREDICTED BY IDOCK:   -2.33 KCAL/MOL
REMARK 924 INTRA-LIGAND FREE ENERGY PREDICTED BY IDOCK:    0.06 KCAL/MOL
REMARK 927      BINDING AFFINITY PREDICTED BY RF-SCORE:    0.00 PKD
ROOT
HETATM    1  C   UNL     1      -6.262  12.340  70.325  1.00  0.00     0.015 C  
HETATM    2  C   UNL     1      -5.857  13.819  70.231  1.00  0.00    -0.152 C  
HETATM    3  C   UNL     1      -6.337  14.451  68.920  1.00  0.00    -0.091 C  
HETATM    4  C   UNL     1      -5.820  10.213  71.665  1.00  0.00     0.204 A  
HETATM    5  C   UNL     1      -5.803  13.592  67.762  1.00  0.00    -0.106 C  
HETATM    6  C   UNL     1      -6.140   7.431  71.878  1.00  0.00    -0.036 A  
HETATM    7  N   UNL     1      -6.310  12.210  67.825  1.00  0.00    -0.079 NA 
HETATM    8  O   UNL     1      -5.141  10.275  73.947  1.00  0.00    -0.308 OA 
HETATM    9  C   UNL     1      -5.872  11.528  69.063  1.00  0.00    -0.049 C  
HETATM   10  C   UNL     1      -6.386   8.074  70.666  1.00  0.00    -0.036 A  
HETATM   11  C   UNL     1      -5.720   8.166  72.981  1.00  0.00    -0.053 A  
HETATM   12  C   UNL     1      -6.210   9.462  70.543  1.00  0.00    -0.064 A  
HETATM   13  C   UNL     1      -5.560   9.545  72.870  1.00  0.00     0.098 A  
HETATM   14  H   UNL     1      -5.032  11.215  73.871  1.00  0.00     0.000 HD 
HETATM   15  C   UNL     1      -5.618  11.706  71.570  1.00  0.00     0.328 C  
HETATM   16  C   UNL     1      -6.495  10.119  69.211  1.00  0.00    -0.047 C  
ENDROOT
BRANCH   3  17
HETATM   17  N   UNL     1      -7.841  14.570  68.933  1.00  0.00    -0.143 N  
HETATM   18  H   UNL     1      -8.442  13.932  69.455  1.00  0.00     0.000 HD 
BRANCH  17  19
HETATM   19  S   UNL     1      -8.443  15.845  68.014  1.00  0.00    -0.164 S  
HETATM   20  O   UNL     1      -9.234  16.733  68.823  1.00  0.00    -0.250 OA 
HETATM   21  O   UNL     1      -8.971  15.234  66.818  1.00  0.00    -0.224 OA 
BRANCH  19  22
HETATM   22  N   UNL     1      -6.975  16.632  67.630  1.00  0.00    -0.131 N  
BRANCH  22  23
HETATM   23  C   UNL     1      -6.542  17.624  68.664  1.00  0.00    -0.209 C  
HETATM   24  C   UNL     1      -5.291  17.211  69.426  1.00  0.00    -0.165 C  
ENDBRANCH  22  23
BRANCH  22  25
HETATM   25  C   UNL     1      -6.911  17.102  66.216  1.00  0.00    -0.222 C  
HETATM   26  C   UNL     1      -7.580  18.449  66.001  1.00  0.00    -0.231 C  
ENDBRANCH  22  25
ENDBRANCH  19  22
ENDBRANCH  17  19
ENDBRANCH   3  17
BRANCH   7  27
HETATM   27  C   UNL     1      -6.049  11.497  66.567  1.00  0.00    -0.086 C  
BRANCH  27  28
HETATM   28  C   UNL     1      -7.288  10.961  65.839  1.00  0.00    -0.041 C  
HETATM   29  C   UNL     1      -7.241   9.447  65.699  1.00  0.00    -0.091 C  
ENDBRANCH  27  28
ENDBRANCH   7  27
TORSDOF 7
ENDMDL
MODEL      168
REMARK 921   NORMALIZED FREE ENERGY PREDICTED BY IDOCK:   -0.67 KCAL/MOL
REMARK 922        TOTAL FREE ENERGY PREDICTED BY IDOCK:   -2.16 KCAL/MOL
REMARK 923 INTER-LIGAND FREE ENERGY PREDICTED BY IDOCK:   -4.56 KCAL/MOL
REMARK 924 INTRA-LIGAND FREE ENERGY PREDICTED BY IDOCK:    2.41 KCAL/MOL
REMARK 927      BINDING AFFINITY PREDICTED BY RF-SCORE:    0.00 PKD
ROOT
HETATM    1  C   UNL     1      -8.960   5.916  71.861  1.00  0.00    -0.139 C  
HETATM    2  C   UNL     1      -9.091   6.649  73.206  1.00  0.00    -0.143 C  
HETATM    3  C   UNL     1      -8.647   8.111  73.094  1.00  0.00    -0.233 C  
HETATM    4  C   UNL     1      -8.991   3.582  70.831  1.00  0.00    -0.161 A  
HETATM    5  C   UNL     1      -7.221   8.126  72.521  1.00  0.00    -0.101 C  
HETATM    6  C   UNL     1      -8.494   1.970  68.584  1.00  0.00    -0.086 A  
HETATM    7  N   UNL     1      -7.161   7.519  71.180  1.00  0.00    -0.062 NA 
HETATM    8  O   UNL     1     -10.218   1.786  71.804  1.00  0.00    -0.155 OA 
HETATM    9  C   UNL     1      -7.564   6.095  71.212  1.00  0.00    -0.094 C  
HETATM   10  C   UNL     1      -7.978   3.264  68.648  1.00  0.00    -0.063 A  
HETATM   11  C   UNL     1      -9.245   1.470  69.642  1.00  0.00    -0.163 A  
HETATM   12  C   UNL     1      -8.204   4.071  69.775  1.00  0.00    -0.066 A  
HETATM   13  C   UNL     1      -9.487   2.272  70.755  1.00  0.00    -0.133 A  
HETATM   14  H   UNL     1     -10.383   2.333  72.562  1.00  0.00     0.000 HD 
HETATM   15  C   UNL     1      -9.253   4.419  72.059  1.00  0.00    -0.169 C  
HETATM   16  C   UNL     1      -7.630   5.470  69.798  1.00  0.00    -0.074 C  
ENDROOT
BRANCH   3  17
HETATM   17  N   UNL     1      -9.637   8.881  72.255  1.00  0.00    -0.195 N  
HETATM   18  H   UNL     1      -9.440   9.808  71.876  1.00  0.00     0.000 HD 
BRANCH  17  19
HETATM   19  S   UNL     1     -11.096   8.082  71.997  1.00  0.00    -0.318 S  
HETATM   20  O   UNL     1     -11.704   7.708  73.246  1.00  0.00    -0.142 OA 
HETATM   21  O   UNL     1     -10.819   7.110  70.966  1.00  0.00    -0.234 OA 
BRANCH  19  22
HETATM   22  N   UNL     1     -12.002   9.362  71.319  1.00  0.00    -0.328 N  
BRANCH  22  23
HETATM   23  C   UNL     1     -11.155  10.421  70.685  1.00  0.00    -0.204 C  
HETATM   24  C   UNL     1     -11.890  11.254  69.643  1.00  0.00    -0.430 C  
ENDBRANCH  22  23
BRANCH  22  25
HETATM   25  C   UNL     1     -13.089   9.853  72.213  1.00  0.00    -0.327 C  
HETATM   26  C   UNL     1     -14.301   8.938  72.244  1.00  0.00    -0.418 C  
ENDBRANCH  22  25
ENDBRANCH  19  22
ENDBRANCH  17  19
ENDBRANCH   3  17
BRANCH   7  27
HETATM   27  C   UNL     1      -5.879   7.813  70.526  1.00  0.00    -0.030 C  
BRANCH  27  28
HETATM   28  C   UNL     1      -5.947   8.059  69.014  1.00  0.00    -0.038 C  
HETATM   29  C   UNL     1      -6.777   9.292  68.687  1.00  0.00    -0.054 C  
ENDBRANCH  27  28
ENDBRANCH   7  27
TORSDOF 7
ENDMDL
MODEL      169
REMARK 921   NORMALIZED FREE ENERGY PREDICTED BY IDOCK:   -0.54 KCAL/MOL
REMARK 922        TOTAL FREE ENERGY PREDICTED BY IDOCK:   -1.98 KCAL/MOL
REMARK 923 INTER-LIGAND FREE ENERGY PREDICTED BY IDOCK:   -4.35 KCAL/MOL
REMARK 924 INTRA-LIGAND FREE ENERGY PREDICTED BY IDOCK:    2.37 KCAL/MOL
REMARK 927      BINDING AFFINITY PREDICTED BY RF-SCORE:    0.00 PKD
ROOT
HETATM    1  C   UNL     1      -9.995   9.958  68.371  1.00  0.00    -0.177 C  
HETATM    2  C   UNL     1     -10.800  11.081  69.044  1.00  0.00    -0.274 C  
HETATM    3  C   UNL     1     -10.302  12.465  68.616  1.00  0.00    -0.182 C  
HETATM    4  C   UNL     1      -9.569   7.445  68.480  1.00  0.00    -0.146 A  
HETATM    5  C   UNL     1      -8.793  12.531  68.906  1.00  0.00     0.320 C  
HETATM    6  C   UNL     1      -8.006   5.263  67.650  1.00  0.00    -0.100 A  
HETATM    7  N   UNL     1      -8.044  11.512  68.150  1.00  0.00    -0.138 NA 
HETATM    8  O   UNL     1     -11.206   5.918  69.294  1.00  0.00    -0.363 OA 
HETATM    9  C   UNL     1      -8.463  10.143  68.523  1.00  0.00    -0.121 C  
HETATM   10  C   UNL     1      -7.549   6.566  67.459  1.00  0.00    -0.105 A  
HETATM   11  C   UNL     1      -9.233   5.041  68.267  1.00  0.00    -0.147 A  
HETATM   12  C   UNL     1      -8.313   7.664  67.888  1.00  0.00    -0.123 A  
HETATM   13  C   UNL     1     -10.003   6.127  68.679  1.00  0.00    -0.148 A  
HETATM   14  H   UNL     1     -11.731   6.658  69.575  1.00  0.00     0.000 HD 
HETATM   15  C   UNL     1     -10.416   8.600  68.956  1.00  0.00    -0.216 C  
HETATM   16  C   UNL     1      -7.781   9.059  67.653  1.00  0.00    -0.097 C  
ENDROOT
BRANCH   3  17
HETATM   17  N   UNL     1     -10.643  12.703  67.165  1.00  0.00    -0.234 N  
HETATM   18  H   UNL     1     -11.228  12.066  66.622  1.00  0.00     0.000 HD 
BRANCH  17  19
HETATM   19  S   UNL     1      -9.977  14.106  66.518  1.00  0.00    -0.292 S  
HETATM   20  O   UNL     1      -8.571  13.938  66.266  1.00  0.00     0.200 OA 
HETATM   21  O   UNL     1     -10.478  15.179  67.342  1.00  0.00    -0.256 OA 
BRANCH  19  22
HETATM   22  N   UNL     1     -10.792  14.138  65.016  1.00  0.00    -0.373 N  
BRANCH  22  23
HETATM   23  C   UNL     1     -12.165  14.730  65.095  1.00  0.00    -0.202 C  
HETATM   24  C   UNL     1     -13.238  13.738  65.523  1.00  0.00    -0.008 C  
ENDBRANCH  22  23
BRANCH  22  25
HETATM   25  C   UNL     1     -10.683  12.858  64.260  1.00  0.00    -0.406 C  
HETATM   26  C   UNL     1     -11.936  12.520  63.468  1.00  0.00    -0.629 C  
ENDBRANCH  22  25
ENDBRANCH  19  22
ENDBRANCH  17  19
ENDBRANCH   3  17
BRANCH   7  27
HETATM   27  C   UNL     1      -6.600  11.780  68.195  1.00  0.00    -0.056 C  
BRANCH  27  28
HETATM   28  C   UNL     1      -5.697  10.631  67.728  1.00  0.00    -0.043 C  
HETATM   29  C   UNL     1      -5.139   9.847  68.907  1.00  0.00    -0.036 C  
ENDBRANCH  27  28
ENDBRANCH   7  27
TORSDOF 7
ENDMDL
MODEL      170
REMARK 921   NORMALIZED FREE ENERGY PREDICTED BY IDOCK:   -0.46 KCAL/MOL
REMARK 922        TOTAL FREE ENERGY PREDICTED BY IDOCK:   -1.87 KCAL/MOL
REMARK 923 INTER-LIGAND FREE ENERGY PREDICTED BY IDOCK:   -2.14 KCAL/MOL
REMARK 924 INTRA-LIGAND FREE ENERGY PREDICTED BY IDOCK:    0.27 KCAL/MOL
REMARK 927      BINDING AFFINITY PREDICTED BY RF-SCORE:    0.00 PKD
ROOT
HETATM    1  C   UNL     1     -10.281  16.536  67.566  1.00  0.00    -0.283 C  
HETATM    2  C   UNL     1      -9.854  17.916  68.091  1.00  0.00    -0.334 C  
HETATM    3  C   UNL     1      -9.505  17.867  69.582  1.00  0.00     0.688 C  
HETATM    4  C   UNL     1     -11.379  15.397  65.564  1.00  0.00    -0.164 A  
HETATM    5  C   UNL     1     -10.711  17.272  70.327  1.00  0.00     0.720 C  
HETATM    6  C   UNL     1     -12.527  13.068  64.492  1.00  0.00    -0.427 A  
HETATM    7  N   UNL     1     -11.014  15.902  69.875  1.00  0.00    -0.313 NA 
HETATM    8  O   UNL     1     -11.250  16.303  63.365  1.00  0.00    -0.424 OA 
HETATM    9  C   UNL     1     -11.376  15.873  68.441  1.00  0.00    -0.361 C  
HETATM   10  C   UNL     1     -12.332  13.184  65.868  1.00  0.00    -0.462 A  
HETATM   11  C   UNL     1     -12.167  14.113  63.649  1.00  0.00    -0.051 A  
HETATM   12  C   UNL     1     -11.777  14.352  66.416  1.00  0.00    -0.397 A  
HETATM   13  C   UNL     1     -11.600  15.267  64.186  1.00  0.00    -0.067 A  
HETATM   14  H   UNL     1     -10.863  17.090  63.731  1.00  0.00     0.000 HD 
HETATM   15  C   UNL     1     -10.782  16.667  66.118  1.00  0.00    -0.132 C  
HETATM   16  C   UNL     1     -11.577  14.432  67.913  1.00  0.00    -0.374 C  
ENDROOT
BRANCH   3  17
HETATM   17  N   UNL     1      -8.231  17.082  69.781  1.00  0.00     0.802 N  
HETATM   18  H   UNL     1      -8.164  16.287  70.419  1.00  0.00     0.000 HD 
BRANCH  17  19
HETATM   19  S   UNL     1      -6.931  17.627  68.863  1.00  0.00    -0.242 S  
HETATM   20  O   UNL     1      -5.902  18.175  69.705  1.00  0.00    -0.224 OA 
HETATM   21  O   UNL     1      -7.519  18.389  67.787  1.00  0.00    -0.224 OA 
BRANCH  19  22
HETATM   22  N   UNL     1      -6.379  16.133  68.243  1.00  0.00    -0.117 N  
BRANCH  22  23
HETATM   23  C   UNL     1      -6.869  15.844  66.858  1.00  0.00     0.022 C  
HETATM   24  C   UNL     1      -7.440  14.443  66.688  1.00  0.00     1.134 C  
ENDBRANCH  22  23
BRANCH  22  25
HETATM   25  C   UNL     1      -6.497  15.011  69.217  1.00  0.00    -0.124 C  
HETATM   26  C   UNL     1      -5.159  14.388  69.580  1.00  0.00    -0.091 C  
ENDBRANCH  22  25
ENDBRANCH  19  22
ENDBRANCH  17  19
ENDBRANCH   3  17
BRANCH   7  27
HETATM   27  C   UNL     1     -11.953  15.242  70.793  1.00  0.00    -0.339 C  
BRANCH  27  28
HETATM   28  C   UNL     1     -12.902  16.175  71.555  1.00  0.00     0.133 C  
HETATM   29  C   UNL     1     -12.408  16.438  72.969  1.00  0.00    -0.488 C  
ENDBRANCH  27  28
ENDBRANCH   7  27
TORSDOF 7
ENDMDL
MODEL      171
REMARK 921   NORMALIZED FREE ENERGY PREDICTED BY IDOCK:   -0.32 KCAL/MOL
REMARK 922        TOTAL FREE ENERGY PREDICTED BY IDOCK:   -1.67 KCAL/MOL
REMARK 923 INTER-LIGAND FREE ENERGY PREDICTED BY IDOCK:   -1.91 KCAL/MOL
REMARK 924 INTRA-LIGAND FREE ENERGY PREDICTED BY IDOCK:    0.24 KCAL/MOL
REMARK 927      BINDING AFFINITY PREDICTED BY RF-SCORE:    0.00 PKD
ROOT
HETATM    1  C   UNL     1      -9.049  10.080  69.751  1.00  0.00    -0.219 C  
HETATM    2  C   UNL     1      -9.708   9.278  70.884  1.00  0.00    -0.346 C  
HETATM    3  C   UNL     1     -11.077   8.734  70.466  1.00  0.00    -0.246 C  
HETATM    4  C   UNL     1      -7.126  11.689  69.279  1.00  0.00    -0.055 A  
HETATM    5  C   UNL     1     -11.924   9.920  69.978  1.00  0.00    -0.009 C  
HETATM    6  C   UNL     1      -5.914  13.481  67.485  1.00  0.00    -0.023 A  
HETATM    7  N   UNL     1     -11.315  10.588  68.815  1.00  0.00    -0.260 NA 
HETATM    8  O   UNL     1      -5.125  11.683  70.570  1.00  0.00    -0.081 OA 
HETATM    9  C   UNL     1      -9.989  11.156  69.149  1.00  0.00    -0.082 C  
HETATM   10  C   UNL     1      -7.228  13.064  67.279  1.00  0.00    -0.060 A  
HETATM   11  C   UNL     1      -5.205  13.021  68.590  1.00  0.00    -0.067 A  
HETATM   12  C   UNL     1      -7.851  12.184  68.180  1.00  0.00    -0.147 A  
HETATM   13  C   UNL     1      -5.812  12.135  69.478  1.00  0.00    -0.096 A  
HETATM   14  H   UNL     1      -5.538  11.079  71.176  1.00  0.00     0.000 HD 
HETATM   15  C   UNL     1      -7.762  10.745  70.269  1.00  0.00     0.858 C  
HETATM   16  C   UNL     1      -9.275  11.753  67.913  1.00  0.00    -0.181 C  
ENDROOT
BRANCH   3  17
HETATM   17  N   UNL     1     -10.900   7.656  69.424  1.00  0.00    -0.381 N  
HETATM   18  H   UNL     1     -10.505   7.838  68.501  1.00  0.00     0.000 HD 
BRANCH  17  19
HETATM   19  S   UNL     1     -11.409   6.128  69.914  1.00  0.00    -0.275 S  
HETATM   20  O   UNL     1     -11.447   5.219  68.801  1.00  0.00     1.093 OA 
HETATM   21  O   UNL     1     -12.566   6.363  70.744  1.00  0.00    -0.012 OA 
BRANCH  19  22
HETATM   22  N   UNL     1     -10.090   5.700  70.914  1.00  0.00    -0.193 N  
BRANCH  22  23
HETATM   23  C   UNL     1      -8.795   5.576  70.173  1.00  0.00    -0.136 C  
HETATM   24  C   UNL     1      -7.752   6.607  70.581  1.00  0.00    -0.104 C  
ENDBRANCH  22  23
BRANCH  22  25
HETATM   25  C   UNL     1     -10.403   4.590  71.858  1.00  0.00    -0.128 C  
HETATM   26  C   UNL     1      -9.860   4.822  73.259  1.00  0.00    -0.171 C  
ENDBRANCH  22  25
ENDBRANCH  19  22
ENDBRANCH  17  19
ENDBRANCH   3  17
BRANCH   7  27
HETATM   27  C   UNL     1     -12.268  11.507  68.178  1.00  0.00     0.291 C  
BRANCH  27  28
HETATM   28  C   UNL     1     -11.646  12.687  67.420  1.00  0.00    -0.421 C  
HETATM   29  C   UNL     1     -12.119  12.733  65.975  1.00  0.00    -0.458 C  
ENDBRANCH  27  28
ENDBRANCH   7  27
TORSDOF 7
ENDMDL
MODEL      172
REMARK 921   NORMALIZED FREE ENERGY PREDICTED BY IDOCK:    0.03 KCAL/MOL
REMARK 922        TOTAL FREE ENERGY PREDICTED BY IDOCK:   -1.17 KCAL/MOL
REMARK 923 INTER-LIGAND FREE ENERGY PREDICTED BY IDOCK:   -2.27 KCAL/MOL
REMARK 924 INTRA-LIGAND FREE ENERGY PREDICTED BY IDOCK:    1.10 KCAL/MOL
REMARK 927      BINDING AFFINITY PREDICTED BY RF-SCORE:    0.00 PKD
ROOT
HETATM    1  C   UNL     1     -10.872   8.277  70.762  1.00  0.00    -0.252 C  
HETATM    2  C   UNL     1     -11.053   9.787  70.543  1.00  0.00    -0.384 C  
HETATM    3  C   UNL     1      -9.871  10.390  69.777  1.00  0.00    -0.091 C  
HETATM    4  C   UNL     1     -11.812   6.309  72.088  1.00  0.00    -0.365 A  
HETATM    5  C   UNL     1      -8.585  10.029  70.538  1.00  0.00     0.437 C  
HETATM    6  C   UNL     1     -11.513   3.639  72.908  1.00  0.00     0.218 A  
HETATM    7  N   UNL     1      -8.389   8.571  70.623  1.00  0.00    -0.122 NA 
HETATM    8  O   UNL     1     -14.077   6.244  72.819  1.00  0.00    -0.305 OA 
HETATM    9  C   UNL     1      -9.490   7.918  71.367  1.00  0.00    -0.150 C  
HETATM   10  C   UNL     1     -10.434   4.328  72.357  1.00  0.00    -0.196 A  
HETATM   11  C   UNL     1     -12.737   4.279  73.066  1.00  0.00     1.101 A  
HETATM   12  C   UNL     1     -10.566   5.669  71.962  1.00  0.00    -0.283 A  
HETATM   13  C   UNL     1     -12.880   5.604  72.660  1.00  0.00     0.691 A  
HETATM   14  H   UNL     1     -14.175   7.147  72.542  1.00  0.00     0.000 HD 
HETATM   15  C   UNL     1     -11.991   7.750  71.676  1.00  0.00    -0.330 C  
HETATM   16  C   UNL     1      -9.371   6.375  71.362  1.00  0.00    -0.157 C  
ENDROOT
BRANCH   3  17
HETATM   17  N   UNL     1      -9.882   9.893  68.351  1.00  0.00    -0.148 N  
HETATM   18  H   UNL     1      -9.746   8.912  68.106  1.00  0.00     0.000 HD 
BRANCH  17  19
HETATM   19  S   UNL     1     -10.138  11.095  67.201  1.00  0.00    -0.196 S  
HETATM   20  O   UNL     1      -9.375  12.274  67.512  1.00  0.00    -0.174 OA 
HETATM   21  O   UNL     1     -11.568  11.143  67.014  1.00  0.00    -0.463 OA 
BRANCH  19  22
HETATM   22  N   UNL     1      -9.429  10.339  65.842  1.00  0.00    -0.178 N  
BRANCH  22  23
HETATM   23  C   UNL     1     -10.247  10.467  64.595  1.00  0.00    -0.235 C  
HETATM   24  C   UNL     1      -9.467  10.189  63.317  1.00  0.00    -0.302 C  
ENDBRANCH  22  23
BRANCH  22  25
HETATM   25  C   UNL     1      -8.905   8.975  66.134  1.00  0.00    -0.164 C  
HETATM   26  C   UNL     1      -8.488   8.212  64.887  1.00  0.00    -0.094 C  
ENDBRANCH  22  25
ENDBRANCH  19  22
ENDBRANCH  17  19
ENDBRANCH   3  17
BRANCH   7  27
HETATM   27  C   UNL     1      -7.027   8.249  71.072  1.00  0.00    -0.054 C  
BRANCH  27  28
HETATM   28  C   UNL     1      -6.651   6.762  71.035  1.00  0.00    -0.053 C  
HETATM   29  C   UNL     1      -5.213   6.563  70.581  1.00  0.00    -0.018 C  
ENDBRANCH  27  28
ENDBRANCH   7  27
TORSDOF 7
ENDMDL
MODEL      173
REMARK 921   NORMALIZED FREE ENERGY PREDICTED BY IDOCK:    1.75 KCAL/MOL
REMARK 922        TOTAL FREE ENERGY PREDICTED BY IDOCK:    1.25 KCAL/MOL
REMARK 923 INTER-LIGAND FREE ENERGY PREDICTED BY IDOCK:   -0.63 KCAL/MOL
REMARK 924 INTRA-LIGAND FREE ENERGY PREDICTED BY IDOCK:    1.88 KCAL/MOL
REMARK 927      BINDING AFFINITY PREDICTED BY RF-SCORE:    0.00 PKD
ROOT
HETATM    1  C   UNL     1     -10.703   7.313  71.591  1.00  0.00    -0.239 C  
HETATM    2  C   UNL     1     -11.104   8.775  71.841  1.00  0.00    -0.434 C  
HETATM    3  C   UNL     1     -10.203   9.745  71.070  1.00  0.00    -0.043 C  
HETATM    4  C   UNL     1     -11.086   4.944  72.461  1.00  0.00    -0.169 A  
HETATM    5  C   UNL     1      -8.746   9.433  71.449  1.00  0.00     0.339 C  
HETATM    6  C   UNL     1     -10.301   2.247  72.429  1.00  0.00    -0.197 A  
HETATM    7  N   UNL     1      -8.366   8.057  71.085  1.00  0.00    -0.109 NA 
HETATM    8  O   UNL     1     -13.107   4.308  73.548  1.00  0.00     0.388 OA 
HETATM    9  C   UNL     1      -9.188   7.059  71.805  1.00  0.00    -0.141 C  
HETATM   10  C   UNL     1      -9.461   3.228  71.905  1.00  0.00    -0.210 A  
HETATM   11  C   UNL     1     -11.525   2.606  72.983  1.00  0.00     0.099 A  
HETATM   12  C   UNL     1      -9.834   4.582  71.933  1.00  0.00    -0.246 A  
HETATM   13  C   UNL     1     -11.909   3.945  72.999  1.00  0.00     0.405 A  
HETATM   14  H   UNL     1     -13.368   5.221  73.559  1.00  0.00     0.000 HD 
HETATM   15  C   UNL     1     -11.520   6.389  72.510  1.00  0.00    -0.283 C  
HETATM   16  C   UNL     1      -8.895   5.611  71.346  1.00  0.00    -0.141 C  
ENDROOT
BRANCH   3  17
HETATM   17  N   UNL     1     -10.475   9.626  69.590  1.00  0.00    -0.214 N  
HETATM   18  H   UNL     1      -9.851   9.134  68.950  1.00  0.00     0.000 HD 
BRANCH  17  19
HETATM   19  S   UNL     1     -11.895  10.374  69.085  1.00  0.00     0.039 S  
HETATM   20  O   UNL     1     -13.006   9.975  69.907  1.00  0.00     0.187 OA 
HETATM   21  O   UNL     1     -11.916  10.218  67.650  1.00  0.00     0.234 OA 
BRANCH  19  22
HETATM   22  N   UNL     1     -11.506  11.996  69.457  1.00  0.00    -0.291 N  
BRANCH  22  23
HETATM   23  C   UNL     1     -10.077  12.346  69.177  1.00  0.00     0.303 C  
HETATM   24  C   UNL     1      -9.746  13.813  69.414  1.00  0.00     0.579 C  
ENDBRANCH  22  23
BRANCH  22  25
HETATM   25  C   UNL     1     -12.032  12.440  70.780  1.00  0.00     0.010 C  
HETATM   26  C   UNL     1     -12.117  13.951  70.916  1.00  0.00    -0.391 C  
ENDBRANCH  22  25
ENDBRANCH  19  22
ENDBRANCH  17  19
ENDBRANCH   3  17
BRANCH   7  27
HETATM   27  C   UNL     1      -6.911   7.874  71.166  1.00  0.00    -0.045 C  
BRANCH  27  28
HETATM   28  C   UNL     1      -6.409   6.442  70.937  1.00  0.00    -0.047 C  
HETATM   29  C   UNL     1      -5.131   6.426  70.112  1.00  0.00    -0.014 C  
ENDBRANCH  27  28
ENDBRANCH   7  27
TORSDOF 7
ENDMDL
MODEL      174
REMARK 921   NORMALIZED FREE ENERGY PREDICTED BY IDOCK:    3.53 KCAL/MOL
REMARK 922        TOTAL FREE ENERGY PREDICTED BY IDOCK:    3.75 KCAL/MOL
REMARK 923 INTER-LIGAND FREE ENERGY PREDICTED BY IDOCK:   -4.53 KCAL/MOL
REMARK 924 INTRA-LIGAND FREE ENERGY PREDICTED BY IDOCK:    8.28 KCAL/MOL
REMARK 927      BINDING AFFINITY PREDICTED BY RF-SCORE:    0.00 PKD
ROOT
HETATM    1  C   UNL     1      -8.893  14.445  67.085  1.00  0.00    -0.244 C  
HETATM    2  C   UNL     1      -8.170  15.096  65.895  1.00  0.00     1.481 C  
HETATM    3  C   UNL     1      -7.847  16.568  66.170  1.00  0.00    -0.099 C  
HETATM    4  C   UNL     1     -10.209  12.361  67.743  1.00  0.00    -0.212 A  
HETATM    5  C   UNL     1      -9.159  17.273  66.553  1.00  0.00    -0.265 C  
HETATM    6  C   UNL     1     -11.845  11.085  69.638  1.00  0.00    -0.414 A  
HETATM    7  N   UNL     1      -9.759  16.693  67.768  1.00  0.00    -0.237 NA 
HETATM    8  O   UNL     1      -9.871  10.260  66.673  1.00  0.00    -0.188 OA 
HETATM    9  C   UNL     1     -10.113  15.270  67.571  1.00  0.00    -0.232 C  
HETATM   10  C   UNL     1     -11.635  12.461  69.707  1.00  0.00    -0.302 A  
HETATM   11  C   UNL     1     -11.256  10.343  68.620  1.00  0.00    -0.305 A  
HETATM   12  C   UNL     1     -10.835  13.113  68.753  1.00  0.00    -0.278 A  
HETATM   13  C   UNL     1     -10.448  10.981  67.681  1.00  0.00    -0.204 A  
HETATM   14  H   UNL     1      -9.319  10.695  66.033  1.00  0.00     0.000 HD 
HETATM   15  C   UNL     1      -9.345  13.026  66.700  1.00  0.00    -0.242 C  
HETATM   16  C   UNL     1     -10.628  14.606  68.871  1.00  0.00    -0.253 C  
ENDROOT
BRANCH   3  17
HETATM   17  N   UNL     1      -6.782  16.665  67.236  1.00  0.00    -0.160 N  
HETATM   18  H   UNL     1      -5.855  16.253  67.131  1.00  0.00     0.000 HD 
BRANCH  17  19
HETATM   19  S   UNL     1      -7.255  17.512  68.612  1.00  0.00    -0.253 S  
HETATM   20  O   UNL     1      -7.093  16.706  69.792  1.00  0.00    -0.050 OA 
HETATM   21  O   UNL     1      -8.522  18.114  68.270  1.00  0.00    -0.270 OA 
BRANCH  19  22
HETATM   22  N   UNL     1      -6.053  18.727  68.621  1.00  0.00    -0.214 N  
BRANCH  22  23
HETATM   23  C   UNL     1      -6.447  19.951  69.388  1.00  0.00    -0.347 C  
HETATM   24  C   UNL     1      -5.303  20.930  69.612  1.00  0.00    -0.410 C  
ENDBRANCH  22  23
BRANCH  22  25
HETATM   25  C   UNL     1      -5.452  18.971  67.279  1.00  0.00    -0.157 C  
HETATM   26  C   UNL     1      -5.965  20.237  66.612  1.00  0.00    -0.204 C  
ENDBRANCH  22  25
ENDBRANCH  19  22
ENDBRANCH  17  19
ENDBRANCH   3  17
BRANCH   7  27
HETATM   27  C   UNL     1     -10.826  17.558  68.290  1.00  0.00    -0.220 C  
BRANCH  27  28
HETATM   28  C   UNL     1     -10.364  18.703  69.201  1.00  0.00     0.068 C  
HETATM   29  C   UNL     1     -10.529  20.055  68.523  1.00  0.00    -0.315 C  
ENDBRANCH  27  28
ENDBRANCH   7  27
TORSDOF 7
ENDMDL
MODEL      175
REMARK 921   NORMALIZED FREE ENERGY PREDICTED BY IDOCK:    4.37 KCAL/MOL
REMARK 922        TOTAL FREE ENERGY PREDICTED BY IDOCK:    4.94 KCAL/MOL
REMARK 923 INTER-LIGAND FREE ENERGY PREDICTED BY IDOCK:    3.76 KCAL/MOL
REMARK 924 INTRA-LIGAND FREE ENERGY PREDICTED BY IDOCK:    1.18 KCAL/MOL
REMARK 927      BINDING AFFINITY PREDICTED BY RF-SCORE:    0.00 PKD
ROOT
HETATM    1  C   UNL     1      -7.354  15.734  68.497  1.00  0.00    -0.124 C  
HETATM    2  C   UNL     1      -7.568  16.531  67.201  1.00  0.00    -0.214 C  
HETATM    3  C   UNL     1      -8.279  15.692  66.134  1.00  0.00     0.286 C  
HETATM    4  C   UNL     1      -6.086  15.794  70.711  1.00  0.00     0.313 A  
HETATM    5  C   UNL     1      -7.467  14.402  65.935  1.00  0.00     4.622 C  
HETATM    6  C   UNL     1      -5.276  14.418  73.022  1.00  0.00    -0.282 A  
HETATM    7  N   UNL     1      -7.385  13.608  67.174  1.00  0.00     0.020 NA 
HETATM    8  O   UNL     1      -5.452  17.841  71.750  1.00  0.00    -0.120 OA 
HETATM    9  C   UNL     1      -6.694  14.352  68.250  1.00  0.00    -0.114 C  
HETATM   10  C   UNL     1      -5.775  13.715  71.926  1.00  0.00     0.001 A  
HETATM   11  C   UNL     1      -5.165  15.803  72.966  1.00  0.00     1.357 A  
HETATM   12  C   UNL     1      -6.165  14.391  70.758  1.00  0.00    -0.116 A  
HETATM   13  C   UNL     1      -5.565  16.480  71.816  1.00  0.00     0.777 A  
HETATM   14  H   UNL     1      -5.725  18.303  70.966  1.00  0.00     0.000 HD 
HETATM   15  C   UNL     1      -6.493  16.554  69.472  1.00  0.00    -0.223 C  
HETATM   16  C   UNL     1      -6.707  13.589  69.597  1.00  0.00     0.039 C  
ENDROOT
BRANCH   3  17
HETATM   17  N   UNL     1      -9.707  15.442  66.552  1.00  0.00    -0.256 N  
HETATM   18  H   UNL     1     -10.089  15.766  67.441  1.00  0.00     0.000 HD 
BRANCH  17  19
HETATM   19  S   UNL     1     -10.617  14.583  65.427  1.00  0.00    -0.398 S  
HETATM   20  O   UNL     1      -9.766  13.927  64.471  1.00  0.00    -0.007 OA 
HETATM   21  O   UNL     1     -11.666  15.486  65.018  1.00  0.00    -0.185 OA 
BRANCH  19  22
HETATM   22  N   UNL     1     -11.286  13.393  66.456  1.00  0.00    -0.301 N  
BRANCH  22  23
HETATM   23  C   UNL     1     -10.858  13.531  67.884  1.00  0.00    -0.247 C  
HETATM   24  C   UNL     1     -11.030  14.937  68.443  1.00  0.00    -0.266 C  
ENDBRANCH  22  23
BRANCH  22  25
HETATM   25  C   UNL     1     -11.211  12.015  65.890  1.00  0.00    -0.337 C  
HETATM   26  C   UNL     1     -10.909  10.953  66.934  1.00  0.00    -0.307 C  
ENDBRANCH  22  25
ENDBRANCH  19  22
ENDBRANCH  17  19
ENDBRANCH   3  17
BRANCH   7  27
HETATM   27  C   UNL     1      -6.882  12.255  66.899  1.00  0.00     0.063 C  
BRANCH  27  28
HETATM   28  C   UNL     1      -7.711  11.107  67.490  1.00  0.00    -0.116 C  
HETATM   29  C   UNL     1      -7.603   9.848  66.643  1.00  0.00    -0.103 C  
ENDBRANCH  27  28
ENDBRANCH   7  27
TORSDOF 7
ENDMDL
MODEL      176
REMARK 921   NORMALIZED FREE ENERGY PREDICTED BY IDOCK:    7.72 KCAL/MOL
REMARK 922        TOTAL FREE ENERGY PREDICTED BY IDOCK:    9.66 KCAL/MOL
REMARK 923 INTER-LIGAND FREE ENERGY PREDICTED BY IDOCK:   -1.09 KCAL/MOL
REMARK 924 INTRA-LIGAND FREE ENERGY PREDICTED BY IDOCK:   10.75 KCAL/MOL
REMARK 927      BINDING AFFINITY PREDICTED BY RF-SCORE:    0.00 PKD
ROOT
HETATM    1  C   UNL     1      -9.764  11.276  67.644  1.00  0.00    -0.183 C  
HETATM    2  C   UNL     1     -11.166  11.327  68.271  1.00  0.00    -0.331 C  
HETATM    3  C   UNL     1     -11.631  12.770  68.493  1.00  0.00    -0.321 C  
HETATM    4  C   UNL     1      -7.838   9.677  67.149  1.00  0.00    -0.091 A  
HETATM    5  C   UNL     1     -10.557  13.485  69.329  1.00  0.00     0.069 C  
HETATM    6  C   UNL     1      -5.164   9.355  66.349  1.00  0.00    -0.043 A  
HETATM    7  N   UNL     1      -9.255  13.517  68.639  1.00  0.00    -0.089 NA 
HETATM    8  O   UNL     1      -8.187   7.347  66.799  1.00  0.00    -0.116 OA 
HETATM    9  C   UNL     1      -8.734  12.152  68.403  1.00  0.00    -0.141 C  
HETATM   10  C   UNL     1      -5.633  10.608  66.740  1.00  0.00    -0.060 A  
HETATM   11  C   UNL     1      -6.018   8.257  66.369  1.00  0.00    -0.041 A  
HETATM   12  C   UNL     1      -6.963  10.777  67.160  1.00  0.00    -0.091 A  
HETATM   13  C   UNL     1      -7.343   8.422  66.769  1.00  0.00    -0.083 A  
HETATM   14  H   UNL     1      -9.090   7.459  67.072  1.00  0.00     0.000 HD 
HETATM   15  C   UNL     1      -9.272   9.820  67.596  1.00  0.00    -0.143 C  
HETATM   16  C   UNL     1      -7.430  12.156  67.569  1.00  0.00    -0.148 C  
ENDROOT
BRANCH   3  17
HETATM   17  N   UNL     1     -11.892  13.431  67.162  1.00  0.00    -0.375 N  
HETATM   18  H   UNL     1     -12.771  13.324  66.654  1.00  0.00     0.000 HD 
BRANCH  17  19
HETATM   19  S   UNL     1     -10.612  14.360  66.587  1.00  0.00    -0.286 S  
HETATM   20  O   UNL     1      -9.353  13.710  66.839  1.00  0.00    -0.240 OA 
HETATM   21  O   UNL     1     -10.880  15.701  67.046  1.00  0.00    -0.318 OA 
BRANCH  19  22
HETATM   22  N   UNL     1     -10.934  14.276  64.911  1.00  0.00    -0.383 N  
BRANCH  22  23
HETATM   23  C   UNL     1     -12.325  14.698  64.549  1.00  0.00    -0.398 C  
HETATM   24  C   UNL     1     -12.797  14.170  63.202  1.00  0.00     1.586 C  
ENDBRANCH  22  23
BRANCH  22  25
HETATM   25  C   UNL     1     -10.460  13.010  64.282  1.00  0.00    -0.402 C  
HETATM   26  C   UNL     1      -9.038  12.641  64.674  1.00  0.00     1.096 C  
ENDBRANCH  22  25
ENDBRANCH  19  22
ENDBRANCH  17  19
ENDBRANCH   3  17
BRANCH   7  27
HETATM   27  C   UNL     1      -8.335  14.455  69.296  1.00  0.00     0.153 C  
BRANCH  27  28
HETATM   28  C   UNL     1      -8.995  15.520  70.182  1.00  0.00     0.556 C  
HETATM   29  C   UNL     1     -10.199  16.147  69.495  1.00  0.00    -0.261 C  
ENDBRANCH  27  28
ENDBRANCH   7  27
TORSDOF 7
ENDMDL
MODEL      177
REMARK 921   NORMALIZED FREE ENERGY PREDICTED BY IDOCK:   11.40 KCAL/MOL
REMARK 922        TOTAL FREE ENERGY PREDICTED BY IDOCK:   14.85 KCAL/MOL
REMARK 923 INTER-LIGAND FREE ENERGY PREDICTED BY IDOCK:   10.56 KCAL/MOL
REMARK 924 INTRA-LIGAND FREE ENERGY PREDICTED BY IDOCK:    4.29 KCAL/MOL
REMARK 927      BINDING AFFINITY PREDICTED BY RF-SCORE:    0.00 PKD
ROOT
HETATM    1  C   UNL     1      -9.160  10.072  69.327  1.00  0.00    -0.208 C  
HETATM    2  C   UNL     1     -10.589  10.523  68.986  1.00  0.00    -0.250 C  
HETATM    3  C   UNL     1     -10.592  11.855  68.228  1.00  0.00    -0.213 C  
HETATM    4  C   UNL     1      -7.866   8.400  70.757  1.00  0.00    -0.089 A  
HETATM    5  C   UNL     1      -9.809  12.875  69.070  1.00  0.00     0.304 C  
HETATM    6  C   UNL     1      -5.386   7.578  71.790  1.00  0.00    -0.035 A  
HETATM    7  N   UNL     1      -8.410  12.460  69.275  1.00  0.00     0.605 NA 
HETATM    8  O   UNL     1      -8.788   6.298  71.391  1.00  0.00    -0.138 OA 
HETATM    9  C   UNL     1      -8.327  11.183  70.017  1.00  0.00     1.448 C  
HETATM   10  C   UNL     1      -5.528   8.849  71.236  1.00  0.00    -0.040 A  
HETATM   11  C   UNL     1      -6.479   6.719  71.845  1.00  0.00    -0.049 A  
HETATM   12  C   UNL     1      -6.768   9.278  70.734  1.00  0.00    -0.094 A  
HETATM   13  C   UNL     1      -7.707   7.132  71.334  1.00  0.00    -0.093 A  
HETATM   14  H   UNL     1      -9.625   6.579  71.042  1.00  0.00     0.000 HD 
HETATM   15  C   UNL     1      -9.214   8.827  70.229  1.00  0.00    -0.191 C  
HETATM   16  C   UNL     1      -6.874  10.662  70.135  1.00  0.00    -0.119 C  
ENDROOT
BRANCH   3  17
HETATM   17  N   UNL     1     -10.020  11.655  66.845  1.00  0.00    -0.200 N  
HETATM   18  H   UNL     1     -10.222  10.832  66.276  1.00  0.00     0.000 HD 
BRANCH  17  19
HETATM   19  S   UNL     1      -9.020  12.904  66.322  1.00  0.00     0.191 S  
HETATM   20  O   UNL     1      -7.682  12.732  66.820  1.00  0.00     0.049 OA 
HETATM   21  O   UNL     1      -9.770  14.114  66.559  1.00  0.00    -0.275 OA 
BRANCH  19  22
HETATM   22  N   UNL     1      -9.016  12.577  64.645  1.00  0.00     1.037 N  
BRANCH  22  23
HETATM   23  C   UNL     1      -9.216  13.796  63.799  1.00  0.00     5.308 C  
HETATM   24  C   UNL     1     -10.612  13.907  63.201  1.00  0.00     3.661 C  
ENDBRANCH  22  23
BRANCH  22  25
HETATM   25  C   UNL     1      -9.841  11.391  64.274  1.00  0.00    -0.261 C  
HETATM   26  C   UNL     1     -11.023  11.737  63.383  1.00  0.00    -0.458 C  
ENDBRANCH  22  25
ENDBRANCH  19  22
ENDBRANCH  17  19
ENDBRANCH   3  17
BRANCH   7  27
HETATM   27  C   UNL     1      -7.605  13.569  69.805  1.00  0.00     0.900 C  
BRANCH  27  28
HETATM   28  C   UNL     1      -6.164  13.214  70.197  1.00  0.00    -0.039 C  
HETATM   29  C   UNL     1      -5.544  14.292  71.073  1.00  0.00    -0.190 C  
ENDBRANCH  27  28
ENDBRANCH   7  27
TORSDOF 7
ENDMDL
MODEL      178
REMARK 921   NORMALIZED FREE ENERGY PREDICTED BY IDOCK:   18.66 KCAL/MOL
REMARK 922        TOTAL FREE ENERGY PREDICTED BY IDOCK:   25.08 KCAL/MOL
REMARK 923 INTER-LIGAND FREE ENERGY PREDICTED BY IDOCK:   24.74 KCAL/MOL
REMARK 924 INTRA-LIGAND FREE ENERGY PREDICTED BY IDOCK:    0.34 KCAL/MOL
REMARK 927      BINDING AFFINITY PREDICTED BY RF-SCORE:    0.00 PKD
ROOT
HETATM    1  C   UNL     1      -8.293  12.041  69.414  1.00  0.00     0.866 C  
HETATM    2  C   UNL     1      -8.466  10.567  69.016  1.00  0.00    -0.159 C  
HETATM    3  C   UNL     1      -9.543  10.398  67.939  1.00  0.00    -0.142 C  
HETATM    4  C   UNL     1      -7.220  13.534  71.183  1.00  0.00     3.407 A  
HETATM    5  C   UNL     1     -10.834  11.051  68.460  1.00  0.00    -0.213 C  
HETATM    6  C   UNL     1      -6.997  16.098  72.310  1.00  0.00     6.341 A  
HETATM    7  N   UNL     1     -10.656  12.491  68.718  1.00  0.00    -0.208 NA 
HETATM    8  O   UNL     1      -5.262  12.880  72.373  1.00  0.00    -0.371 OA 
HETATM    9  C   UNL     1      -9.637  12.732  69.764  1.00  0.00     2.208 C  
HETATM   10  C   UNL     1      -8.053  15.800  71.450  1.00  0.00     4.884 A  
HETATM   11  C   UNL     1      -6.059  15.121  72.623  1.00  0.00     1.182 A  
HETATM   12  C   UNL     1      -8.185  14.515  70.897  1.00  0.00     2.865 A  
HETATM   13  C   UNL     1      -6.175  13.850  72.064  1.00  0.00     0.862 A  
HETATM   14  H   UNL     1      -5.342  12.014  71.991  1.00  0.00     0.000 HD 
HETATM   15  C   UNL     1      -7.330  12.143  70.609  1.00  0.00     3.453 C  
HETATM   16  C   UNL     1      -9.342  14.238  69.963  1.00  0.00     1.313 C  
ENDROOT
BRANCH   3  17
HETATM   17  N   UNL     1      -9.058  10.988  66.637  1.00  0.00    -0.162 N  
HETATM   18  H   UNL     1      -8.511  11.848  66.589  1.00  0.00     0.000 HD 
BRANCH  17  19
HETATM   19  S   UNL     1      -9.496  10.107  65.272  1.00  0.00    -0.271 S  
HETATM   20  O   UNL     1      -9.482  10.938  64.098  1.00  0.00    -0.224 OA 
HETATM   21  O   UNL     1     -10.669   9.362  65.662  1.00  0.00     0.536 OA 
BRANCH  19  22
HETATM   22  N   UNL     1      -8.166   9.037  65.189  1.00  0.00    -0.136 N  
BRANCH  22  23
HETATM   23  C   UNL     1      -6.931   9.664  64.618  1.00  0.00    -0.112 C  
HETATM   24  C   UNL     1      -5.868   9.985  65.659  1.00  0.00    -0.074 C  
ENDBRANCH  22  23
BRANCH  22  25
HETATM   25  C   UNL     1      -8.521   7.697  64.643  1.00  0.00     0.091 C  
HETATM   26  C   UNL     1      -7.598   7.240  63.524  1.00  0.00    -0.117 C  
ENDBRANCH  22  25
ENDBRANCH  19  22
ENDBRANCH  17  19
ENDBRANCH   3  17
BRANCH   7  27
HETATM   27  C   UNL     1     -11.953  13.153  68.915  1.00  0.00    -0.277 C  
BRANCH  27  28
HETATM   28  C   UNL     1     -11.924  14.422  69.778  1.00  0.00    -0.385 C  
HETATM   29  C   UNL     1     -13.011  14.396  70.842  1.00  0.00    -0.413 C  
ENDBRANCH  27  28
ENDBRANCH   7  27
TORSDOF 7
ENDMDL
MODEL      179
REMARK 921   NORMALIZED FREE ENERGY PREDICTED BY IDOCK:   22.52 KCAL/MOL
REMARK 922        TOTAL FREE ENERGY PREDICTED BY IDOCK:   30.53 KCAL/MOL
REMARK 923 INTER-LIGAND FREE ENERGY PREDICTED BY IDOCK:   30.24 KCAL/MOL
REMARK 924 INTRA-LIGAND FREE ENERGY PREDICTED BY IDOCK:    0.29 KCAL/MOL
REMARK 927      BINDING AFFINITY PREDICTED BY RF-SCORE:    0.00 PKD
ROOT
HETATM    1  C   UNL     1      -9.608  12.951  67.584  1.00  0.00    -0.196 C  
HETATM    2  C   UNL     1      -9.551  11.450  67.908  1.00  0.00    -0.180 C  
HETATM    3  C   UNL     1     -10.727  10.694  67.281  1.00  0.00    -0.285 C  
HETATM    4  C   UNL     1      -8.587  15.193  68.248  1.00  0.00    -0.164 A  
HETATM    5  C   UNL     1     -12.024  11.374  67.748  1.00  0.00     0.005 C  
HETATM    6  C   UNL     1      -8.696  17.995  68.083  1.00  0.00    -0.277 A  
HETATM    7  N   UNL     1     -12.092  12.781  67.315  1.00  0.00    -0.417 NA 
HETATM    8  O   UNL     1      -6.380  15.366  69.128  1.00  0.00    -0.107 OA 
HETATM    9  C   UNL     1     -10.990  13.581  67.896  1.00  0.00    -0.256 C  
HETATM   10  C   UNL     1      -9.793  17.226  67.697  1.00  0.00    -0.279 A  
HETATM   11  C   UNL     1      -7.549  17.374  68.565  1.00  0.00    -0.254 A  
HETATM   12  C   UNL     1      -9.757  15.825  67.794  1.00  0.00    -0.216 A  
HETATM   13  C   UNL     1      -7.501  15.984  68.648  1.00  0.00    -0.166 A  
HETATM   14  H   UNL     1      -6.347  14.418  69.185  1.00  0.00     0.000 HD 
HETATM   15  C   UNL     1      -8.511  13.690  68.368  1.00  0.00    -0.147 C  
HETATM   16  C   UNL     1     -10.967  15.031  67.357  1.00  0.00    -0.315 C  
ENDROOT
BRANCH   3  17
HETATM   17  N   UNL     1     -10.572  10.666  65.780  1.00  0.00    -0.152 N  
HETATM   18  H   UNL     1     -10.074  11.389  65.261  1.00  0.00     0.000 HD 
BRANCH  17  19
HETATM   19  S   UNL     1     -11.292   9.339  65.034  1.00  0.00     7.573 S  
HETATM   20  O   UNL     1     -12.026   9.743  63.866  1.00  0.00     6.884 OA 
HETATM   21  O   UNL     1     -11.913   8.595  66.103  1.00  0.00     5.457 OA 
BRANCH  19  22
HETATM   22  N   UNL     1      -9.888   8.507  64.526  1.00  0.00     1.906 N  
BRANCH  22  23
HETATM   23  C   UNL     1      -9.138   7.862  65.649  1.00  0.00     0.037 C  
HETATM   24  C   UNL     1      -9.976   6.891  66.470  1.00  0.00    -0.150 C  
ENDBRANCH  22  23
BRANCH  22  25
HETATM   25  C   UNL     1      -9.061   9.284  63.559  1.00  0.00     0.089 C  
HETATM   26  C   UNL     1      -7.580   9.284  63.900  1.00  0.00    -0.113 C  
ENDBRANCH  22  25
ENDBRANCH  19  22
ENDBRANCH  17  19
ENDBRANCH   3  17
BRANCH   7  27
HETATM   27  C   UNL     1     -13.447  13.322  67.495  1.00  0.00     5.867 C  
BRANCH  27  28
HETATM   28  C   UNL     1     -13.927  14.284  66.401  1.00  0.00     5.291 C  
HETATM   29  C   UNL     1     -13.522  13.799  65.016  1.00  0.00     0.800 C  
ENDBRANCH  27  28
ENDBRANCH   7  27
TORSDOF 7
ENDMDL
MODEL      180
REMARK 921   NORMALIZED FREE ENERGY PREDICTED BY IDOCK:   63.91 KCAL/MOL
REMARK 922        TOTAL FREE ENERGY PREDICTED BY IDOCK:   88.85 KCAL/MOL
REMARK 923 INTER-LIGAND FREE ENERGY PREDICTED BY IDOCK:   81.62 KCAL/MOL
REMARK 924 INTRA-LIGAND FREE ENERGY PREDICTED BY IDOCK:    7.23 KCAL/MOL
REMARK 927      BINDING AFFINITY PREDICTED BY RF-SCORE:    0.00 PKD
ROOT
HETATM    1  C   UNL     1      -8.281  12.214  70.292  1.00  0.00     3.998 C  
HETATM    2  C   UNL     1      -8.119  10.829  69.645  1.00  0.00     0.106 C  
HETATM    3  C   UNL     1      -8.930  10.715  68.350  1.00  0.00    -0.149 C  
HETATM    4  C   UNL     1      -7.833  13.488  72.457  1.00  0.00    10.314 A  
HETATM    5  C   UNL     1     -10.389  11.074  68.677  1.00  0.00    -0.193 C  
HETATM    6  C   UNL     1      -8.273  15.805  73.984  1.00  0.00    15.173 A  
HETATM    7  N   UNL     1     -10.515  12.451  69.184  1.00  0.00     0.005 NA 
HETATM    8  O   UNL     1      -6.048  12.904  73.922  1.00  0.00     0.749 OA 
HETATM    9  C   UNL     1      -9.766  12.634  70.448  1.00  0.00     4.941 C  
HETATM   10  C   UNL     1      -9.081  15.527  72.883  1.00  0.00     9.718 A  
HETATM   11  C   UNL     1      -7.255  14.926  74.337  1.00  0.00     5.677 A  
HETATM   12  C   UNL     1      -8.883  14.361  72.124  1.00  0.00     7.588 A  
HETATM   13  C   UNL     1      -7.042  13.777  73.578  1.00  0.00     4.631 A  
HETATM   14  H   UNL     1      -5.903  12.120  73.405  1.00  0.00     0.000 HD 
HETATM   15  C   UNL     1      -7.591  12.225  71.666  1.00  0.00     9.910 C  
HETATM   16  C   UNL     1      -9.779  14.103  70.934  1.00  0.00     3.654 C  
ENDROOT
BRANCH   3  17
HETATM   17  N   UNL     1      -8.320  11.597  67.288  1.00  0.00    -0.151 N  
HETATM   18  H   UNL     1      -7.314  11.741  67.198  1.00  0.00     0.000 HD 
BRANCH  17  19
HETATM   19  S   UNL     1      -9.441  12.323  66.264  1.00  0.00    -0.205 S  
HETATM   20  O   UNL     1      -8.966  12.332  64.906  1.00  0.00     0.510 OA 
HETATM   21  O   UNL     1      -9.839  13.536  66.938  1.00  0.00    -0.243 OA 
BRANCH  19  22
HETATM   22  N   UNL     1     -10.710  11.185  66.383  1.00  0.00    -0.262 N  
BRANCH  22  23
HETATM   23  C   UNL     1     -10.236   9.764  66.396  1.00  0.00    -0.217 C  
HETATM   24  C   UNL     1     -10.074   9.158  65.008  1.00  0.00     0.989 C  
ENDBRANCH  22  23
BRANCH  22  25
HETATM   25  C   UNL     1     -11.851  11.477  65.470  1.00  0.00     0.401 C  
HETATM   26  C   UNL     1     -12.129  10.359  64.478  1.00  0.00     4.648 C  
ENDBRANCH  22  25
ENDBRANCH  19  22
ENDBRANCH  17  19
ENDBRANCH   3  17
BRANCH   7  27
HETATM   27  C   UNL     1     -11.920  12.880  69.199  1.00  0.00    -0.259 C  
BRANCH  27  28
HETATM   28  C   UNL     1     -12.174  14.303  69.712  1.00  0.00    -0.390 C  
HETATM   29  C   UNL     1     -13.589  14.457  70.250  1.00  0.00     0.677 C  
ENDBRANCH  27  28
ENDBRANCH   7  27
TORSDOF 7
ENDMDL
