MODEL        1
REMARK 921   NORMALIZED FREE ENERGY PREDICTED BY IDOCK:   -6.51 KCAL/MOL
REMARK 922        TOTAL FREE ENERGY PREDICTED BY IDOCK:  -10.43 KCAL/MOL
REMARK 923 INTER-LIGAND FREE ENERGY PREDICTED BY IDOCK:   -9.56 KCAL/MOL
REMARK 924 INTRA-LIGAND FREE ENERGY PREDICTED BY IDOCK:   -0.87 KCAL/MOL
REMARK 927      BINDING AFFINITY PREDICTED BY RF-SCORE:    0.00 PKD
ROOT
HETATM    1  C   UNL     1     -14.337   7.831  71.684  1.00  0.00    -0.481 C  
HETATM    2  O   UNL     1     -13.925   9.122  72.115  1.00  0.00    -0.424 OA 
ENDROOT
BRANCH   2   3
HETATM    3  C   UNL     1     -13.116   9.780  71.142  1.00  0.00    -0.346 C  
BRANCH   3   4
HETATM    4  C   UNL     1     -11.646   9.529  71.457  1.00  0.00    -0.465 C  
BRANCH   4   5
HETATM    5  C   UNL     1     -10.830   9.262  70.192  1.00  0.00    -0.242 C  
BRANCH   5   6
HETATM    6  O   UNL     1     -10.254  10.498  69.742  1.00  0.00    -0.213 OA 
BRANCH   6   7
HETATM    7  C   UNL     1     -10.539  10.833  68.438  1.00  0.00    -0.197 A  
HETATM    8  C   UNL     1     -11.318  11.985  68.216  1.00  0.00    -0.342 A  
HETATM    9  C   UNL     1     -11.899  12.740  69.379  1.00  0.00    -0.359 C  
HETATM   10  C   UNL     1     -11.487  12.414  66.888  1.00  0.00    -0.360 A  
HETATM   11  C   UNL     1     -10.098  10.076  67.356  1.00  0.00    -0.256 A  
HETATM   12  N   UNL     1     -11.005  11.696  65.834  1.00  0.00    -0.294 NA 
HETATM   13  C   UNL     1     -10.363  10.538  66.086  1.00  0.00    -0.210 A  
BRANCH  10  14
HETATM   14  C   UNL     1     -12.105  13.748  66.514  1.00  0.00    -0.443 C  
BRANCH  14  15
HETATM   15  S   UNL     1     -11.206  14.545  65.162  1.00  0.00    -0.388 S  
HETATM   16  O   UNL     1     -12.092  14.922  64.010  1.00  0.00    -0.513 OA 
BRANCH  15  17
HETATM   17  C   UNL     1     -10.747  16.037  65.921  1.00  0.00    -0.280 A  
HETATM   18  N   UNL     1     -10.579  17.194  65.317  1.00  0.00    -0.662 NA 
HETATM   19  C   UNL     1     -10.333  18.096  66.327  1.00  0.00    -0.397 A  
HETATM   20  H   UNL     1     -10.622  17.381  64.315  1.00  0.00     0.000 HD 
HETATM   21  C   UNL     1     -10.085  19.476  66.257  1.00  0.00    -0.560 A  
HETATM   22  C   UNL     1      -9.927  20.194  67.451  1.00  0.00    -0.570 A  
HETATM   23  C   UNL     1     -10.012  19.552  68.689  1.00  0.00    -0.538 A  
HETATM   24  C   UNL     1     -10.231  18.172  68.779  1.00  0.00    -0.353 A  
HETATM   25  C   UNL     1     -10.374  17.478  67.573  1.00  0.00    -0.356 A  
HETATM   26  N   UNL     1     -10.580  16.154  67.279  1.00  0.00    -0.311 NA 
ENDBRANCH  15  17
ENDBRANCH  14  15
ENDBRANCH  10  14
ENDBRANCH   6   7
ENDBRANCH   5   6
ENDBRANCH   4   5
ENDBRANCH   3   4
ENDBRANCH   2   3
TORSDOF 8
ENDMDL
MODEL        2
REMARK 921   NORMALIZED FREE ENERGY PREDICTED BY IDOCK:   -6.39 KCAL/MOL
REMARK 922        TOTAL FREE ENERGY PREDICTED BY IDOCK:  -10.25 KCAL/MOL
REMARK 923 INTER-LIGAND FREE ENERGY PREDICTED BY IDOCK:   -9.20 KCAL/MOL
REMARK 924 INTRA-LIGAND FREE ENERGY PREDICTED BY IDOCK:   -1.05 KCAL/MOL
REMARK 927      BINDING AFFINITY PREDICTED BY RF-SCORE:    0.00 PKD
ROOT
HETATM    1  C   UNL     1      -7.737  19.463  68.079  1.00  0.00    -0.296 C  
HETATM    2  O   UNL     1      -8.870  19.151  68.879  1.00  0.00    -0.349 OA 
ENDROOT
BRANCH   2   3
HETATM    3  C   UNL     1     -10.096  19.405  68.196  1.00  0.00    -0.425 C  
BRANCH   3   4
HETATM    4  C   UNL     1     -10.581  18.118  67.538  1.00  0.00    -0.419 C  
BRANCH   4   5
HETATM    5  C   UNL     1     -10.487  18.188  66.014  1.00  0.00    -0.335 C  
BRANCH   5   6
HETATM    6  O   UNL     1      -9.674  17.099  65.549  1.00  0.00    -0.532 OA 
BRANCH   6   7
HETATM    7  C   UNL     1     -10.290  15.869  65.550  1.00  0.00    -0.400 A  
HETATM    8  C   UNL     1      -9.719  14.855  66.342  1.00  0.00    -0.306 A  
HETATM    9  C   UNL     1      -8.423  15.097  67.063  1.00  0.00    -0.259 C  
HETATM   10  C   UNL     1     -10.426  13.645  66.464  1.00  0.00    -0.281 A  
HETATM   11  C   UNL     1     -11.431  15.602  64.798  1.00  0.00    -0.284 A  
HETATM   12  N   UNL     1     -11.573  13.409  65.766  1.00  0.00    -0.322 NA 
HETATM   13  C   UNL     1     -12.023  14.366  64.929  1.00  0.00    -0.426 A  
BRANCH  10  14
HETATM   14  C   UNL     1     -10.052  12.556  67.451  1.00  0.00    -0.210 C  
BRANCH  14  15
HETATM   15  S   UNL     1     -11.515  11.796  68.194  1.00  0.00    -0.328 S  
HETATM   16  O   UNL     1     -11.245  10.433  68.763  1.00  0.00    -0.246 OA 
BRANCH  15  17
HETATM   17  C   UNL     1     -11.761  12.843  69.556  1.00  0.00    -0.323 A  
HETATM   18  N   UNL     1     -11.151  13.989  69.772  1.00  0.00    -0.452 NA 
HETATM   19  C   UNL     1     -11.745  14.507  70.901  1.00  0.00    -0.250 A  
HETATM   20  H   UNL     1     -10.400  14.405  69.221  1.00  0.00     0.000 HD 
HETATM   21  C   UNL     1     -11.489  15.709  71.579  1.00  0.00    -0.494 A  
HETATM   22  C   UNL     1     -12.286  16.044  72.682  1.00  0.00    -0.619 A  
HETATM   23  C   UNL     1     -13.315  15.200  73.105  1.00  0.00    -0.558 A  
HETATM   24  C   UNL     1     -13.568  13.983  72.459  1.00  0.00    -0.670 A  
HETATM   25  C   UNL     1     -12.752  13.668  71.369  1.00  0.00    -0.352 A  
HETATM   26  N   UNL     1     -12.698  12.586  70.526  1.00  0.00    -0.061 NA 
ENDBRANCH  15  17
ENDBRANCH  14  15
ENDBRANCH  10  14
ENDBRANCH   6   7
ENDBRANCH   5   6
ENDBRANCH   4   5
ENDBRANCH   3   4
ENDBRANCH   2   3
TORSDOF 8
ENDMDL
MODEL        3
REMARK 921   NORMALIZED FREE ENERGY PREDICTED BY IDOCK:   -6.39 KCAL/MOL
REMARK 922        TOTAL FREE ENERGY PREDICTED BY IDOCK:  -10.25 KCAL/MOL
REMARK 923 INTER-LIGAND FREE ENERGY PREDICTED BY IDOCK:   -9.27 KCAL/MOL
REMARK 924 INTRA-LIGAND FREE ENERGY PREDICTED BY IDOCK:   -0.98 KCAL/MOL
REMARK 927      BINDING AFFINITY PREDICTED BY RF-SCORE:    0.00 PKD
ROOT
HETATM    1  C   UNL     1     -12.157  14.496  64.466  1.00  0.00    -0.484 C  
HETATM    2  O   UNL     1     -12.492  13.697  63.338  1.00  0.00    -0.784 OA 
ENDROOT
BRANCH   2   3
HETATM    3  C   UNL     1     -12.015  12.360  63.466  1.00  0.00    -0.538 C  
BRANCH   3   4
HETATM    4  C   UNL     1     -11.096  12.268  64.678  1.00  0.00    -0.358 C  
BRANCH   4   5
HETATM    5  C   UNL     1     -10.225  11.012  64.638  1.00  0.00    -0.330 C  
BRANCH   5   6
HETATM    6  O   UNL     1      -9.372  11.001  65.794  1.00  0.00    -0.196 OA 
BRANCH   6   7
HETATM    7  C   UNL     1      -9.665  10.031  66.725  1.00  0.00    -0.189 A  
HETATM    8  C   UNL     1      -9.572  10.383  68.085  1.00  0.00    -0.155 A  
HETATM    9  C   UNL     1      -9.060  11.739  68.482  1.00  0.00    -0.144 C  
HETATM   10  C   UNL     1     -10.012   9.444  69.036  1.00  0.00    -0.177 A  
HETATM   11  C   UNL     1     -10.035   8.736  66.368  1.00  0.00    -0.346 A  
HETATM   12  N   UNL     1     -10.424   8.195  68.675  1.00  0.00    -0.195 NA 
HETATM   13  C   UNL     1     -10.390   7.860  67.370  1.00  0.00    -0.279 A  
BRANCH  10  14
HETATM   14  C   UNL     1     -10.179   9.764  70.509  1.00  0.00    -0.255 C  
BRANCH  14  15
HETATM   15  S   UNL     1     -11.886   9.518  71.056  1.00  0.00    -0.351 S  
HETATM   16  O   UNL     1     -11.982   8.949  72.442  1.00  0.00    -0.341 OA 
BRANCH  15  17
HETATM   17  C   UNL     1     -12.422  11.164  71.176  1.00  0.00    -0.393 A  
HETATM   18  N   UNL     1     -13.189  11.662  72.122  1.00  0.00    -0.545 NA 
HETATM   19  C   UNL     1     -13.251  13.013  71.863  1.00  0.00    -0.430 A  
HETATM   20  H   UNL     1     -13.642  11.156  72.883  1.00  0.00     0.000 HD 
HETATM   21  C   UNL     1     -13.928  14.029  72.555  1.00  0.00    -0.553 A  
HETATM   22  C   UNL     1     -13.778  15.354  72.124  1.00  0.00    -0.618 A  
HETATM   23  C   UNL     1     -12.972  15.663  71.025  1.00  0.00    -0.518 A  
HETATM   24  C   UNL     1     -12.310  14.660  70.305  1.00  0.00    -0.406 A  
HETATM   25  C   UNL     1     -12.486  13.346  70.750  1.00  0.00    -0.341 A  
HETATM   26  N   UNL     1     -12.018  12.139  70.297  1.00  0.00    -0.344 NA 
ENDBRANCH  15  17
ENDBRANCH  14  15
ENDBRANCH  10  14
ENDBRANCH   6   7
ENDBRANCH   5   6
ENDBRANCH   4   5
ENDBRANCH   3   4
ENDBRANCH   2   3
TORSDOF 8
ENDMDL
MODEL        4
REMARK 921   NORMALIZED FREE ENERGY PREDICTED BY IDOCK:   -6.37 KCAL/MOL
REMARK 922        TOTAL FREE ENERGY PREDICTED BY IDOCK:  -10.22 KCAL/MOL
REMARK 923 INTER-LIGAND FREE ENERGY PREDICTED BY IDOCK:   -9.51 KCAL/MOL
REMARK 924 INTRA-LIGAND FREE ENERGY PREDICTED BY IDOCK:   -0.71 KCAL/MOL
REMARK 927      BINDING AFFINITY PREDICTED BY RF-SCORE:    0.00 PKD
ROOT
HETATM    1  C   UNL     1     -12.461   7.572  71.460  1.00  0.00    -0.346 C  
HETATM    2  O   UNL     1     -11.894   6.335  71.046  1.00  0.00    -0.305 OA 
ENDROOT
BRANCH   2   3
HETATM    3  C   UNL     1     -11.196   6.452  69.808  1.00  0.00    -0.419 C  
BRANCH   3   4
HETATM    4  C   UNL     1     -10.551   7.831  69.722  1.00  0.00    -0.241 C  
BRANCH   4   5
HETATM    5  C   UNL     1     -10.266   8.237  68.277  1.00  0.00    -0.208 C  
BRANCH   5   6
HETATM    6  O   UNL     1      -9.979   9.643  68.237  1.00  0.00    -0.147 OA 
BRANCH   6   7
HETATM    7  C   UNL     1     -10.319  10.274  67.063  1.00  0.00    -0.243 A  
HETATM    8  C   UNL     1     -11.147  11.410  67.148  1.00  0.00    -0.366 A  
HETATM    9  C   UNL     1     -11.718  11.831  68.474  1.00  0.00    -0.390 C  
HETATM   10  C   UNL     1     -11.375  12.144  65.970  1.00  0.00    -0.358 A  
HETATM   11  C   UNL     1      -9.884   9.827  65.818  1.00  0.00    -0.360 A  
HETATM   12  N   UNL     1     -10.900  11.728  64.762  1.00  0.00    -0.292 NA 
HETATM   13  C   UNL     1     -10.207  10.573  64.707  1.00  0.00    -0.303 A  
BRANCH  10  14
HETATM   14  C   UNL     1     -12.054  13.500  65.950  1.00  0.00    -0.435 C  
BRANCH  14  15
HETATM   15  S   UNL     1     -11.515  14.496  64.540  1.00  0.00    -0.305 S  
HETATM   16  O   UNL     1     -12.645  14.893  63.635  1.00  0.00    -0.724 OA 
BRANCH  15  17
HETATM   17  C   UNL     1     -11.017  15.949  65.349  1.00  0.00    -0.285 A  
HETATM   18  N   UNL     1     -10.966  17.152  64.819  1.00  0.00    -0.924 NA 
HETATM   19  C   UNL     1     -10.628  17.991  65.857  1.00  0.00    -0.219 A  
HETATM   20  H   UNL     1     -11.139  17.409  63.846  1.00  0.00     0.000 HD 
HETATM   21  C   UNL     1     -10.439  19.381  65.863  1.00  0.00    -0.561 A  
HETATM   22  C   UNL     1     -10.159  20.019  67.079  1.00  0.00    -0.594 A  
HETATM   23  C   UNL     1     -10.069  19.289  68.267  1.00  0.00    -0.516 A  
HETATM   24  C   UNL     1     -10.227  17.897  68.277  1.00  0.00    -0.391 A  
HETATM   25  C   UNL     1     -10.494  17.285  67.049  1.00  0.00    -0.287 A  
HETATM   26  N   UNL     1     -10.688  15.977  66.682  1.00  0.00    -0.289 NA 
ENDBRANCH  15  17
ENDBRANCH  14  15
ENDBRANCH  10  14
ENDBRANCH   6   7
ENDBRANCH   5   6
ENDBRANCH   4   5
ENDBRANCH   3   4
ENDBRANCH   2   3
TORSDOF 8
ENDMDL
MODEL        5
REMARK 921   NORMALIZED FREE ENERGY PREDICTED BY IDOCK:   -6.32 KCAL/MOL
REMARK 922        TOTAL FREE ENERGY PREDICTED BY IDOCK:  -10.15 KCAL/MOL
REMARK 923 INTER-LIGAND FREE ENERGY PREDICTED BY IDOCK:   -9.25 KCAL/MOL
REMARK 924 INTRA-LIGAND FREE ENERGY PREDICTED BY IDOCK:   -0.90 KCAL/MOL
REMARK 927      BINDING AFFINITY PREDICTED BY RF-SCORE:    0.00 PKD
ROOT
HETATM    1  C   UNL     1     -10.999   6.983  71.336  1.00  0.00    -0.240 C  
HETATM    2  O   UNL     1     -12.335   6.829  70.874  1.00  0.00    -0.381 OA 
ENDROOT
BRANCH   2   3
HETATM    3  C   UNL     1     -13.269   7.538  71.686  1.00  0.00    -0.356 C  
BRANCH   3   4
HETATM    4  C   UNL     1     -12.593   8.773  72.269  1.00  0.00    -0.460 C  
BRANCH   4   5
HETATM    5  C   UNL     1     -13.014  10.049  71.542  1.00  0.00    -0.434 C  
BRANCH   5   6
HETATM    6  O   UNL     1     -11.996  10.399  70.591  1.00  0.00    -0.294 OA 
BRANCH   6   7
HETATM    7  C   UNL     1     -12.071  11.684  70.104  1.00  0.00    -0.333 A  
HETATM    8  C   UNL     1     -11.803  11.878  68.735  1.00  0.00    -0.371 A  
HETATM    9  C   UNL     1     -11.344  10.728  67.883  1.00  0.00    -0.372 C  
HETATM   10  C   UNL     1     -12.022  13.161  68.201  1.00  0.00    -0.294 A  
HETATM   11  C   UNL     1     -12.388  12.774  70.909  1.00  0.00    -0.356 A  
HETATM   12  N   UNL     1     -12.387  14.214  68.987  1.00  0.00    -0.226 NA 
HETATM   13  C   UNL     1     -12.521  14.008  70.313  1.00  0.00    -0.338 A  
BRANCH  10  14
HETATM   14  C   UNL     1     -11.992  13.462  66.715  1.00  0.00    -0.394 C  
BRANCH  14  15
HETATM   15  S   UNL     1     -10.354  14.008  66.177  1.00  0.00    -0.305 S  
HETATM   16  O   UNL     1     -10.199  14.017  64.683  1.00  0.00    -0.420 OA 
BRANCH  15  17
HETATM   17  C   UNL     1     -10.397  15.673  66.663  1.00  0.00    -0.289 A  
HETATM   18  N   UNL     1     -10.222  16.128  67.886  1.00  0.00    -0.255 NA 
HETATM   19  C   UNL     1     -10.231  17.500  67.765  1.00  0.00    -0.349 A  
HETATM   20  H   UNL     1     -10.106  15.581  68.739  1.00  0.00     0.000 HD 
HETATM   21  C   UNL     1     -10.084  18.488  68.751  1.00  0.00    -0.394 A  
HETATM   22  C   UNL     1     -10.063  19.833  68.359  1.00  0.00    -0.568 A  
HETATM   23  C   UNL     1     -10.189  20.190  67.014  1.00  0.00    -0.558 A  
HETATM   24  C   UNL     1     -10.364  19.220  66.019  1.00  0.00    -0.556 A  
HETATM   25  C   UNL     1     -10.392  17.886  66.438  1.00  0.00    -0.365 A  
HETATM   26  N   UNL     1     -10.556  16.701  65.766  1.00  0.00    -0.345 NA 
ENDBRANCH  15  17
ENDBRANCH  14  15
ENDBRANCH  10  14
ENDBRANCH   6   7
ENDBRANCH   5   6
ENDBRANCH   4   5
ENDBRANCH   3   4
ENDBRANCH   2   3
TORSDOF 8
ENDMDL
MODEL        6
REMARK 921   NORMALIZED FREE ENERGY PREDICTED BY IDOCK:   -6.22 KCAL/MOL
REMARK 922        TOTAL FREE ENERGY PREDICTED BY IDOCK:  -10.00 KCAL/MOL
REMARK 923 INTER-LIGAND FREE ENERGY PREDICTED BY IDOCK:   -9.31 KCAL/MOL
REMARK 924 INTRA-LIGAND FREE ENERGY PREDICTED BY IDOCK:   -0.69 KCAL/MOL
REMARK 927      BINDING AFFINITY PREDICTED BY RF-SCORE:    0.00 PKD
ROOT
HETATM    1  C   UNL     1     -11.415   6.365  69.898  1.00  0.00    -0.415 C  
HETATM    2  O   UNL     1     -10.880   5.670  68.778  1.00  0.00    -0.239 OA 
ENDROOT
BRANCH   2   3
HETATM    3  C   UNL     1     -10.938   6.450  67.586  1.00  0.00    -0.349 C  
BRANCH   3   4
HETATM    4  C   UNL     1     -10.301   7.810  67.843  1.00  0.00    -0.276 C  
BRANCH   4   5
HETATM    5  C   UNL     1     -10.404   8.727  66.624  1.00  0.00    -0.228 C  
BRANCH   5   6
HETATM    6  O   UNL     1      -9.779   9.983  66.933  1.00  0.00    -0.174 OA 
BRANCH   6   7
HETATM    7  C   UNL     1     -10.203  11.047  66.171  1.00  0.00    -0.247 A  
HETATM    8  C   UNL     1     -10.974  12.039  66.808  1.00  0.00    -0.329 A  
HETATM    9  C   UNL     1     -11.401  11.862  68.238  1.00  0.00    -0.335 C  
HETATM   10  C   UNL     1     -11.283  13.198  66.075  1.00  0.00    -0.292 A  
HETATM   11  C   UNL     1      -9.905  11.165  64.816  1.00  0.00    -0.326 A  
HETATM   12  N   UNL     1     -10.941  13.331  64.761  1.00  0.00    -0.331 NA 
HETATM   13  C   UNL     1     -10.302  12.308  64.159  1.00  0.00    -0.369 A  
BRANCH  10  14
HETATM   14  C   UNL     1     -11.908  14.434  66.693  1.00  0.00    -0.398 C  
BRANCH  14  15
HETATM   15  S   UNL     1     -10.705  15.378  67.660  1.00  0.00    -0.298 S  
HETATM   16  O   UNL     1     -10.501  16.773  67.144  1.00  0.00    -0.317 OA 
BRANCH  15  17
HETATM   17  C   UNL     1     -11.563  15.543  69.160  1.00  0.00    -0.362 A  
HETATM   18  N   UNL     1     -12.759  15.062  69.426  1.00  0.00    -0.491 NA 
HETATM   19  C   UNL     1     -12.973  15.342  70.757  1.00  0.00    -0.436 A  
HETATM   20  H   UNL     1     -13.391  14.585  68.783  1.00  0.00     0.000 HD 
HETATM   21  C   UNL     1     -14.082  15.053  71.567  1.00  0.00    -0.613 A  
HETATM   22  C   UNL     1     -14.029  15.389  72.927  1.00  0.00    -0.380 A  
HETATM   23  C   UNL     1     -12.896  16.001  73.470  1.00  0.00    -0.701 A  
HETATM   24  C   UNL     1     -11.791  16.322  72.672  1.00  0.00    -0.596 A  
HETATM   25  C   UNL     1     -11.874  15.986  71.317  1.00  0.00    -0.449 A  
HETATM   26  N   UNL     1     -11.015  16.156  70.261  1.00  0.00    -0.353 NA 
ENDBRANCH  15  17
ENDBRANCH  14  15
ENDBRANCH  10  14
ENDBRANCH   6   7
ENDBRANCH   5   6
ENDBRANCH   4   5
ENDBRANCH   3   4
ENDBRANCH   2   3
TORSDOF 8
ENDMDL
MODEL        7
REMARK 921   NORMALIZED FREE ENERGY PREDICTED BY IDOCK:   -6.21 KCAL/MOL
REMARK 922        TOTAL FREE ENERGY PREDICTED BY IDOCK:   -9.98 KCAL/MOL
REMARK 923 INTER-LIGAND FREE ENERGY PREDICTED BY IDOCK:   -9.06 KCAL/MOL
REMARK 924 INTRA-LIGAND FREE ENERGY PREDICTED BY IDOCK:   -0.92 KCAL/MOL
REMARK 927      BINDING AFFINITY PREDICTED BY RF-SCORE:    0.00 PKD
ROOT
HETATM    1  C   UNL     1     -12.562   9.083  71.654  1.00  0.00    -0.348 C  
HETATM    2  O   UNL     1     -11.336   9.801  71.581  1.00  0.00    -0.349 OA 
ENDROOT
BRANCH   2   3
HETATM    3  C   UNL     1     -10.290   9.021  71.005  1.00  0.00    -0.278 C  
BRANCH   3   4
HETATM    4  C   UNL     1     -10.884   8.062  69.980  1.00  0.00    -0.235 C  
BRANCH   4   5
HETATM    5  C   UNL     1     -10.275   8.265  68.592  1.00  0.00    -0.204 C  
BRANCH   5   6
HETATM    6  O   UNL     1      -9.873   9.637  68.457  1.00  0.00    -0.151 OA 
BRANCH   6   7
HETATM    7  C   UNL     1     -10.229  10.234  67.270  1.00  0.00    -0.218 A  
HETATM    8  C   UNL     1     -11.117  11.325  67.329  1.00  0.00    -0.367 A  
HETATM    9  C   UNL     1     -11.728  11.732  68.641  1.00  0.00    -0.389 C  
HETATM   10  C   UNL     1     -11.367  12.031  66.139  1.00  0.00    -0.351 A  
HETATM   11  C   UNL     1      -9.754   9.794  66.037  1.00  0.00    -0.319 A  
HETATM   12  N   UNL     1     -10.853  11.626  64.942  1.00  0.00    -0.303 NA 
HETATM   13  C   UNL     1     -10.100  10.508  64.912  1.00  0.00    -0.333 A  
BRANCH  10  14
HETATM   14  C   UNL     1     -12.116  13.349  66.091  1.00  0.00    -0.429 C  
BRANCH  14  15
HETATM   15  S   UNL     1     -11.440  14.457  64.831  1.00  0.00    -0.404 S  
HETATM   16  O   UNL     1     -12.476  14.941  63.859  1.00  0.00    -0.806 OA 
BRANCH  15  17
HETATM   17  C   UNL     1     -11.020  15.829  65.807  1.00  0.00    -0.214 A  
HETATM   18  N   UNL     1     -10.841  15.828  67.110  1.00  0.00    -0.315 NA 
HETATM   19  C   UNL     1     -10.416  17.100  67.418  1.00  0.00    -0.334 A  
HETATM   20  H   UNL     1     -10.987  15.050  67.755  1.00  0.00     0.000 HD 
HETATM   21  C   UNL     1     -10.075  17.656  68.661  1.00  0.00    -0.377 A  
HETATM   22  C   UNL     1      -9.602  18.975  68.702  1.00  0.00    -0.458 A  
HETATM   23  C   UNL     1      -9.472  19.727  67.532  1.00  0.00    -0.456 A  
HETATM   24  C   UNL     1      -9.833  19.199  66.286  1.00  0.00    -0.437 A  
HETATM   25  C   UNL     1     -10.313  17.885  66.274  1.00  0.00    -0.364 A  
HETATM   26  N   UNL     1     -10.762  17.066  65.269  1.00  0.00    -0.617 NA 
ENDBRANCH  15  17
ENDBRANCH  14  15
ENDBRANCH  10  14
ENDBRANCH   6   7
ENDBRANCH   5   6
ENDBRANCH   4   5
ENDBRANCH   3   4
ENDBRANCH   2   3
TORSDOF 8
ENDMDL
MODEL        8
REMARK 921   NORMALIZED FREE ENERGY PREDICTED BY IDOCK:   -6.10 KCAL/MOL
REMARK 922        TOTAL FREE ENERGY PREDICTED BY IDOCK:   -9.83 KCAL/MOL
REMARK 923 INTER-LIGAND FREE ENERGY PREDICTED BY IDOCK:   -8.80 KCAL/MOL
REMARK 924 INTRA-LIGAND FREE ENERGY PREDICTED BY IDOCK:   -1.03 KCAL/MOL
REMARK 927      BINDING AFFINITY PREDICTED BY RF-SCORE:    0.00 PKD
ROOT
HETATM    1  C   UNL     1     -14.045   8.753  72.210  1.00  0.00    -0.441 C  
HETATM    2  O   UNL     1     -13.424   7.847  71.308  1.00  0.00    -0.260 OA 
ENDROOT
BRANCH   2   3
HETATM    3  C   UNL     1     -12.007   7.814  71.471  1.00  0.00    -0.300 C  
BRANCH   3   4
HETATM    4  C   UNL     1     -11.428   6.696  70.612  1.00  0.00    -0.420 C  
BRANCH   4   5
HETATM    5  C   UNL     1     -10.877   7.225  69.287  1.00  0.00    -0.159 C  
BRANCH   5   6
HETATM    6  O   UNL     1     -10.533   8.610  69.447  1.00  0.00    -0.216 OA 
BRANCH   6   7
HETATM    7  C   UNL     1     -10.612   9.366  68.299  1.00  0.00    -0.210 A  
HETATM    8  C   UNL     1     -11.292  10.597  68.374  1.00  0.00    -0.348 A  
HETATM    9  C   UNL     1     -11.995  10.996  69.642  1.00  0.00    -0.424 C  
HETATM   10  C   UNL     1     -11.248  11.438  67.248  1.00  0.00    -0.304 A  
HETATM   11  C   UNL     1     -10.058   8.953  67.090  1.00  0.00    -0.316 A  
HETATM   12  N   UNL     1     -10.655  11.049  66.083  1.00  0.00    -0.250 NA 
HETATM   13  C   UNL     1     -10.115   9.815  66.019  1.00  0.00    -0.251 A  
BRANCH  10  14
HETATM   14  C   UNL     1     -11.738  12.873  67.260  1.00  0.00    -0.373 C  
BRANCH  14  15
HETATM   15  S   UNL     1     -10.510  13.993  67.974  1.00  0.00    -0.246 S  
HETATM   16  O   UNL     1     -10.215  15.177  67.100  1.00  0.00    -0.242 OA 
BRANCH  15  17
HETATM   17  C   UNL     1     -11.396  14.611  69.333  1.00  0.00    -0.284 A  
HETATM   18  N   UNL     1     -12.701  14.557  69.497  1.00  0.00    -0.527 NA 
HETATM   19  C   UNL     1     -12.928  15.064  70.756  1.00  0.00    -0.389 A  
HETATM   20  H   UNL     1     -13.395  14.213  68.832  1.00  0.00     0.000 HD 
HETATM   21  C   UNL     1     -14.136  15.238  71.449  1.00  0.00    -0.595 A  
HETATM   22  C   UNL     1     -14.096  15.721  72.764  1.00  0.00    -0.425 A  
HETATM   23  C   UNL     1     -12.878  16.027  73.378  1.00  0.00    -0.671 A  
HETATM   24  C   UNL     1     -11.665  15.886  72.694  1.00  0.00    -0.527 A  
HETATM   25  C   UNL     1     -11.734  15.413  71.380  1.00  0.00    -0.395 A  
HETATM   26  N   UNL     1     -10.779  15.170  70.425  1.00  0.00    -0.227 NA 
ENDBRANCH  15  17
ENDBRANCH  14  15
ENDBRANCH  10  14
ENDBRANCH   6   7
ENDBRANCH   5   6
ENDBRANCH   4   5
ENDBRANCH   3   4
ENDBRANCH   2   3
TORSDOF 8
ENDMDL
MODEL        9
REMARK 921   NORMALIZED FREE ENERGY PREDICTED BY IDOCK:   -6.07 KCAL/MOL
REMARK 922        TOTAL FREE ENERGY PREDICTED BY IDOCK:   -9.78 KCAL/MOL
REMARK 923 INTER-LIGAND FREE ENERGY PREDICTED BY IDOCK:   -8.95 KCAL/MOL
REMARK 924 INTRA-LIGAND FREE ENERGY PREDICTED BY IDOCK:   -0.83 KCAL/MOL
REMARK 927      BINDING AFFINITY PREDICTED BY RF-SCORE:    0.00 PKD
ROOT
HETATM    1  C   UNL     1     -10.800   6.139  69.070  1.00  0.00    -0.350 C  
HETATM    2  O   UNL     1     -11.489   6.895  70.057  1.00  0.00    -0.306 OA 
ENDROOT
BRANCH   2   3
HETATM    3  C   UNL     1     -10.776   6.943  71.292  1.00  0.00    -0.223 C  
BRANCH   3   4
HETATM    4  C   UNL     1     -10.864   8.349  71.871  1.00  0.00    -0.372 C  
BRANCH   4   5
HETATM    5  C   UNL     1     -11.719   9.270  71.000  1.00  0.00    -0.311 C  
BRANCH   5   6
HETATM    6  O   UNL     1     -10.910  10.370  70.553  1.00  0.00    -0.276 OA 
BRANCH   6   7
HETATM    7  C   UNL     1     -11.020  10.667  69.214  1.00  0.00    -0.245 A  
HETATM    8  C   UNL     1     -11.592  11.906  68.866  1.00  0.00    -0.370 A  
HETATM    9  C   UNL     1     -12.156  12.804  69.932  1.00  0.00    -0.329 C  
HETATM   10  C   UNL     1     -11.571  12.279  67.511  1.00  0.00    -0.353 A  
HETATM   11  C   UNL     1     -10.600   9.794  68.214  1.00  0.00    -0.271 A  
HETATM   12  N   UNL     1     -11.107  11.439  66.541  1.00  0.00    -0.281 NA 
HETATM   13  C   UNL     1     -10.674  10.216  66.906  1.00  0.00    -0.161 A  
BRANCH  10  14
HETATM   14  C   UNL     1     -11.943  13.665  67.021  1.00  0.00    -0.406 C  
BRANCH  14  15
HETATM   15  S   UNL     1     -10.856  14.216  65.684  1.00  0.00    -0.319 S  
HETATM   16  O   UNL     1     -11.560  14.333  64.364  1.00  0.00    -0.382 OA 
BRANCH  15  17
HETATM   17  C   UNL     1     -10.522  15.841  66.194  1.00  0.00    -0.317 A  
HETATM   18  N   UNL     1     -10.599  16.919  65.444  1.00  0.00    -0.602 NA 
HETATM   19  C   UNL     1     -10.359  17.972  66.299  1.00  0.00    -0.382 A  
HETATM   20  H   UNL     1     -10.794  16.966  64.444  1.00  0.00     0.000 HD 
HETATM   21  C   UNL     1     -10.321  19.350  66.037  1.00  0.00    -0.584 A  
HETATM   22  C   UNL     1     -10.119  20.234  67.106  1.00  0.00    -0.556 A  
HETATM   23  C   UNL     1      -9.954  19.757  68.409  1.00  0.00    -0.549 A  
HETATM   24  C   UNL     1      -9.961  18.385  68.686  1.00  0.00    -0.415 A  
HETATM   25  C   UNL     1     -10.154  17.524  67.601  1.00  0.00    -0.328 A  
HETATM   26  N   UNL     1     -10.204  16.157  67.492  1.00  0.00    -0.261 NA 
ENDBRANCH  15  17
ENDBRANCH  14  15
ENDBRANCH  10  14
ENDBRANCH   6   7
ENDBRANCH   5   6
ENDBRANCH   4   5
ENDBRANCH   3   4
ENDBRANCH   2   3
TORSDOF 8
ENDMDL
MODEL       10
REMARK 921   NORMALIZED FREE ENERGY PREDICTED BY IDOCK:   -6.05 KCAL/MOL
REMARK 922        TOTAL FREE ENERGY PREDICTED BY IDOCK:   -9.75 KCAL/MOL
REMARK 923 INTER-LIGAND FREE ENERGY PREDICTED BY IDOCK:   -8.93 KCAL/MOL
REMARK 924 INTRA-LIGAND FREE ENERGY PREDICTED BY IDOCK:   -0.82 KCAL/MOL
REMARK 927      BINDING AFFINITY PREDICTED BY RF-SCORE:    0.00 PKD
ROOT
HETATM    1  C   UNL     1      -7.290  20.011  67.481  1.00  0.00    -0.279 C  
HETATM    2  O   UNL     1      -8.494  19.500  68.039  1.00  0.00    -0.306 OA 
ENDROOT
BRANCH   2   3
HETATM    3  C   UNL     1      -9.645  20.190  67.556  1.00  0.00    -0.414 C  
BRANCH   3   4
HETATM    4  C   UNL     1     -10.741  19.180  67.239  1.00  0.00    -0.585 C  
BRANCH   4   5
HETATM    5  C   UNL     1     -10.595  18.606  65.830  1.00  0.00    -0.249 C  
BRANCH   5   6
HETATM    6  O   UNL     1      -9.885  17.360  65.907  1.00  0.00    -0.501 OA 
BRANCH   6   7
HETATM    7  C   UNL     1     -10.646  16.240  65.665  1.00  0.00    -0.346 A  
HETATM    8  C   UNL     1     -10.689  15.251  66.668  1.00  0.00    -0.309 A  
HETATM    9  C   UNL     1      -9.838  15.386  67.899  1.00  0.00    -0.219 C  
HETATM   10  C   UNL     1     -11.580  14.178  66.490  1.00  0.00    -0.375 A  
HETATM   11  C   UNL     1     -11.352  16.055  64.480  1.00  0.00    -0.303 A  
HETATM   12  N   UNL     1     -12.310  14.031  65.348  1.00  0.00    -0.452 NA 
HETATM   13  C   UNL     1     -12.153  14.940  64.365  1.00  0.00    -0.401 A  
BRANCH  10  14
HETATM   14  C   UNL     1     -11.896  13.167  67.576  1.00  0.00    -0.360 C  
BRANCH  14  15
HETATM   15  S   UNL     1     -11.053  11.593  67.290  1.00  0.00    -0.306 S  
HETATM   16  O   UNL     1      -9.568  11.742  67.128  1.00  0.00    -0.178 OA 
BRANCH  15  17
HETATM   17  C   UNL     1     -11.291  10.821  68.826  1.00  0.00    -0.288 A  
HETATM   18  N   UNL     1     -12.445  10.642  69.433  1.00  0.00    -0.690 NA 
HETATM   19  C   UNL     1     -12.153   9.895  70.552  1.00  0.00    -0.207 A  
HETATM   20  H   UNL     1     -13.360  10.984  69.138  1.00  0.00     0.000 HD 
HETATM   21  C   UNL     1     -13.006   9.412  71.557  1.00  0.00    -0.449 A  
HETATM   22  C   UNL     1     -12.467   8.608  72.570  1.00  0.00    -0.372 A  
HETATM   23  C   UNL     1     -11.106   8.290  72.585  1.00  0.00    -0.400 A  
HETATM   24  C   UNL     1     -10.235   8.784  71.607  1.00  0.00    -0.394 A  
HETATM   25  C   UNL     1     -10.796   9.593  70.614  1.00  0.00    -0.320 A  
HETATM   26  N   UNL     1     -10.262  10.248  69.533  1.00  0.00    -0.228 NA 
ENDBRANCH  15  17
ENDBRANCH  14  15
ENDBRANCH  10  14
ENDBRANCH   6   7
ENDBRANCH   5   6
ENDBRANCH   4   5
ENDBRANCH   3   4
ENDBRANCH   2   3
TORSDOF 8
ENDMDL
MODEL       11
REMARK 921   NORMALIZED FREE ENERGY PREDICTED BY IDOCK:   -6.02 KCAL/MOL
REMARK 922        TOTAL FREE ENERGY PREDICTED BY IDOCK:   -9.71 KCAL/MOL
REMARK 923 INTER-LIGAND FREE ENERGY PREDICTED BY IDOCK:   -8.62 KCAL/MOL
REMARK 924 INTRA-LIGAND FREE ENERGY PREDICTED BY IDOCK:   -1.09 KCAL/MOL
REMARK 927      BINDING AFFINITY PREDICTED BY RF-SCORE:    0.00 PKD
ROOT
HETATM    1  C   UNL     1     -10.203  19.938  68.408  1.00  0.00    -0.433 C  
HETATM    2  O   UNL     1     -10.330  20.115  67.003  1.00  0.00    -0.430 OA 
ENDROOT
BRANCH   2   3
HETATM    3  C   UNL     1      -9.175  19.665  66.298  1.00  0.00    -0.375 C  
BRANCH   3   4
HETATM    4  C   UNL     1      -8.420  18.660  67.159  1.00  0.00    -0.272 C  
BRANCH   4   5
HETATM    5  C   UNL     1      -8.582  17.231  66.641  1.00  0.00    -0.257 C  
BRANCH   5   6
HETATM    6  O   UNL     1      -9.942  17.040  66.221  1.00  0.00    -0.287 OA 
BRANCH   6   7
HETATM    7  C   UNL     1     -10.660  16.134  66.967  1.00  0.00    -0.292 A  
HETATM    8  C   UNL     1     -11.023  14.922  66.348  1.00  0.00    -0.336 A  
HETATM    9  C   UNL     1     -10.725  14.698  64.893  1.00  0.00    -0.447 C  
HETATM   10  C   UNL     1     -11.625  13.935  67.148  1.00  0.00    -0.364 A  
HETATM   11  C   UNL     1     -11.038  16.379  68.285  1.00  0.00    -0.337 A  
HETATM   12  N   UNL     1     -11.943  14.162  68.454  1.00  0.00    -0.349 NA 
HETATM   13  C   UNL     1     -11.681  15.377  68.976  1.00  0.00    -0.361 A  
BRANCH  10  14
HETATM   14  C   UNL     1     -11.864  12.512  66.678  1.00  0.00    -0.352 C  
BRANCH  14  15
HETATM   15  S   UNL     1     -10.474  11.430  67.089  1.00  0.00    -0.236 S  
HETATM   16  O   UNL     1      -9.204  12.183  67.359  1.00  0.00    -0.173 OA 
BRANCH  15  17
HETATM   17  C   UNL     1     -10.997  10.809  68.623  1.00  0.00    -0.239 A  
HETATM   18  N   UNL     1     -12.190  10.965  69.156  1.00  0.00    -0.674 NA 
HETATM   19  C   UNL     1     -12.173  10.211  70.308  1.00  0.00    -0.173 A  
HETATM   20  H   UNL     1     -12.962  11.526  68.794  1.00  0.00     0.000 HD 
HETATM   21  C   UNL     1     -13.179  10.011  71.265  1.00  0.00    -0.469 A  
HETATM   22  C   UNL     1     -12.933   9.133  72.329  1.00  0.00    -0.492 A  
HETATM   23  C   UNL     1     -11.710   8.467  72.441  1.00  0.00    -0.429 A  
HETATM   24  C   UNL     1     -10.683   8.675  71.511  1.00  0.00    -0.352 A  
HETATM   25  C   UNL     1     -10.951   9.564  70.466  1.00  0.00    -0.288 A  
HETATM   26  N   UNL     1     -10.200  10.012  69.408  1.00  0.00    -0.207 NA 
ENDBRANCH  15  17
ENDBRANCH  14  15
ENDBRANCH  10  14
ENDBRANCH   6   7
ENDBRANCH   5   6
ENDBRANCH   4   5
ENDBRANCH   3   4
ENDBRANCH   2   3
TORSDOF 8
ENDMDL
MODEL       12
REMARK 921   NORMALIZED FREE ENERGY PREDICTED BY IDOCK:   -6.02 KCAL/MOL
REMARK 922        TOTAL FREE ENERGY PREDICTED BY IDOCK:   -9.71 KCAL/MOL
REMARK 923 INTER-LIGAND FREE ENERGY PREDICTED BY IDOCK:   -9.07 KCAL/MOL
REMARK 924 INTRA-LIGAND FREE ENERGY PREDICTED BY IDOCK:   -0.64 KCAL/MOL
REMARK 927      BINDING AFFINITY PREDICTED BY RF-SCORE:    0.00 PKD
ROOT
HETATM    1  C   UNL     1     -11.553   7.504  72.325  1.00  0.00    -0.310 C  
HETATM    2  O   UNL     1     -11.698   8.906  72.134  1.00  0.00    -0.363 OA 
ENDROOT
BRANCH   2   3
HETATM    3  C   UNL     1     -13.067   9.303  72.087  1.00  0.00    -0.443 C  
BRANCH   3   4
HETATM    4  C   UNL     1     -13.149  10.792  71.773  1.00  0.00    -0.573 C  
BRANCH   4   5
HETATM    5  C   UNL     1     -12.218  11.183  70.625  1.00  0.00    -0.397 C  
BRANCH   5   6
HETATM    6  O   UNL     1     -12.177  12.616  70.528  1.00  0.00    -0.365 OA 
BRANCH   6   7
HETATM    7  C   UNL     1     -11.954  13.108  69.262  1.00  0.00    -0.292 A  
HETATM    8  C   UNL     1     -11.804  14.501  69.121  1.00  0.00    -0.354 A  
HETATM    9  C   UNL     1     -11.996  15.406  70.306  1.00  0.00    -0.386 C  
HETATM   10  C   UNL     1     -11.429  14.994  67.859  1.00  0.00    -0.340 A  
HETATM   11  C   UNL     1     -11.884  12.286  68.140  1.00  0.00    -0.372 A  
HETATM   12  N   UNL     1     -11.309  14.176  66.775  1.00  0.00    -0.330 NA 
HETATM   13  C   UNL     1     -11.574  12.863  66.929  1.00  0.00    -0.368 A  
BRANCH  10  14
HETATM   14  C   UNL     1     -11.015  16.432  67.614  1.00  0.00    -0.225 C  
BRANCH  14  15
HETATM   15  S   UNL     1     -10.065  16.603  66.084  1.00  0.00    -0.346 S  
HETATM   16  O   UNL     1     -10.849  17.240  64.974  1.00  0.00    -0.686 OA 
BRANCH  15  17
HETATM   17  C   UNL     1      -8.885  17.779  66.573  1.00  0.00    -0.262 A  
HETATM   18  N   UNL     1      -8.466  18.799  65.856  1.00  0.00    -0.451 NA 
HETATM   19  C   UNL     1      -7.628  19.506  66.689  1.00  0.00    -0.256 A  
HETATM   20  H   UNL     1      -8.709  19.019  64.890  1.00  0.00     0.000 HD 
HETATM   21  C   UNL     1      -6.906  20.685  66.446  1.00  0.00    -0.289 A  
HETATM   22  C   UNL     1      -6.165  21.250  67.494  1.00  0.00    -0.429 A  
HETATM   23  C   UNL     1      -6.142  20.654  68.757  1.00  0.00    -0.366 A  
HETATM   24  C   UNL     1      -6.833  19.463  69.011  1.00  0.00    -0.377 A  
HETATM   25  C   UNL     1      -7.555  18.915  67.947  1.00  0.00    -0.259 A  
HETATM   26  N   UNL     1      -8.319  17.782  67.824  1.00  0.00    -0.231 NA 
ENDBRANCH  15  17
ENDBRANCH  14  15
ENDBRANCH  10  14
ENDBRANCH   6   7
ENDBRANCH   5   6
ENDBRANCH   4   5
ENDBRANCH   3   4
ENDBRANCH   2   3
TORSDOF 8
ENDMDL
MODEL       13
REMARK 921   NORMALIZED FREE ENERGY PREDICTED BY IDOCK:   -6.01 KCAL/MOL
REMARK 922        TOTAL FREE ENERGY PREDICTED BY IDOCK:   -9.70 KCAL/MOL
REMARK 923 INTER-LIGAND FREE ENERGY PREDICTED BY IDOCK:   -8.70 KCAL/MOL
REMARK 924 INTRA-LIGAND FREE ENERGY PREDICTED BY IDOCK:   -1.00 KCAL/MOL
REMARK 927      BINDING AFFINITY PREDICTED BY RF-SCORE:    0.00 PKD
ROOT
HETATM    1  C   UNL     1      -9.940   8.618  72.033  1.00  0.00    -0.329 C  
HETATM    2  O   UNL     1     -10.569   9.394  71.020  1.00  0.00    -0.282 OA 
ENDROOT
BRANCH   2   3
HETATM    3  C   UNL     1      -9.629   9.917  70.083  1.00  0.00    -0.185 C  
BRANCH   3   4
HETATM    4  C   UNL     1      -9.323   8.857  69.032  1.00  0.00    -0.144 C  
BRANCH   4   5
HETATM    5  C   UNL     1      -9.194   9.462  67.634  1.00  0.00    -0.127 C  
BRANCH   5   6
HETATM    6  O   UNL     1     -10.509   9.701  67.109  1.00  0.00    -0.247 OA 
BRANCH   6   7
HETATM    7  C   UNL     1     -10.620  10.805  66.295  1.00  0.00    -0.192 A  
HETATM    8  C   UNL     1     -11.303  11.926  66.804  1.00  0.00    -0.393 A  
HETATM    9  C   UNL     1     -11.975  11.856  68.147  1.00  0.00    -0.222 C  
HETATM   10  C   UNL     1     -11.290  13.104  66.037  1.00  0.00    -0.308 A  
HETATM   11  C   UNL     1     -10.095  10.840  65.005  1.00  0.00    -0.377 A  
HETATM   12  N   UNL     1     -10.726  13.147  64.796  1.00  0.00    -0.343 NA 
HETATM   13  C   UNL     1     -10.183  12.018  64.298  1.00  0.00    -0.318 A  
BRANCH  10  14
HETATM   14  C   UNL     1     -11.785  14.442  66.553  1.00  0.00    -0.391 C  
BRANCH  14  15
HETATM   15  S   UNL     1     -10.528  15.282  67.546  1.00  0.00    -0.270 S  
HETATM   16  O   UNL     1     -10.223  16.668  67.058  1.00  0.00    -0.279 OA 
BRANCH  15  17
HETATM   17  C   UNL     1     -11.385  15.479  69.043  1.00  0.00    -0.326 A  
HETATM   18  N   UNL     1     -12.622  15.101  69.283  1.00  0.00    -0.541 NA 
HETATM   19  C   UNL     1     -12.826  15.359  70.620  1.00  0.00    -0.430 A  
HETATM   20  H   UNL     1     -13.288  14.702  68.620  1.00  0.00     0.000 HD 
HETATM   21  C   UNL     1     -13.965  15.148  71.411  1.00  0.00    -0.595 A  
HETATM   22  C   UNL     1     -13.898  15.437  72.781  1.00  0.00    -0.576 A  
HETATM   23  C   UNL     1     -12.722  15.928  73.353  1.00  0.00    -0.676 A  
HETATM   24  C   UNL     1     -11.583  16.170  72.575  1.00  0.00    -0.355 A  
HETATM   25  C   UNL     1     -11.680  15.884  71.209  1.00  0.00    -0.448 A  
HETATM   26  N   UNL     1     -10.797  16.006  70.166  1.00  0.00    -0.342 NA 
ENDBRANCH  15  17
ENDBRANCH  14  15
ENDBRANCH  10  14
ENDBRANCH   6   7
ENDBRANCH   5   6
ENDBRANCH   4   5
ENDBRANCH   3   4
ENDBRANCH   2   3
TORSDOF 8
ENDMDL
MODEL       14
REMARK 921   NORMALIZED FREE ENERGY PREDICTED BY IDOCK:   -6.01 KCAL/MOL
REMARK 922        TOTAL FREE ENERGY PREDICTED BY IDOCK:   -9.69 KCAL/MOL
REMARK 923 INTER-LIGAND FREE ENERGY PREDICTED BY IDOCK:   -9.03 KCAL/MOL
REMARK 924 INTRA-LIGAND FREE ENERGY PREDICTED BY IDOCK:   -0.66 KCAL/MOL
REMARK 927      BINDING AFFINITY PREDICTED BY RF-SCORE:    0.00 PKD
ROOT
HETATM    1  C   UNL     1     -10.970   5.920  70.132  1.00  0.00    -0.342 C  
HETATM    2  O   UNL     1     -12.109   6.769  70.205  1.00  0.00    -0.289 OA 
ENDROOT
BRANCH   2   3
HETATM    3  C   UNL     1     -12.498   7.031  71.552  1.00  0.00    -0.386 C  
BRANCH   3   4
HETATM    4  C   UNL     1     -13.877   7.680  71.560  1.00  0.00    -0.466 C  
BRANCH   4   5
HETATM    5  C   UNL     1     -13.800   9.177  71.859  1.00  0.00    -0.395 C  
BRANCH   5   6
HETATM    6  O   UNL     1     -12.571   9.694  71.325  1.00  0.00    -0.316 OA 
BRANCH   6   7
HETATM    7  C   UNL     1     -12.551  11.055  71.122  1.00  0.00    -0.418 A  
HETATM    8  C   UNL     1     -11.964  11.528  69.932  1.00  0.00    -0.426 A  
HETATM    9  C   UNL     1     -11.291  10.572  68.989  1.00  0.00    -0.319 C  
HETATM   10  C   UNL     1     -12.074  12.902  69.651  1.00  0.00    -0.226 A  
HETATM   11  C   UNL     1     -13.075  11.958  72.043  1.00  0.00    -0.441 A  
HETATM   12  N   UNL     1     -12.638  13.774  70.534  1.00  0.00    -0.317 NA 
HETATM   13  C   UNL     1     -13.084  13.295  71.712  1.00  0.00    -0.379 A  
BRANCH  10  14
HETATM   14  C   UNL     1     -11.692  13.513  68.316  1.00  0.00    -0.359 C  
BRANCH  14  15
HETATM   15  S   UNL     1      -9.962  14.040  68.293  1.00  0.00    -0.239 S  
HETATM   16  O   UNL     1      -9.220  13.568  67.077  1.00  0.00    -0.229 OA 
BRANCH  15  17
HETATM   17  C   UNL     1     -10.154  15.754  68.100  1.00  0.00    -0.220 A  
HETATM   18  N   UNL     1      -9.961  16.665  69.030  1.00  0.00    -0.271 NA 
HETATM   19  C   UNL     1     -10.122  17.874  68.390  1.00  0.00    -0.383 A  
HETATM   20  H   UNL     1      -9.740  16.509  70.013  1.00  0.00     0.000 HD 
HETATM   21  C   UNL     1     -10.025  19.178  68.899  1.00  0.00    -0.481 A  
HETATM   22  C   UNL     1     -10.169  20.258  68.018  1.00  0.00    -0.424 A  
HETATM   23  C   UNL     1     -10.406  20.046  66.657  1.00  0.00    -0.565 A  
HETATM   24  C   UNL     1     -10.533  18.753  66.135  1.00  0.00    -0.499 A  
HETATM   25  C   UNL     1     -10.396  17.693  67.038  1.00  0.00    -0.330 A  
HETATM   26  N   UNL     1     -10.471  16.331  66.894  1.00  0.00    -0.309 NA 
ENDBRANCH  15  17
ENDBRANCH  14  15
ENDBRANCH  10  14
ENDBRANCH   6   7
ENDBRANCH   5   6
ENDBRANCH   4   5
ENDBRANCH   3   4
ENDBRANCH   2   3
TORSDOF 8
ENDMDL
MODEL       15
REMARK 921   NORMALIZED FREE ENERGY PREDICTED BY IDOCK:   -5.97 KCAL/MOL
REMARK 922        TOTAL FREE ENERGY PREDICTED BY IDOCK:   -9.63 KCAL/MOL
REMARK 923 INTER-LIGAND FREE ENERGY PREDICTED BY IDOCK:   -8.94 KCAL/MOL
REMARK 924 INTRA-LIGAND FREE ENERGY PREDICTED BY IDOCK:   -0.69 KCAL/MOL
REMARK 927      BINDING AFFINITY PREDICTED BY RF-SCORE:    0.00 PKD
ROOT
HETATM    1  C   UNL     1      -9.245   4.959  65.771  1.00  0.00    -0.154 C  
HETATM    2  O   UNL     1     -10.441   5.274  66.473  1.00  0.00    -0.254 OA 
ENDROOT
BRANCH   2   3
HETATM    3  C   UNL     1     -10.206   5.489  67.863  1.00  0.00    -0.181 C  
BRANCH   3   4
HETATM    4  C   UNL     1     -10.792   6.836  68.270  1.00  0.00    -0.290 C  
BRANCH   4   5
HETATM    5  C   UNL     1      -9.751   7.953  68.205  1.00  0.00    -0.159 C  
BRANCH   5   6
HETATM    6  O   UNL     1     -10.411   9.215  68.386  1.00  0.00    -0.205 OA 
BRANCH   6   7
HETATM    7  C   UNL     1     -10.493   9.998  67.257  1.00  0.00    -0.254 A  
HETATM    8  C   UNL     1     -11.253  11.180  67.337  1.00  0.00    -0.363 A  
HETATM    9  C   UNL     1     -12.029  11.498  68.584  1.00  0.00    -0.312 C  
HETATM   10  C   UNL     1     -11.219  12.055  66.236  1.00  0.00    -0.342 A  
HETATM   11  C   UNL     1      -9.867   9.656  66.061  1.00  0.00    -0.345 A  
HETATM   12  N   UNL     1     -10.557  11.739  65.087  1.00  0.00    -0.273 NA 
HETATM   13  C   UNL     1      -9.937  10.544  65.012  1.00  0.00    -0.322 A  
BRANCH  10  14
HETATM   14  C   UNL     1     -11.800  13.456  66.266  1.00  0.00    -0.394 C  
BRANCH  14  15
HETATM   15  S   UNL     1     -11.315  14.411  64.808  1.00  0.00    -0.383 S  
HETATM   16  O   UNL     1     -12.469  14.722  63.899  1.00  0.00    -0.811 OA 
BRANCH  15  17
HETATM   17  C   UNL     1     -10.870  15.917  65.548  1.00  0.00    -0.315 A  
HETATM   18  N   UNL     1     -10.931  17.105  64.985  1.00  0.00    -0.660 NA 
HETATM   19  C   UNL     1     -10.590  17.994  65.979  1.00  0.00    -0.251 A  
HETATM   20  H   UNL     1     -11.176  17.320  64.018  1.00  0.00     0.000 HD 
HETATM   21  C   UNL     1     -10.495  19.393  65.938  1.00  0.00    -0.561 A  
HETATM   22  C   UNL     1     -10.189  20.084  67.118  1.00  0.00    -0.580 A  
HETATM   23  C   UNL     1      -9.981  19.397  68.317  1.00  0.00    -0.516 A  
HETATM   24  C   UNL     1     -10.045  17.999  68.373  1.00  0.00    -0.392 A  
HETATM   25  C   UNL     1     -10.340  17.334  67.178  1.00  0.00    -0.321 A  
HETATM   26  N   UNL     1     -10.467  16.006  66.858  1.00  0.00    -0.304 NA 
ENDBRANCH  15  17
ENDBRANCH  14  15
ENDBRANCH  10  14
ENDBRANCH   6   7
ENDBRANCH   5   6
ENDBRANCH   4   5
ENDBRANCH   3   4
ENDBRANCH   2   3
TORSDOF 8
ENDMDL
MODEL       16
REMARK 921   NORMALIZED FREE ENERGY PREDICTED BY IDOCK:   -5.96 KCAL/MOL
REMARK 922        TOTAL FREE ENERGY PREDICTED BY IDOCK:   -9.63 KCAL/MOL
REMARK 923 INTER-LIGAND FREE ENERGY PREDICTED BY IDOCK:   -8.48 KCAL/MOL
REMARK 924 INTRA-LIGAND FREE ENERGY PREDICTED BY IDOCK:   -1.15 KCAL/MOL
REMARK 927      BINDING AFFINITY PREDICTED BY RF-SCORE:    0.00 PKD
ROOT
HETATM    1  C   UNL     1     -14.393  15.101  71.808  1.00  0.00    -0.597 C  
HETATM    2  O   UNL     1     -13.443  15.734  70.960  1.00  0.00    -0.581 OA 
ENDROOT
BRANCH   2   3
HETATM    3  C   UNL     1     -12.101  15.446  71.349  1.00  0.00    -0.373 C  
BRANCH   3   4
HETATM    4  C   UNL     1     -11.155  15.841  70.221  1.00  0.00    -0.372 C  
BRANCH   4   5
HETATM    5  C   UNL     1     -11.855  15.835  68.862  1.00  0.00    -0.341 C  
BRANCH   5   6
HETATM    6  O   UNL     1     -10.867  15.691  67.831  1.00  0.00    -0.288 OA 
BRANCH   6   7
HETATM    7  C   UNL     1     -11.060  14.624  66.983  1.00  0.00    -0.333 A  
HETATM    8  C   UNL     1      -9.985  13.731  66.803  1.00  0.00    -0.270 A  
HETATM    9  C   UNL     1      -8.651  14.017  67.434  1.00  0.00    -0.211 C  
HETATM   10  C   UNL     1     -10.224  12.563  66.058  1.00  0.00    -0.251 A  
HETATM   11  C   UNL     1     -12.258  14.411  66.307  1.00  0.00    -0.366 A  
HETATM   12  N   UNL     1     -11.419  12.334  65.442  1.00  0.00    -0.345 NA 
HETATM   13  C   UNL     1     -12.384  13.270  65.547  1.00  0.00    -0.480 A  
BRANCH  10  14
HETATM   14  C   UNL     1      -9.238  11.414  65.970  1.00  0.00    -0.214 C  
BRANCH  14  15
HETATM   15  S   UNL     1     -10.070   9.810  66.057  1.00  0.00    -0.209 S  
HETATM   16  O   UNL     1      -9.125   8.650  65.936  1.00  0.00    -0.189 OA 
BRANCH  15  17
HETATM   17  C   UNL     1     -10.607   9.820  67.707  1.00  0.00    -0.266 A  
HETATM   18  N   UNL     1     -11.631  10.494  68.185  1.00  0.00    -0.695 NA 
HETATM   19  C   UNL     1     -11.737  10.105  69.501  1.00  0.00    -0.061 A  
HETATM   20  H   UNL     1     -12.220  11.162  67.686  1.00  0.00     0.000 HD 
HETATM   21  C   UNL     1     -12.656  10.506  70.484  1.00  0.00    -0.423 A  
HETATM   22  C   UNL     1     -12.594   9.906  71.749  1.00  0.00    -0.506 A  
HETATM   23  C   UNL     1     -11.636   8.929  72.033  1.00  0.00    -0.435 A  
HETATM   24  C   UNL     1     -10.694   8.536  71.074  1.00  0.00    -0.278 A  
HETATM   25  C   UNL     1     -10.771   9.157  69.824  1.00  0.00    -0.228 A  
HETATM   26  N   UNL     1     -10.027   9.040  68.677  1.00  0.00    -0.167 NA 
ENDBRANCH  15  17
ENDBRANCH  14  15
ENDBRANCH  10  14
ENDBRANCH   6   7
ENDBRANCH   5   6
ENDBRANCH   4   5
ENDBRANCH   3   4
ENDBRANCH   2   3
TORSDOF 8
ENDMDL
MODEL       17
REMARK 921   NORMALIZED FREE ENERGY PREDICTED BY IDOCK:   -5.94 KCAL/MOL
REMARK 922        TOTAL FREE ENERGY PREDICTED BY IDOCK:   -9.59 KCAL/MOL
REMARK 923 INTER-LIGAND FREE ENERGY PREDICTED BY IDOCK:   -8.79 KCAL/MOL
REMARK 924 INTRA-LIGAND FREE ENERGY PREDICTED BY IDOCK:   -0.80 KCAL/MOL
REMARK 927      BINDING AFFINITY PREDICTED BY RF-SCORE:    0.00 PKD
ROOT
HETATM    1  C   UNL     1      -6.973  18.792  65.727  1.00  0.00    -0.256 C  
HETATM    2  O   UNL     1      -7.644  19.985  66.114  1.00  0.00    -0.299 OA 
ENDROOT
BRANCH   2   3
HETATM    3  C   UNL     1      -8.787  19.719  66.925  1.00  0.00    -0.335 C  
BRANCH   3   4
HETATM    4  C   UNL     1     -10.009  19.547  66.031  1.00  0.00    -0.477 C  
BRANCH   4   5
HETATM    5  C   UNL     1     -10.661  18.177  66.217  1.00  0.00    -0.137 C  
BRANCH   5   6
HETATM    6  O   UNL     1     -10.046  17.243  65.315  1.00  0.00    -0.467 OA 
BRANCH   6   7
HETATM    7  C   UNL     1     -10.535  15.959  65.383  1.00  0.00    -0.405 A  
HETATM    8  C   UNL     1      -9.876  15.056  66.240  1.00  0.00    -0.307 A  
HETATM    9  C   UNL     1      -8.622  15.471  66.956  1.00  0.00    -0.262 C  
HETATM   10  C   UNL     1     -10.458  13.789  66.427  1.00  0.00    -0.284 A  
HETATM   11  C   UNL     1     -11.632  15.533  64.639  1.00  0.00    -0.281 A  
HETATM   12  N   UNL     1     -11.566  13.398  65.734  1.00  0.00    -0.322 NA 
HETATM   13  C   UNL     1     -12.098  14.253  64.838  1.00  0.00    -0.435 A  
BRANCH  10  14
HETATM   14  C   UNL     1      -9.991  12.803  67.480  1.00  0.00    -0.210 C  
BRANCH  14  15
HETATM   15  S   UNL     1     -11.368  11.849  68.161  1.00  0.00    -0.315 S  
HETATM   16  O   UNL     1     -10.930  10.575  68.824  1.00  0.00    -0.220 OA 
BRANCH  15  17
HETATM   17  C   UNL     1     -11.883  12.902  69.441  1.00  0.00    -0.312 A  
HETATM   18  N   UNL     1     -12.632  12.564  70.469  1.00  0.00    -0.163 NA 
HETATM   19  C   UNL     1     -12.680  13.686  71.265  1.00  0.00    -0.361 A  
HETATM   20  H   UNL     1     -13.080  11.663  70.639  1.00  0.00     0.000 HD 
HETATM   21  C   UNL     1     -13.336  13.890  72.489  1.00  0.00    -0.656 A  
HETATM   22  C   UNL     1     -13.175  15.119  73.143  1.00  0.00    -0.603 A  
HETATM   23  C   UNL     1     -12.380  16.127  72.591  1.00  0.00    -0.574 A  
HETATM   24  C   UNL     1     -11.741  15.952  71.357  1.00  0.00    -0.530 A  
HETATM   25  C   UNL     1     -11.926  14.721  70.720  1.00  0.00    -0.310 A  
HETATM   26  N   UNL     1     -11.479  14.212  69.527  1.00  0.00    -0.270 NA 
ENDBRANCH  15  17
ENDBRANCH  14  15
ENDBRANCH  10  14
ENDBRANCH   6   7
ENDBRANCH   5   6
ENDBRANCH   4   5
ENDBRANCH   3   4
ENDBRANCH   2   3
TORSDOF 8
ENDMDL
MODEL       18
REMARK 921   NORMALIZED FREE ENERGY PREDICTED BY IDOCK:   -5.91 KCAL/MOL
REMARK 922        TOTAL FREE ENERGY PREDICTED BY IDOCK:   -9.54 KCAL/MOL
REMARK 923 INTER-LIGAND FREE ENERGY PREDICTED BY IDOCK:   -8.58 KCAL/MOL
REMARK 924 INTRA-LIGAND FREE ENERGY PREDICTED BY IDOCK:   -0.97 KCAL/MOL
REMARK 927      BINDING AFFINITY PREDICTED BY RF-SCORE:    0.00 PKD
ROOT
HETATM    1  C   UNL     1     -11.088  16.208  69.805  1.00  0.00    -0.350 C  
HETATM    2  O   UNL     1     -10.908  16.957  68.609  1.00  0.00    -0.342 OA 
ENDROOT
BRANCH   2   3
HETATM    3  C   UNL     1      -9.825  17.879  68.711  1.00  0.00    -0.352 C  
BRANCH   3   4
HETATM    4  C   UNL     1      -9.689  18.642  67.399  1.00  0.00    -0.330 C  
BRANCH   4   5
HETATM    5  C   UNL     1     -10.536  18.020  66.289  1.00  0.00    -0.335 C  
BRANCH   5   6
HETATM    6  O   UNL     1      -9.726  17.091  65.552  1.00  0.00    -0.534 OA 
BRANCH   6   7
HETATM    7  C   UNL     1     -10.240  15.818  65.456  1.00  0.00    -0.378 A  
HETATM    8  C   UNL     1      -9.617  14.805  66.210  1.00  0.00    -0.339 A  
HETATM    9  C   UNL     1      -8.370  15.105  66.995  1.00  0.00    -0.263 C  
HETATM   10  C   UNL     1     -10.226  13.538  66.232  1.00  0.00    -0.299 A  
HETATM   11  C   UNL     1     -11.328  15.508  64.645  1.00  0.00    -0.363 A  
HETATM   12  N   UNL     1     -11.326  13.256  65.477  1.00  0.00    -0.291 NA 
HETATM   13  C   UNL     1     -11.822  14.224  64.680  1.00  0.00    -0.448 A  
BRANCH  10  14
HETATM   14  C   UNL     1      -9.800  12.423  67.169  1.00  0.00    -0.205 C  
BRANCH  14  15
HETATM   15  S   UNL     1     -10.690  10.886  66.826  1.00  0.00    -0.225 S  
HETATM   16  O   UNL     1      -9.796   9.788  66.329  1.00  0.00    -0.215 OA 
BRANCH  15  17
HETATM   17  C   UNL     1     -11.163  10.428  68.432  1.00  0.00    -0.258 A  
HETATM   18  N   UNL     1     -12.295  10.739  69.025  1.00  0.00    -0.768 NA 
HETATM   19  C   UNL     1     -12.270  10.069  70.227  1.00  0.00    -0.112 A  
HETATM   20  H   UNL     1     -13.034  11.348  68.670  1.00  0.00     0.000 HD 
HETATM   21  C   UNL     1     -13.223  10.037  71.257  1.00  0.00    -0.469 A  
HETATM   22  C   UNL     1     -12.989   9.214  72.367  1.00  0.00    -0.468 A  
HETATM   23  C   UNL     1     -11.829   8.439  72.453  1.00  0.00    -0.452 A  
HETATM   24  C   UNL     1     -10.854   8.478  71.449  1.00  0.00    -0.327 A  
HETATM   25  C   UNL     1     -11.107   9.316  70.357  1.00  0.00    -0.255 A  
HETATM   26  N   UNL     1     -10.393   9.612  69.224  1.00  0.00    -0.199 NA 
ENDBRANCH  15  17
ENDBRANCH  14  15
ENDBRANCH  10  14
ENDBRANCH   6   7
ENDBRANCH   5   6
ENDBRANCH   4   5
ENDBRANCH   3   4
ENDBRANCH   2   3
TORSDOF 8
ENDMDL
MODEL       19
REMARK 921   NORMALIZED FREE ENERGY PREDICTED BY IDOCK:   -5.85 KCAL/MOL
REMARK 922        TOTAL FREE ENERGY PREDICTED BY IDOCK:   -9.46 KCAL/MOL
REMARK 923 INTER-LIGAND FREE ENERGY PREDICTED BY IDOCK:   -8.64 KCAL/MOL
REMARK 924 INTRA-LIGAND FREE ENERGY PREDICTED BY IDOCK:   -0.82 KCAL/MOL
REMARK 927      BINDING AFFINITY PREDICTED BY RF-SCORE:    0.00 PKD
ROOT
HETATM    1  C   UNL     1     -11.700  12.349  63.682  1.00  0.00    -0.514 C  
HETATM    2  O   UNL     1     -12.691  13.310  64.026  1.00  0.00    -0.659 OA 
ENDROOT
BRANCH   2   3
HETATM    3  C   UNL     1     -12.619  13.686  65.399  1.00  0.00    -0.491 C  
BRANCH   3   4
HETATM    4  C   UNL     1     -11.346  14.489  65.635  1.00  0.00    -0.336 C  
BRANCH   4   5
HETATM    5  C   UNL     1     -11.261  15.013  67.069  1.00  0.00    -0.328 C  
BRANCH   5   6
HETATM    6  O   UNL     1     -10.565  14.049  67.875  1.00  0.00    -0.239 OA 
BRANCH   6   7
HETATM    7  C   UNL     1     -11.303  13.507  68.902  1.00  0.00    -0.289 A  
HETATM    8  C   UNL     1     -11.525  12.117  68.882  1.00  0.00    -0.350 A  
HETATM    9  C   UNL     1     -11.059  11.293  67.714  1.00  0.00    -0.328 C  
HETATM   10  C   UNL     1     -12.148  11.538  70.001  1.00  0.00    -0.331 A  
HETATM   11  C   UNL     1     -11.833  14.279  69.932  1.00  0.00    -0.382 A  
HETATM   12  N   UNL     1     -12.618  12.295  71.034  1.00  0.00    -0.326 NA 
HETATM   13  C   UNL     1     -12.486  13.634  70.959  1.00  0.00    -0.377 A  
BRANCH  10  14
HETATM   14  C   UNL     1     -12.250  10.040  70.218  1.00  0.00    -0.112 C  
BRANCH  14  15
HETATM   15  S   UNL     1     -12.573   9.637  71.952  1.00  0.00    -0.385 S  
HETATM   16  O   UNL     1     -14.013   9.312  72.221  1.00  0.00    -0.440 OA 
BRANCH  15  17
HETATM   17  C   UNL     1     -11.710   8.138  72.096  1.00  0.00    -0.359 A  
HETATM   18  N   UNL     1     -11.455   7.495  73.215  1.00  0.00    -0.632 NA 
HETATM   19  C   UNL     1     -10.855   6.318  72.827  1.00  0.00    -0.252 A  
HETATM   20  H   UNL     1     -11.657   7.803  74.166  1.00  0.00     0.000 HD 
HETATM   21  C   UNL     1     -10.378   5.253  73.607  1.00  0.00    -0.264 A  
HETATM   22  C   UNL     1      -9.861   4.122  72.962  1.00  0.00    -0.178 A  
HETATM   23  C   UNL     1      -9.818   4.050  71.567  1.00  0.00    -0.251 A  
HETATM   24  C   UNL     1     -10.264   5.112  70.771  1.00  0.00    -0.308 A  
HETATM   25  C   UNL     1     -10.764   6.234  71.441  1.00  0.00    -0.248 A  
HETATM   26  N   UNL     1     -11.262   7.435  71.003  1.00  0.00    -0.258 NA 
ENDBRANCH  15  17
ENDBRANCH  14  15
ENDBRANCH  10  14
ENDBRANCH   6   7
ENDBRANCH   5   6
ENDBRANCH   4   5
ENDBRANCH   3   4
ENDBRANCH   2   3
TORSDOF 8
ENDMDL
MODEL       20
REMARK 921   NORMALIZED FREE ENERGY PREDICTED BY IDOCK:   -5.84 KCAL/MOL
REMARK 922        TOTAL FREE ENERGY PREDICTED BY IDOCK:   -9.44 KCAL/MOL
REMARK 923 INTER-LIGAND FREE ENERGY PREDICTED BY IDOCK:   -8.75 KCAL/MOL
REMARK 924 INTRA-LIGAND FREE ENERGY PREDICTED BY IDOCK:   -0.69 KCAL/MOL
REMARK 927      BINDING AFFINITY PREDICTED BY RF-SCORE:    0.00 PKD
ROOT
HETATM    1  C   UNL     1     -12.111  13.030  63.565  1.00  0.00    -0.542 C  
HETATM    2  O   UNL     1     -12.653  13.740  64.672  1.00  0.00    -0.609 OA 
ENDROOT
BRANCH   2   3
HETATM    3  C   UNL     1     -12.266  13.167  65.919  1.00  0.00    -0.436 C  
BRANCH   3   4
HETATM    4  C   UNL     1     -11.381  14.153  66.673  1.00  0.00    -0.352 C  
BRANCH   4   5
HETATM    5  C   UNL     1     -11.906  14.425  68.082  1.00  0.00    -0.327 C  
BRANCH   5   6
HETATM    6  O   UNL     1     -11.169  13.619  69.016  1.00  0.00    -0.253 OA 
BRANCH   6   7
HETATM    7  C   UNL     1     -11.933  12.991  69.972  1.00  0.00    -0.312 A  
HETATM    8  C   UNL     1     -12.106  11.598  69.857  1.00  0.00    -0.373 A  
HETATM    9  C   UNL     1     -11.561  10.864  68.663  1.00  0.00    -0.373 C  
HETATM   10  C   UNL     1     -12.759  10.930  70.909  1.00  0.00    -0.370 A  
HETATM   11  C   UNL     1     -12.534  13.678  71.023  1.00  0.00    -0.456 A  
HETATM   12  N   UNL     1     -13.299  11.606  71.963  1.00  0.00    -0.429 NA 
HETATM   13  C   UNL     1     -13.210  12.951  71.977  1.00  0.00    -0.448 A  
BRANCH  10  14
HETATM   14  C   UNL     1     -12.819   9.420  71.029  1.00  0.00    -0.180 C  
BRANCH  14  15
HETATM   15  S   UNL     1     -11.251   8.733  71.614  1.00  0.00    -0.350 S  
HETATM   16  O   UNL     1     -11.377   8.020  72.929  1.00  0.00    -0.408 OA 
BRANCH  15  17
HETATM   17  C   UNL     1     -10.980   7.498  70.424  1.00  0.00    -0.251 A  
HETATM   18  N   UNL     1     -11.256   7.586  69.141  1.00  0.00    -0.424 NA 
HETATM   19  C   UNL     1     -10.770   6.423  68.587  1.00  0.00    -0.285 A  
HETATM   20  H   UNL     1     -11.730   8.351  68.659  1.00  0.00     0.000 HD 
HETATM   21  C   UNL     1     -10.789   5.988  67.253  1.00  0.00    -0.403 A  
HETATM   22  C   UNL     1     -10.160   4.778  66.929  1.00  0.00    -0.246 A  
HETATM   23  C   UNL     1      -9.528   4.013  67.913  1.00  0.00    -0.225 A  
HETATM   24  C   UNL     1      -9.522   4.417  69.253  1.00  0.00    -0.249 A  
HETATM   25  C   UNL     1     -10.165   5.622  69.551  1.00  0.00    -0.250 A  
HETATM   26  N   UNL     1     -10.368   6.306  70.723  1.00  0.00    -0.200 NA 
ENDBRANCH  15  17
ENDBRANCH  14  15
ENDBRANCH  10  14
ENDBRANCH   6   7
ENDBRANCH   5   6
ENDBRANCH   4   5
ENDBRANCH   3   4
ENDBRANCH   2   3
TORSDOF 8
ENDMDL
MODEL       21
REMARK 921   NORMALIZED FREE ENERGY PREDICTED BY IDOCK:   -5.81 KCAL/MOL
REMARK 922        TOTAL FREE ENERGY PREDICTED BY IDOCK:   -9.39 KCAL/MOL
REMARK 923 INTER-LIGAND FREE ENERGY PREDICTED BY IDOCK:   -8.43 KCAL/MOL
REMARK 924 INTRA-LIGAND FREE ENERGY PREDICTED BY IDOCK:   -0.96 KCAL/MOL
REMARK 927      BINDING AFFINITY PREDICTED BY RF-SCORE:    0.00 PKD
ROOT
HETATM    1  C   UNL     1      -5.514  10.303  63.138  1.00  0.00    -0.136 C  
HETATM    2  O   UNL     1      -5.556  10.670  64.511  1.00  0.00    -0.137 OA 
ENDROOT
BRANCH   2   3
HETATM    3  C   UNL     1      -6.702  10.139  65.173  1.00  0.00    -0.131 C  
BRANCH   3   4
HETATM    4  C   UNL     1      -7.822   9.938  64.159  1.00  0.00    -0.142 C  
BRANCH   4   5
HETATM    5  C   UNL     1      -9.097   9.411  64.816  1.00  0.00    -0.193 C  
BRANCH   5   6
HETATM    6  O   UNL     1     -10.147  10.372  64.630  1.00  0.00    -0.345 OA 
BRANCH   6   7
HETATM    7  C   UNL     1     -10.472  11.104  65.749  1.00  0.00    -0.246 A  
HETATM    8  C   UNL     1     -10.628  12.495  65.596  1.00  0.00    -0.298 A  
HETATM    9  C   UNL     1     -10.335  13.148  64.274  1.00  0.00    -0.361 C  
HETATM   10  C   UNL     1     -11.104  13.225  66.700  1.00  0.00    -0.291 A  
HETATM   11  C   UNL     1     -10.638  10.522  67.004  1.00  0.00    -0.310 A  
HETATM   12  N   UNL     1     -11.317  12.638  67.912  1.00  0.00    -0.268 NA 
HETATM   13  C   UNL     1     -11.045  11.325  68.046  1.00  0.00    -0.266 A  
BRANCH  10  14
HETATM   14  C   UNL     1     -11.530  14.679  66.618  1.00  0.00    -0.357 C  
BRANCH  14  15
HETATM   15  S   UNL     1     -10.470  15.744  67.625  1.00  0.00    -0.288 S  
HETATM   16  O   UNL     1     -10.409  17.156  67.121  1.00  0.00    -0.303 OA 
BRANCH  15  17
HETATM   17  C   UNL     1     -11.386  15.802  69.098  1.00  0.00    -0.349 A  
HETATM   18  N   UNL     1     -12.618  15.370  69.263  1.00  0.00    -0.541 NA 
HETATM   19  C   UNL     1     -12.877  15.519  70.607  1.00  0.00    -0.413 A  
HETATM   20  H   UNL     1     -13.247  15.005  68.547  1.00  0.00     0.000 HD 
HETATM   21  C   UNL     1     -14.036  15.215  71.336  1.00  0.00    -0.598 A  
HETATM   22  C   UNL     1     -14.027  15.400  72.726  1.00  0.00    -0.519 A  
HETATM   23  C   UNL     1     -12.887  15.879  73.377  1.00  0.00    -0.688 A  
HETATM   24  C   UNL     1     -11.730  16.214  72.663  1.00  0.00    -0.493 A  
HETATM   25  C   UNL     1     -11.770  16.031  71.277  1.00  0.00    -0.461 A  
HETATM   26  N   UNL     1     -10.855  16.258  70.280  1.00  0.00    -0.298 NA 
ENDBRANCH  15  17
ENDBRANCH  14  15
ENDBRANCH  10  14
ENDBRANCH   6   7
ENDBRANCH   5   6
ENDBRANCH   4   5
ENDBRANCH   3   4
ENDBRANCH   2   3
TORSDOF 8
ENDMDL
MODEL       22
REMARK 921   NORMALIZED FREE ENERGY PREDICTED BY IDOCK:   -5.77 KCAL/MOL
REMARK 922        TOTAL FREE ENERGY PREDICTED BY IDOCK:   -9.35 KCAL/MOL
REMARK 923 INTER-LIGAND FREE ENERGY PREDICTED BY IDOCK:   -8.65 KCAL/MOL
REMARK 924 INTRA-LIGAND FREE ENERGY PREDICTED BY IDOCK:   -0.69 KCAL/MOL
REMARK 927      BINDING AFFINITY PREDICTED BY RF-SCORE:    0.00 PKD
ROOT
HETATM    1  C   UNL     1     -12.215  12.587  63.430  1.00  0.00    -0.517 C  
HETATM    2  O   UNL     1     -12.701  13.821  63.944  1.00  0.00    -0.673 OA 
ENDROOT
BRANCH   2   3
HETATM    3  C   UNL     1     -12.550  13.909  65.360  1.00  0.00    -0.507 C  
BRANCH   3   4
HETATM    4  C   UNL     1     -12.064  12.569  65.898  1.00  0.00    -0.420 C  
BRANCH   4   5
HETATM    5  C   UNL     1     -11.563  12.682  67.338  1.00  0.00    -0.360 C  
BRANCH   5   6
HETATM    6  O   UNL     1     -12.140  11.621  68.115  1.00  0.00    -0.577 OA 
BRANCH   6   7
HETATM    7  C   UNL     1     -11.233  10.754  68.681  1.00  0.00    -0.274 A  
HETATM    8  C   UNL     1     -11.428  10.396  70.030  1.00  0.00    -0.382 A  
HETATM    9  C   UNL     1     -12.526  11.037  70.831  1.00  0.00    -0.509 C  
HETATM   10  C   UNL     1     -10.594   9.400  70.568  1.00  0.00    -0.271 A  
HETATM   11  C   UNL     1     -10.147  10.240  67.978  1.00  0.00    -0.189 A  
HETATM   12  N   UNL     1      -9.565   8.860  69.855  1.00  0.00    -0.172 NA 
HETATM   13  C   UNL     1      -9.343   9.315  68.605  1.00  0.00    -0.139 A  
BRANCH  10  14
HETATM   14  C   UNL     1     -10.829   8.759  71.923  1.00  0.00    -0.360 C  
BRANCH  14  15
HETATM   15  S   UNL     1     -12.051   7.429  71.829  1.00  0.00    -0.326 S  
HETATM   16  O   UNL     1     -13.412   7.909  71.416  1.00  0.00    -0.312 OA 
BRANCH  15  17
HETATM   17  C   UNL     1     -11.435   6.523  70.483  1.00  0.00    -0.387 A  
HETATM   18  N   UNL     1     -11.701   6.745  69.214  1.00  0.00    -0.605 NA 
HETATM   19  C   UNL     1     -10.907   5.860  68.519  1.00  0.00    -0.248 A  
HETATM   20  H   UNL     1     -12.355   7.425  68.827  1.00  0.00     0.000 HD 
HETATM   21  C   UNL     1     -10.783   5.661  67.135  1.00  0.00    -0.316 A  
HETATM   22  C   UNL     1      -9.845   4.731  66.668  1.00  0.00    -0.233 A  
HETATM   23  C   UNL     1      -9.046   4.010  67.560  1.00  0.00    -0.168 A  
HETATM   24  C   UNL     1      -9.174   4.174  68.945  1.00  0.00    -0.208 A  
HETATM   25  C   UNL     1     -10.126   5.100  69.384  1.00  0.00    -0.234 A  
HETATM   26  N   UNL     1     -10.527   5.503  70.632  1.00  0.00    -0.266 NA 
ENDBRANCH  15  17
ENDBRANCH  14  15
ENDBRANCH  10  14
ENDBRANCH   6   7
ENDBRANCH   5   6
ENDBRANCH   4   5
ENDBRANCH   3   4
ENDBRANCH   2   3
TORSDOF 8
ENDMDL
MODEL       23
REMARK 921   NORMALIZED FREE ENERGY PREDICTED BY IDOCK:   -5.77 KCAL/MOL
REMARK 922        TOTAL FREE ENERGY PREDICTED BY IDOCK:   -9.34 KCAL/MOL
REMARK 923 INTER-LIGAND FREE ENERGY PREDICTED BY IDOCK:   -8.76 KCAL/MOL
REMARK 924 INTRA-LIGAND FREE ENERGY PREDICTED BY IDOCK:   -0.59 KCAL/MOL
REMARK 927      BINDING AFFINITY PREDICTED BY RF-SCORE:    0.00 PKD
ROOT
HETATM    1  C   UNL     1     -11.458   6.474  70.261  1.00  0.00    -0.411 C  
HETATM    2  O   UNL     1     -10.838   7.183  69.195  1.00  0.00    -0.216 OA 
ENDROOT
BRANCH   2   3
HETATM    3  C   UNL     1     -11.026   6.534  67.939  1.00  0.00    -0.294 C  
BRANCH   3   4
HETATM    4  C   UNL     1     -10.486   7.426  66.827  1.00  0.00    -0.316 C  
BRANCH   4   5
HETATM    5  C   UNL     1     -10.109   8.814  67.343  1.00  0.00    -0.226 C  
BRANCH   5   6
HETATM    6  O   UNL     1     -10.592   9.801  66.419  1.00  0.00    -0.159 OA 
BRANCH   6   7
HETATM    7  C   UNL     1     -10.934  11.009  66.983  1.00  0.00    -0.272 A  
HETATM    8  C   UNL     1     -11.355  12.037  66.117  1.00  0.00    -0.407 A  
HETATM    9  C   UNL     1     -11.316  11.834  64.628  1.00  0.00    -0.320 C  
HETATM   10  C   UNL     1     -11.846  13.220  66.696  1.00  0.00    -0.395 A  
HETATM   11  C   UNL     1     -10.869  11.242  68.354  1.00  0.00    -0.248 A  
HETATM   12  N   UNL     1     -11.830  13.420  68.045  1.00  0.00    -0.355 NA 
HETATM   13  C   UNL     1     -11.312  12.455  68.831  1.00  0.00    -0.294 A  
BRANCH  10  14
HETATM   14  C   UNL     1     -12.536  14.314  65.904  1.00  0.00    -0.383 C  
BRANCH  14  15
HETATM   15  S   UNL     1     -11.379  15.185  64.821  1.00  0.00    -0.351 S  
HETATM   16  O   UNL     1     -12.034  15.750  63.594  1.00  0.00    -0.504 OA 
BRANCH  15  17
HETATM   17  C   UNL     1     -10.974  16.547  65.818  1.00  0.00    -0.010 A  
HETATM   18  N   UNL     1     -10.671  16.508  67.097  1.00  0.00    -0.270 NA 
HETATM   19  C   UNL     1     -10.318  17.797  67.425  1.00  0.00    -0.369 A  
HETATM   20  H   UNL     1     -10.694  15.696  67.715  1.00  0.00     0.000 HD 
HETATM   21  C   UNL     1      -9.903  18.329  68.656  1.00  0.00    -0.400 A  
HETATM   22  C   UNL     1      -9.531  19.679  68.716  1.00  0.00    -0.402 A  
HETATM   23  C   UNL     1      -9.573  20.486  67.576  1.00  0.00    -0.545 A  
HETATM   24  C   UNL     1     -10.010  19.980  66.345  1.00  0.00    -0.601 A  
HETATM   25  C   UNL     1     -10.386  18.634  66.315  1.00  0.00    -0.444 A  
HETATM   26  N   UNL     1     -10.865  17.822  65.318  1.00  0.00    -0.565 NA 
ENDBRANCH  15  17
ENDBRANCH  14  15
ENDBRANCH  10  14
ENDBRANCH   6   7
ENDBRANCH   5   6
ENDBRANCH   4   5
ENDBRANCH   3   4
ENDBRANCH   2   3
TORSDOF 8
ENDMDL
MODEL       24
REMARK 921   NORMALIZED FREE ENERGY PREDICTED BY IDOCK:   -5.76 KCAL/MOL
REMARK 922        TOTAL FREE ENERGY PREDICTED BY IDOCK:   -9.33 KCAL/MOL
REMARK 923 INTER-LIGAND FREE ENERGY PREDICTED BY IDOCK:   -8.48 KCAL/MOL
REMARK 924 INTRA-LIGAND FREE ENERGY PREDICTED BY IDOCK:   -0.85 KCAL/MOL
REMARK 927      BINDING AFFINITY PREDICTED BY RF-SCORE:    0.00 PKD
ROOT
HETATM    1  C   UNL     1     -14.278  14.561  72.169  1.00  0.00    -0.531 C  
HETATM    2  O   UNL     1     -13.979  13.218  72.528  1.00  0.00    -0.701 OA 
ENDROOT
BRANCH   2   3
HETATM    3  C   UNL     1     -13.048  12.617  71.630  1.00  0.00    -0.323 C  
BRANCH   3   4
HETATM    4  C   UNL     1     -13.124  11.101  71.769  1.00  0.00    -0.536 C  
BRANCH   4   5
HETATM    5  C   UNL     1     -12.267  10.391  70.721  1.00  0.00    -0.359 C  
BRANCH   5   6
HETATM    6  O   UNL     1     -12.603  10.903  69.421  1.00  0.00    -0.335 OA 
BRANCH   6   7
HETATM    7  C   UNL     1     -11.569  10.914  68.514  1.00  0.00    -0.290 A  
HETATM    8  C   UNL     1     -11.214  12.152  67.945  1.00  0.00    -0.329 A  
HETATM    9  C   UNL     1     -12.023  13.383  68.247  1.00  0.00    -0.352 C  
HETATM   10  C   UNL     1     -10.067  12.194  67.133  1.00  0.00    -0.206 A  
HETATM   11  C   UNL     1     -10.884   9.760  68.144  1.00  0.00    -0.264 A  
HETATM   12  N   UNL     1      -9.367  11.067  66.818  1.00  0.00    -0.179 NA 
HETATM   13  C   UNL     1      -9.809   9.885  67.292  1.00  0.00    -0.182 A  
BRANCH  10  14
HETATM   14  C   UNL     1      -9.441  13.485  66.639  1.00  0.00    -0.265 C  
BRANCH  14  15
HETATM   15  S   UNL     1      -8.411  14.257  67.909  1.00  0.00    -0.177 S  
HETATM   16  O   UNL     1      -6.953  14.275  67.553  1.00  0.00    -0.180 OA 
BRANCH  15  17
HETATM   17  C   UNL     1      -8.951  15.903  67.799  1.00  0.00    -0.176 A  
HETATM   18  N   UNL     1      -8.703  16.859  68.668  1.00  0.00    -0.260 NA 
HETATM   19  C   UNL     1      -9.231  18.001  68.109  1.00  0.00    -0.279 A  
HETATM   20  H   UNL     1      -8.223  16.773  69.564  1.00  0.00     0.000 HD 
HETATM   21  C   UNL     1      -9.250  19.316  68.601  1.00  0.00    -0.436 A  
HETATM   22  C   UNL     1      -9.798  20.328  67.800  1.00  0.00    -0.534 A  
HETATM   23  C   UNL     1     -10.319  20.038  66.536  1.00  0.00    -0.572 A  
HETATM   24  C   UNL     1     -10.334  18.729  66.040  1.00  0.00    -0.467 A  
HETATM   25  C   UNL     1      -9.792  17.737  66.863  1.00  0.00    -0.312 A  
HETATM   26  N   UNL     1      -9.652  16.380  66.719  1.00  0.00    -0.238 NA 
ENDBRANCH  15  17
ENDBRANCH  14  15
ENDBRANCH  10  14
ENDBRANCH   6   7
ENDBRANCH   5   6
ENDBRANCH   4   5
ENDBRANCH   3   4
ENDBRANCH   2   3
TORSDOF 8
ENDMDL
MODEL       25
REMARK 921   NORMALIZED FREE ENERGY PREDICTED BY IDOCK:   -5.70 KCAL/MOL
REMARK 922        TOTAL FREE ENERGY PREDICTED BY IDOCK:   -9.24 KCAL/MOL
REMARK 923 INTER-LIGAND FREE ENERGY PREDICTED BY IDOCK:   -8.60 KCAL/MOL
REMARK 924 INTRA-LIGAND FREE ENERGY PREDICTED BY IDOCK:   -0.64 KCAL/MOL
REMARK 927      BINDING AFFINITY PREDICTED BY RF-SCORE:    0.00 PKD
ROOT
HETATM    1  C   UNL     1      -5.719   8.461  64.365  1.00  0.00    -0.060 C  
HETATM    2  O   UNL     1      -6.467   7.504  63.625  1.00  0.00    -0.052 OA 
ENDROOT
BRANCH   2   3
HETATM    3  C   UNL     1      -7.816   7.920  63.421  1.00  0.00    -0.139 C  
BRANCH   3   4
HETATM    4  C   UNL     1      -7.825   9.261  62.698  1.00  0.00    -0.122 C  
BRANCH   4   5
HETATM    5  C   UNL     1      -9.223   9.879  62.663  1.00  0.00    -0.273 C  
BRANCH   5   6
HETATM    6  O   UNL     1      -9.169  11.184  63.262  1.00  0.00    -0.251 OA 
BRANCH   6   7
HETATM    7  C   UNL     1     -10.318  11.574  63.911  1.00  0.00    -0.371 A  
HETATM    8  C   UNL     1     -10.282  11.640  65.317  1.00  0.00    -0.316 A  
HETATM    9  C   UNL     1      -9.059  11.187  66.064  1.00  0.00    -0.217 C  
HETATM   10  C   UNL     1     -11.402  12.179  65.975  1.00  0.00    -0.358 A  
HETATM   11  C   UNL     1     -11.492  11.891  63.232  1.00  0.00    -0.376 A  
HETATM   12  N   UNL     1     -12.529  12.538  65.298  1.00  0.00    -0.647 NA 
HETATM   13  C   UNL     1     -12.563  12.352  63.964  1.00  0.00    -0.412 A  
BRANCH  10  14
HETATM   14  C   UNL     1     -11.417  12.517  67.454  1.00  0.00    -0.341 C  
BRANCH  14  15
HETATM   15  S   UNL     1     -10.477  14.021  67.806  1.00  0.00    -0.237 S  
HETATM   16  O   UNL     1     -10.630  15.072  66.745  1.00  0.00    -0.289 OA 
BRANCH  15  17
HETATM   17  C   UNL     1     -11.333  14.615  69.194  1.00  0.00    -0.281 A  
HETATM   18  N   UNL     1     -12.638  14.609  69.360  1.00  0.00    -0.572 NA 
HETATM   19  C   UNL     1     -12.842  15.068  70.642  1.00  0.00    -0.363 A  
HETATM   20  H   UNL     1     -13.348  14.327  68.683  1.00  0.00     0.000 HD 
HETATM   21  C   UNL     1     -14.040  15.262  71.346  1.00  0.00    -0.595 A  
HETATM   22  C   UNL     1     -13.977  15.682  72.682  1.00  0.00    -0.608 A  
HETATM   23  C   UNL     1     -12.746  15.907  73.305  1.00  0.00    -0.650 A  
HETATM   24  C   UNL     1     -11.541  15.745  72.611  1.00  0.00    -0.446 A  
HETATM   25  C   UNL     1     -11.633  15.336  71.277  1.00  0.00    -0.380 A  
HETATM   26  N   UNL     1     -10.691  15.095  70.309  1.00  0.00    -0.241 NA 
ENDBRANCH  15  17
ENDBRANCH  14  15
ENDBRANCH  10  14
ENDBRANCH   6   7
ENDBRANCH   5   6
ENDBRANCH   4   5
ENDBRANCH   3   4
ENDBRANCH   2   3
TORSDOF 8
ENDMDL
MODEL       26
REMARK 921   NORMALIZED FREE ENERGY PREDICTED BY IDOCK:   -5.69 KCAL/MOL
REMARK 922        TOTAL FREE ENERGY PREDICTED BY IDOCK:   -9.23 KCAL/MOL
REMARK 923 INTER-LIGAND FREE ENERGY PREDICTED BY IDOCK:   -8.58 KCAL/MOL
REMARK 924 INTRA-LIGAND FREE ENERGY PREDICTED BY IDOCK:   -0.65 KCAL/MOL
REMARK 927      BINDING AFFINITY PREDICTED BY RF-SCORE:    0.00 PKD
ROOT
HETATM    1  C   UNL     1      -9.106  17.408  66.632  1.00  0.00    -0.258 C  
HETATM    2  O   UNL     1     -10.133  18.122  67.310  1.00  0.00    -0.317 OA 
ENDROOT
BRANCH   2   3
HETATM    3  C   UNL     1     -10.059  17.955  68.724  1.00  0.00    -0.384 C  
BRANCH   3   4
HETATM    4  C   UNL     1     -10.084  16.468  69.058  1.00  0.00    -0.279 C  
BRANCH   4   5
HETATM    5  C   UNL     1     -11.132  16.141  70.120  1.00  0.00    -0.371 C  
BRANCH   5   6
HETATM    6  O   UNL     1     -12.128  15.283  69.541  1.00  0.00    -0.318 OA 
BRANCH   6   7
HETATM    7  C   UNL     1     -12.611  14.303  70.378  1.00  0.00    -0.343 A  
HETATM    8  C   UNL     1     -12.272  12.968  70.083  1.00  0.00    -0.342 A  
HETATM    9  C   UNL     1     -11.506  12.642  68.832  1.00  0.00    -0.354 C  
HETATM   10  C   UNL     1     -12.637  11.980  71.014  1.00  0.00    -0.273 A  
HETATM   11  C   UNL     1     -13.415  14.586  71.479  1.00  0.00    -0.449 A  
HETATM   12  N   UNL     1     -13.379  12.273  72.120  1.00  0.00    -0.484 NA 
HETATM   13  C   UNL     1     -13.779  13.547  72.305  1.00  0.00    -0.602 A  
BRANCH  10  14
HETATM   14  C   UNL     1     -12.150  10.545  70.942  1.00  0.00    -0.383 C  
BRANCH  14  15
HETATM   15  S   UNL     1     -13.064   9.471  72.075  1.00  0.00    -0.450 S  
HETATM   16  O   UNL     1     -14.339   8.943  71.483  1.00  0.00    -0.325 OA 
BRANCH  15  17
HETATM   17  C   UNL     1     -11.983   8.116  72.170  1.00  0.00    -0.359 A  
HETATM   18  N   UNL     1     -11.435   7.639  73.267  1.00  0.00    -0.638 NA 
HETATM   19  C   UNL     1     -10.756   6.509  72.869  1.00  0.00    -0.251 A  
HETATM   20  H   UNL     1     -11.499   8.023  74.210  1.00  0.00     0.000 HD 
HETATM   21  C   UNL     1      -9.994   5.606  73.626  1.00  0.00    -0.190 A  
HETATM   22  C   UNL     1      -9.450   4.482  72.989  1.00  0.00    -0.149 A  
HETATM   23  C   UNL     1      -9.658   4.261  71.625  1.00  0.00    -0.228 A  
HETATM   24  C   UNL     1     -10.392   5.165  70.847  1.00  0.00    -0.282 A  
HETATM   25  C   UNL     1     -10.914   6.283  71.505  1.00  0.00    -0.271 A  
HETATM   26  N   UNL     1     -11.651   7.358  71.075  1.00  0.00    -0.281 NA 
ENDBRANCH  15  17
ENDBRANCH  14  15
ENDBRANCH  10  14
ENDBRANCH   6   7
ENDBRANCH   5   6
ENDBRANCH   4   5
ENDBRANCH   3   4
ENDBRANCH   2   3
TORSDOF 8
ENDMDL
MODEL       27
REMARK 921   NORMALIZED FREE ENERGY PREDICTED BY IDOCK:   -5.67 KCAL/MOL
REMARK 922        TOTAL FREE ENERGY PREDICTED BY IDOCK:   -9.19 KCAL/MOL
REMARK 923 INTER-LIGAND FREE ENERGY PREDICTED BY IDOCK:   -8.09 KCAL/MOL
REMARK 924 INTRA-LIGAND FREE ENERGY PREDICTED BY IDOCK:   -1.10 KCAL/MOL
REMARK 927      BINDING AFFINITY PREDICTED BY RF-SCORE:    0.00 PKD
ROOT
HETATM    1  C   UNL     1     -12.623  16.049  74.301  1.00  0.00    -0.546 C  
HETATM    2  O   UNL     1     -13.420  16.390  73.174  1.00  0.00    -0.318 OA 
ENDROOT
BRANCH   2   3
HETATM    3  C   UNL     1     -13.480  15.332  72.219  1.00  0.00    -0.450 C  
BRANCH   3   4
HETATM    4  C   UNL     1     -13.216  14.005  72.920  1.00  0.00    -0.502 C  
BRANCH   4   5
HETATM    5  C   UNL     1     -12.837  12.904  71.931  1.00  0.00    -0.210 C  
BRANCH   5   6
HETATM    6  O   UNL     1     -12.050  13.478  70.875  1.00  0.00    -0.332 OA 
BRANCH   6   7
HETATM    7  C   UNL     1     -12.006  12.742  69.714  1.00  0.00    -0.292 A  
HETATM    8  C   UNL     1     -12.152  13.434  68.496  1.00  0.00    -0.283 A  
HETATM    9  C   UNL     1     -12.456  14.906  68.495  1.00  0.00     0.231 C  
HETATM   10  C   UNL     1     -11.960  12.711  67.306  1.00  0.00    -0.253 A  
HETATM   11  C   UNL     1     -11.835  11.360  69.709  1.00  0.00    -0.435 A  
HETATM   12  N   UNL     1     -11.738  11.365  67.310  1.00  0.00    -0.583 NA 
HETATM   13  C   UNL     1     -11.720  10.722  68.494  1.00  0.00    -0.189 A  
BRANCH  10  14
HETATM   14  C   UNL     1     -11.864  13.362  65.940  1.00  0.00    -0.376 C  
BRANCH  14  15
HETATM   15  S   UNL     1     -10.147  13.696  65.478  1.00  0.00    -0.242 S  
HETATM   16  O   UNL     1      -9.911  13.617  63.997  1.00  0.00     0.016 OA 
BRANCH  15  17
HETATM   17  C   UNL     1     -10.028  15.378  65.892  1.00  0.00    -0.346 A  
HETATM   18  N   UNL     1     -10.590  16.377  65.247  1.00  0.00    -0.609 NA 
HETATM   19  C   UNL     1     -10.312  17.495  66.000  1.00  0.00    -0.306 A  
HETATM   20  H   UNL     1     -11.118  16.332  64.375  1.00  0.00     0.000 HD 
HETATM   21  C   UNL     1     -10.671  18.835  65.783  1.00  0.00    -0.263 A  
HETATM   22  C   UNL     1     -10.317  19.792  66.744  1.00  0.00    -0.604 A  
HETATM   23  C   UNL     1      -9.620  19.425  67.898  1.00  0.00    -0.428 A  
HETATM   24  C   UNL     1      -9.229  18.098  68.119  1.00  0.00    -0.298 A  
HETATM   25  C   UNL     1      -9.584  17.165  67.139  1.00  0.00    -0.255 A  
HETATM   26  N   UNL     1      -9.366  15.817  67.013  1.00  0.00    -0.214 NA 
ENDBRANCH  15  17
ENDBRANCH  14  15
ENDBRANCH  10  14
ENDBRANCH   6   7
ENDBRANCH   5   6
ENDBRANCH   4   5
ENDBRANCH   3   4
ENDBRANCH   2   3
TORSDOF 8
ENDMDL
MODEL       28
REMARK 921   NORMALIZED FREE ENERGY PREDICTED BY IDOCK:   -5.65 KCAL/MOL
REMARK 922        TOTAL FREE ENERGY PREDICTED BY IDOCK:   -9.16 KCAL/MOL
REMARK 923 INTER-LIGAND FREE ENERGY PREDICTED BY IDOCK:   -8.73 KCAL/MOL
REMARK 924 INTRA-LIGAND FREE ENERGY PREDICTED BY IDOCK:   -0.42 KCAL/MOL
REMARK 927      BINDING AFFINITY PREDICTED BY RF-SCORE:    0.00 PKD
ROOT
HETATM    1  C   UNL     1      -8.524   9.497  62.876  1.00  0.00    -0.192 C  
HETATM    2  O   UNL     1      -8.713  10.792  63.432  1.00  0.00    -0.172 OA 
ENDROOT
BRANCH   2   3
HETATM    3  C   UNL     1      -9.867  11.440  62.902  1.00  0.00    -0.284 C  
BRANCH   3   4
HETATM    4  C   UNL     1     -11.048  11.207  63.837  1.00  0.00    -0.168 C  
BRANCH   4   5
HETATM    5  C   UNL     1     -12.280  12.004  63.408  1.00  0.00    -0.519 C  
BRANCH   5   6
HETATM    6  O   UNL     1     -12.788  12.721  64.544  1.00  0.00    -0.701 OA 
BRANCH   6   7
HETATM    7  C   UNL     1     -12.134  13.898  64.830  1.00  0.00    -0.414 A  
HETATM    8  C   UNL     1     -11.429  13.973  66.047  1.00  0.00    -0.340 A  
HETATM    9  C   UNL     1     -11.495  12.839  67.030  1.00  0.00    -0.397 C  
HETATM   10  C   UNL     1     -10.640  15.114  66.275  1.00  0.00    -0.310 A  
HETATM   11  C   UNL     1     -12.158  14.996  63.974  1.00  0.00    -0.119 A  
HETATM   12  N   UNL     1     -10.625  16.165  65.405  1.00  0.00    -0.473 NA 
HETATM   13  C   UNL     1     -11.405  16.099  64.308  1.00  0.00    -0.088 A  
BRANCH  10  14
HETATM   14  C   UNL     1      -9.659  15.234  67.426  1.00  0.00    -0.207 C  
BRANCH  14  15
HETATM   15  S   UNL     1      -9.972  16.711  68.421  1.00  0.00    -0.269 S  
HETATM   16  O   UNL     1     -10.883  17.694  67.744  1.00  0.00    -0.367 OA 
BRANCH  15  17
HETATM   17  C   UNL     1     -10.891  16.028  69.725  1.00  0.00    -0.337 A  
HETATM   18  N   UNL     1     -11.334  16.673  70.783  1.00  0.00    -0.450 NA 
HETATM   19  C   UNL     1     -12.095  15.757  71.473  1.00  0.00    -0.454 A  
HETATM   20  H   UNL     1     -11.152  17.644  71.037  1.00  0.00     0.000 HD 
HETATM   21  C   UNL     1     -12.807  15.904  72.673  1.00  0.00    -0.548 A  
HETATM   22  C   UNL     1     -13.569  14.825  73.142  1.00  0.00    -0.212 A  
HETATM   23  C   UNL     1     -13.619  13.622  72.434  1.00  0.00    -0.703 A  
HETATM   24  C   UNL     1     -12.894  13.446  71.249  1.00  0.00    -0.407 A  
HETATM   25  C   UNL     1     -12.134  14.535  70.809  1.00  0.00    -0.329 A  
HETATM   26  N   UNL     1     -11.308  14.719  69.729  1.00  0.00    -0.272 NA 
ENDBRANCH  15  17
ENDBRANCH  14  15
ENDBRANCH  10  14
ENDBRANCH   6   7
ENDBRANCH   5   6
ENDBRANCH   4   5
ENDBRANCH   3   4
ENDBRANCH   2   3
TORSDOF 8
ENDMDL
MODEL       29
REMARK 921   NORMALIZED FREE ENERGY PREDICTED BY IDOCK:   -5.59 KCAL/MOL
REMARK 922        TOTAL FREE ENERGY PREDICTED BY IDOCK:   -9.08 KCAL/MOL
REMARK 923 INTER-LIGAND FREE ENERGY PREDICTED BY IDOCK:   -7.96 KCAL/MOL
REMARK 924 INTRA-LIGAND FREE ENERGY PREDICTED BY IDOCK:   -1.12 KCAL/MOL
REMARK 927      BINDING AFFINITY PREDICTED BY RF-SCORE:    0.00 PKD
ROOT
HETATM    1  C   UNL     1     -12.517  15.821  74.350  1.00  0.00    -0.638 C  
HETATM    2  O   UNL     1     -13.571  16.292  73.521  1.00  0.00    -0.642 OA 
ENDROOT
BRANCH   2   3
HETATM    3  C   UNL     1     -13.908  15.356  72.498  1.00  0.00    -0.553 C  
BRANCH   3   4
HETATM    4  C   UNL     1     -13.315  13.996  72.845  1.00  0.00    -0.487 C  
BRANCH   4   5
HETATM    5  C   UNL     1     -13.507  12.986  71.714  1.00  0.00    -0.314 C  
BRANCH   5   6
HETATM    6  O   UNL     1     -12.427  13.127  70.777  1.00  0.00    -0.349 OA 
BRANCH   6   7
HETATM    7  C   UNL     1     -12.011  11.955  70.188  1.00  0.00    -0.332 A  
HETATM    8  C   UNL     1     -11.753  11.978  68.803  1.00  0.00    -0.377 A  
HETATM    9  C   UNL     1     -12.036  13.217  68.002  1.00  0.00    -0.351 C  
HETATM   10  C   UNL     1     -11.188  10.827  68.224  1.00  0.00    -0.297 A  
HETATM   11  C   UNL     1     -11.852  10.771  70.903  1.00  0.00    -0.400 A  
HETATM   12  N   UNL     1     -10.983   9.687  68.944  1.00  0.00    -0.168 NA 
HETATM   13  C   UNL     1     -11.351   9.672  70.241  1.00  0.00    -0.257 A  
BRANCH  10  14
HETATM   14  C   UNL     1     -10.653  10.784  66.806  1.00  0.00    -0.250 C  
BRANCH  14  15
HETATM   15  S   UNL     1      -8.852  10.947  66.765  1.00  0.00    -0.149 S  
HETATM   16  O   UNL     1      -8.266  10.654  65.415  1.00  0.00    -0.160 OA 
BRANCH  15  17
HETATM   17  C   UNL     1      -8.683  12.659  66.999  1.00  0.00    -0.198 A  
HETATM   18  N   UNL     1      -9.006  13.595  66.133  1.00  0.00    -0.443 NA 
HETATM   19  C   UNL     1      -8.803  14.785  66.794  1.00  0.00    -0.252 A  
HETATM   20  H   UNL     1      -9.335  13.466  65.176  1.00  0.00     0.000 HD 
HETATM   21  C   UNL     1      -8.991  16.103  66.349  1.00  0.00    -0.353 A  
HETATM   22  C   UNL     1      -8.774  17.156  67.249  1.00  0.00    -0.213 A  
HETATM   23  C   UNL     1      -8.377  16.904  68.564  1.00  0.00    -0.257 A  
HETATM   24  C   UNL     1      -8.157  15.598  69.019  1.00  0.00    -0.222 A  
HETATM   25  C   UNL     1      -8.370  14.567  68.099  1.00  0.00    -0.147 A  
HETATM   26  N   UNL     1      -8.244  13.203  68.182  1.00  0.00    -0.153 NA 
ENDBRANCH  15  17
ENDBRANCH  14  15
ENDBRANCH  10  14
ENDBRANCH   6   7
ENDBRANCH   5   6
ENDBRANCH   4   5
ENDBRANCH   3   4
ENDBRANCH   2   3
TORSDOF 8
ENDMDL
MODEL       30
REMARK 921   NORMALIZED FREE ENERGY PREDICTED BY IDOCK:   -5.56 KCAL/MOL
REMARK 922        TOTAL FREE ENERGY PREDICTED BY IDOCK:   -9.03 KCAL/MOL
REMARK 923 INTER-LIGAND FREE ENERGY PREDICTED BY IDOCK:   -7.93 KCAL/MOL
REMARK 924 INTRA-LIGAND FREE ENERGY PREDICTED BY IDOCK:   -1.09 KCAL/MOL
REMARK 927      BINDING AFFINITY PREDICTED BY RF-SCORE:    0.00 PKD
ROOT
HETATM    1  C   UNL     1      -7.852  10.621  66.079  1.00  0.00    -0.156 C  
HETATM    2  O   UNL     1      -9.137  11.057  66.502  1.00  0.00    -0.164 OA 
ENDROOT
BRANCH   2   3
HETATM    3  C   UNL     1     -10.136  10.059  66.302  1.00  0.00    -0.243 C  
BRANCH   3   4
HETATM    4  C   UNL     1      -9.466   8.752  65.894  1.00  0.00    -0.278 C  
BRANCH   4   5
HETATM    5  C   UNL     1      -9.848   7.602  66.825  1.00  0.00    -0.237 C  
BRANCH   5   6
HETATM    6  O   UNL     1      -9.067   7.698  68.027  1.00  0.00    -0.135 OA 
BRANCH   6   7
HETATM    7  C   UNL     1      -9.719   7.318  69.177  1.00  0.00    -0.160 A  
HETATM    8  C   UNL     1     -10.034   8.324  70.111  1.00  0.00    -0.187 A  
HETATM    9  C   UNL     1      -9.565   9.735  69.889  1.00  0.00    -0.269 C  
HETATM   10  C   UNL     1     -10.828   7.965  71.215  1.00  0.00    -0.235 A  
HETATM   11  C   UNL     1     -10.060   5.994  69.443  1.00  0.00    -0.243 A  
HETATM   12  N   UNL     1     -11.205   6.675  71.440  1.00  0.00    -0.261 NA 
HETATM   13  C   UNL     1     -10.785   5.724  70.582  1.00  0.00    -0.281 A  
BRANCH  10  14
HETATM   14  C   UNL     1     -11.428   8.976  72.174  1.00  0.00    -0.258 C  
BRANCH  14  15
HETATM   15  S   UNL     1     -13.164   9.310  71.791  1.00  0.00    -0.431 S  
HETATM   16  O   UNL     1     -14.091   8.968  72.921  1.00  0.00    -0.487 OA 
BRANCH  15  17
HETATM   17  C   UNL     1     -13.141  11.044  71.699  1.00  0.00    -0.438 A  
HETATM   18  N   UNL     1     -13.698  11.872  72.556  1.00  0.00    -0.362 NA 
HETATM   19  C   UNL     1     -13.325  13.130  72.138  1.00  0.00    -0.524 A  
HETATM   20  H   UNL     1     -14.282  11.634  73.358  1.00  0.00     0.000 HD 
HETATM   21  C   UNL     1     -13.632  14.385  72.684  1.00  0.00    -0.589 A  
HETATM   22  C   UNL     1     -13.068  15.530  72.103  1.00  0.00    -0.521 A  
HETATM   23  C   UNL     1     -12.216  15.428  71.000  1.00  0.00    -0.431 A  
HETATM   24  C   UNL     1     -11.920  14.186  70.424  1.00  0.00    -0.400 A  
HETATM   25  C   UNL     1     -12.504  13.062  71.016  1.00  0.00    -0.296 A  
HETATM   26  N   UNL     1     -12.454  11.723  70.723  1.00  0.00    -0.348 NA 
ENDBRANCH  15  17
ENDBRANCH  14  15
ENDBRANCH  10  14
ENDBRANCH   6   7
ENDBRANCH   5   6
ENDBRANCH   4   5
ENDBRANCH   3   4
ENDBRANCH   2   3
TORSDOF 8
ENDMDL
MODEL       31
REMARK 921   NORMALIZED FREE ENERGY PREDICTED BY IDOCK:   -5.54 KCAL/MOL
REMARK 922        TOTAL FREE ENERGY PREDICTED BY IDOCK:   -9.00 KCAL/MOL
REMARK 923 INTER-LIGAND FREE ENERGY PREDICTED BY IDOCK:   -8.55 KCAL/MOL
REMARK 924 INTRA-LIGAND FREE ENERGY PREDICTED BY IDOCK:   -0.45 KCAL/MOL
REMARK 927      BINDING AFFINITY PREDICTED BY RF-SCORE:    0.00 PKD
ROOT
HETATM    1  C   UNL     1      -8.895  10.895  62.341  1.00  0.00    -0.313 C  
HETATM    2  O   UNL     1      -8.854   9.479  62.460  1.00  0.00    -0.215 OA 
ENDROOT
BRANCH   2   3
HETATM    3  C   UNL     1      -7.857   9.046  63.383  1.00  0.00    -0.139 C  
BRANCH   3   4
HETATM    4  C   UNL     1      -8.009   9.818  64.688  1.00  0.00    -0.139 C  
BRANCH   4   5
HETATM    5  C   UNL     1      -8.702   8.984  65.765  1.00  0.00    -0.169 C  
BRANCH   5   6
HETATM    6  O   UNL     1     -10.066   9.418  65.883  1.00  0.00    -0.296 OA 
BRANCH   6   7
HETATM    7  C   UNL     1     -10.249  10.575  66.605  1.00  0.00    -0.233 A  
HETATM    8  C   UNL     1     -10.942  11.631  65.982  1.00  0.00    -0.338 A  
HETATM    9  C   UNL     1     -11.358  11.516  64.542  1.00  0.00    -0.250 C  
HETATM   10  C   UNL     1     -11.261  12.755  66.764  1.00  0.00    -0.295 A  
HETATM   11  C   UNL     1      -9.771  10.732  67.904  1.00  0.00    -0.181 A  
HETATM   12  N   UNL     1     -10.835  12.879  68.053  1.00  0.00    -0.233 NA 
HETATM   13  C   UNL     1     -10.076  11.894  68.575  1.00  0.00    -0.206 A  
BRANCH  10  14
HETATM   14  C   UNL     1     -12.189  13.860  66.297  1.00  0.00    -0.461 C  
BRANCH  14  15
HETATM   15  S   UNL     1     -11.542  14.703  64.833  1.00  0.00    -0.415 S  
HETATM   16  O   UNL     1     -12.613  15.090  63.856  1.00  0.00    -0.813 OA 
BRANCH  15  17
HETATM   17  C   UNL     1     -10.981  16.185  65.541  1.00  0.00    -0.177 A  
HETATM   18  N   UNL     1     -10.839  17.336  64.919  1.00  0.00    -0.793 NA 
HETATM   19  C   UNL     1     -10.483  18.235  65.899  1.00  0.00    -0.307 A  
HETATM   20  H   UNL     1     -10.965  17.521  63.923  1.00  0.00     0.000 HD 
HETATM   21  C   UNL     1     -10.209  19.608  65.800  1.00  0.00    -0.446 A  
HETATM   22  C   UNL     1      -9.930  20.326  66.971  1.00  0.00    -0.601 A  
HETATM   23  C   UNL     1      -9.922  19.691  68.216  1.00  0.00    -0.543 A  
HETATM   24  C   UNL     1     -10.166  18.317  68.331  1.00  0.00    -0.402 A  
HETATM   25  C   UNL     1     -10.431  17.622  67.147  1.00  0.00    -0.319 A  
HETATM   26  N   UNL     1     -10.694  16.303  66.879  1.00  0.00    -0.267 NA 
ENDBRANCH  15  17
ENDBRANCH  14  15
ENDBRANCH  10  14
ENDBRANCH   6   7
ENDBRANCH   5   6
ENDBRANCH   4   5
ENDBRANCH   3   4
ENDBRANCH   2   3
TORSDOF 8
ENDMDL
MODEL       32
REMARK 921   NORMALIZED FREE ENERGY PREDICTED BY IDOCK:   -5.52 KCAL/MOL
REMARK 922        TOTAL FREE ENERGY PREDICTED BY IDOCK:   -8.98 KCAL/MOL
REMARK 923 INTER-LIGAND FREE ENERGY PREDICTED BY IDOCK:   -8.25 KCAL/MOL
REMARK 924 INTRA-LIGAND FREE ENERGY PREDICTED BY IDOCK:   -0.72 KCAL/MOL
REMARK 927      BINDING AFFINITY PREDICTED BY RF-SCORE:    0.00 PKD
ROOT
HETATM    1  C   UNL     1      -9.446   3.978  67.918  1.00  0.00    -0.173 C  
HETATM    2  O   UNL     1      -9.544   4.518  66.606  1.00  0.00    -0.158 OA 
ENDROOT
BRANCH   2   3
HETATM    3  C   UNL     1     -10.210   5.778  66.592  1.00  0.00    -0.212 C  
BRANCH   3   4
HETATM    4  C   UNL     1      -9.174   6.895  66.603  1.00  0.00    -0.185 C  
BRANCH   4   5
HETATM    5  C   UNL     1      -9.585   8.045  67.523  1.00  0.00    -0.153 C  
BRANCH   5   6
HETATM    6  O   UNL     1     -10.157   9.095  66.727  1.00  0.00    -0.232 OA 
BRANCH   6   7
HETATM    7  C   UNL     1     -10.733  10.119  67.442  1.00  0.00    -0.277 A  
HETATM    8  C   UNL     1     -10.752  11.397  66.850  1.00  0.00    -0.308 A  
HETATM    9  C   UNL     1     -10.062  11.632  65.535  1.00  0.00    -0.285 C  
HETATM   10  C   UNL     1     -11.468  12.412  67.509  1.00  0.00    -0.346 A  
HETATM   11  C   UNL     1     -11.278   9.935  68.710  1.00  0.00    -0.122 A  
HETATM   12  N   UNL     1     -12.047  12.210  68.727  1.00  0.00    -0.231 NA 
HETATM   13  C   UNL     1     -11.907  11.003  69.311  1.00  0.00    -0.340 A  
BRANCH  10  14
HETATM   14  C   UNL     1     -11.762  13.764  66.887  1.00  0.00    -0.395 C  
BRANCH  14  15
HETATM   15  S   UNL     1     -10.709  15.062  67.579  1.00  0.00    -0.291 S  
HETATM   16  O   UNL     1     -10.760  16.340  66.795  1.00  0.00    -0.293 OA 
BRANCH  15  17
HETATM   17  C   UNL     1     -11.537  15.382  69.071  1.00  0.00    -0.347 A  
HETATM   18  N   UNL     1     -12.777  15.047  69.356  1.00  0.00    -0.491 NA 
HETATM   19  C   UNL     1     -12.953  15.402  70.674  1.00  0.00    -0.398 A  
HETATM   20  H   UNL     1     -13.461  14.616  68.733  1.00  0.00     0.000 HD 
HETATM   21  C   UNL     1     -14.083  15.271  71.496  1.00  0.00    -0.625 A  
HETATM   22  C   UNL     1     -13.988  15.654  72.840  1.00  0.00    -0.477 A  
HETATM   23  C   UNL     1     -12.792  16.160  73.358  1.00  0.00    -0.621 A  
HETATM   24  C   UNL     1     -11.662  16.324  72.548  1.00  0.00    -0.493 A  
HETATM   25  C   UNL     1     -11.788  15.945  71.208  1.00  0.00    -0.449 A  
HETATM   26  N   UNL     1     -10.920  15.975  70.145  1.00  0.00    -0.349 NA 
ENDBRANCH  15  17
ENDBRANCH  14  15
ENDBRANCH  10  14
ENDBRANCH   6   7
ENDBRANCH   5   6
ENDBRANCH   4   5
ENDBRANCH   3   4
ENDBRANCH   2   3
TORSDOF 8
ENDMDL
MODEL       33
REMARK 921   NORMALIZED FREE ENERGY PREDICTED BY IDOCK:   -5.52 KCAL/MOL
REMARK 922        TOTAL FREE ENERGY PREDICTED BY IDOCK:   -8.97 KCAL/MOL
REMARK 923 INTER-LIGAND FREE ENERGY PREDICTED BY IDOCK:   -7.78 KCAL/MOL
REMARK 924 INTRA-LIGAND FREE ENERGY PREDICTED BY IDOCK:   -1.19 KCAL/MOL
REMARK 927      BINDING AFFINITY PREDICTED BY RF-SCORE:    0.00 PKD
ROOT
HETATM    1  C   UNL     1      -5.187  15.507  68.335  1.00  0.00    -0.103 C  
HETATM    2  O   UNL     1      -5.770  15.666  67.047  1.00  0.00    -0.290 OA 
ENDROOT
BRANCH   2   3
HETATM    3  C   UNL     1      -7.161  15.976  67.122  1.00  0.00    -0.213 C  
BRANCH   3   4
HETATM    4  C   UNL     1      -7.490  17.061  66.104  1.00  0.00    -0.255 C  
BRANCH   4   5
HETATM    5  C   UNL     1      -8.497  18.071  66.654  1.00  0.00    -0.262 C  
BRANCH   5   6
HETATM    6  O   UNL     1      -9.808  17.725  66.181  1.00  0.00    -0.428 OA 
BRANCH   6   7
HETATM    7  C   UNL     1     -10.493  16.826  66.966  1.00  0.00    -0.285 A  
HETATM    8  C   UNL     1     -10.890  15.612  66.374  1.00  0.00    -0.252 A  
HETATM    9  C   UNL     1     -10.662  15.377  64.907  1.00  0.00    -0.416 C  
HETATM   10  C   UNL     1     -11.457  14.632  67.208  1.00  0.00    -0.372 A  
HETATM   11  C   UNL     1     -10.806  17.082  68.299  1.00  0.00    -0.341 A  
HETATM   12  N   UNL     1     -11.711  14.870  68.526  1.00  0.00    -0.316 NA 
HETATM   13  C   UNL     1     -11.420  16.087  69.026  1.00  0.00    -0.360 A  
BRANCH  10  14
HETATM   14  C   UNL     1     -11.723  13.208  66.760  1.00  0.00    -0.385 C  
BRANCH  14  15
HETATM   15  S   UNL     1     -10.339  12.113  67.154  1.00  0.00    -0.215 S  
HETATM   16  O   UNL     1      -9.092  12.857  67.535  1.00  0.00    -0.174 OA 
BRANCH  15  17
HETATM   17  C   UNL     1     -10.921  11.376  68.613  1.00  0.00    -0.220 A  
HETATM   18  N   UNL     1     -11.833  11.873  69.421  1.00  0.00    -0.322 NA 
HETATM   19  C   UNL     1     -12.046  10.896  70.369  1.00  0.00    -0.363 A  
HETATM   20  H   UNL     1     -12.284  12.785  69.360  1.00  0.00     0.000 HD 
HETATM   21  C   UNL     1     -12.917  10.889  71.469  1.00  0.00    -0.556 A  
HETATM   22  C   UNL     1     -12.998   9.733  72.257  1.00  0.00    -0.420 A  
HETATM   23  C   UNL     1     -12.228   8.606  71.958  1.00  0.00    -0.439 A  
HETATM   24  C   UNL     1     -11.334   8.604  70.880  1.00  0.00    -0.314 A  
HETATM   25  C   UNL     1     -11.263   9.774  70.117  1.00  0.00    -0.272 A  
HETATM   26  N   UNL     1     -10.512  10.132  69.027  1.00  0.00    -0.206 NA 
ENDBRANCH  15  17
ENDBRANCH  14  15
ENDBRANCH  10  14
ENDBRANCH   6   7
ENDBRANCH   5   6
ENDBRANCH   4   5
ENDBRANCH   3   4
ENDBRANCH   2   3
TORSDOF 8
ENDMDL
MODEL       34
REMARK 921   NORMALIZED FREE ENERGY PREDICTED BY IDOCK:   -5.46 KCAL/MOL
REMARK 922        TOTAL FREE ENERGY PREDICTED BY IDOCK:   -8.89 KCAL/MOL
REMARK 923 INTER-LIGAND FREE ENERGY PREDICTED BY IDOCK:   -8.73 KCAL/MOL
REMARK 924 INTRA-LIGAND FREE ENERGY PREDICTED BY IDOCK:   -0.16 KCAL/MOL
REMARK 927      BINDING AFFINITY PREDICTED BY RF-SCORE:    0.00 PKD
ROOT
HETATM    1  C   UNL     1     -12.650  13.470  65.565  1.00  0.00    -0.481 C  
HETATM    2  O   UNL     1     -13.404  12.598  64.732  1.00  0.00    -0.787 OA 
ENDROOT
BRANCH   2   3
HETATM    3  C   UNL     1     -12.581  11.897  63.802  1.00  0.00    -0.396 C  
BRANCH   3   4
HETATM    4  C   UNL     1     -11.301  12.691  63.567  1.00  0.00    -0.527 C  
BRANCH   4   5
HETATM    5  C   UNL     1     -10.079  11.779  63.457  1.00  0.00    -0.438 C  
BRANCH   5   6
HETATM    6  O   UNL     1     -10.082  10.862  64.562  1.00  0.00    -0.289 OA 
BRANCH   6   7
HETATM    7  C   UNL     1      -9.768  11.417  65.781  1.00  0.00    -0.233 A  
HETATM    8  C   UNL     1     -10.046  10.657  66.934  1.00  0.00    -0.260 A  
HETATM    9  C   UNL     1     -10.762   9.341  66.818  1.00  0.00    -0.120 C  
HETATM   10  C   UNL     1      -9.592  11.154  68.169  1.00  0.00    -0.179 A  
HETATM   11  C   UNL     1      -9.204  12.684  65.905  1.00  0.00     0.073 A  
HETATM   12  N   UNL     1      -8.991  12.373  68.276  1.00  0.00    -0.192 NA 
HETATM   13  C   UNL     1      -8.847  13.118  67.162  1.00  0.00    -0.222 A  
BRANCH  10  14
HETATM   14  C   UNL     1      -9.620  10.348  69.453  1.00  0.00    -0.192 C  
BRANCH  14  15
HETATM   15  S   UNL     1     -11.310   9.931  69.944  1.00  0.00    -0.190 S  
HETATM   16  O   UNL     1     -11.367   8.989  71.112  1.00  0.00    -0.264 OA 
BRANCH  15  17
HETATM   17  C   UNL     1     -11.856  11.466  70.541  1.00  0.00    -0.297 A  
HETATM   18  N   UNL     1     -11.433  12.647  70.144  1.00  0.00    -0.526 NA 
HETATM   19  C   UNL     1     -12.224  13.557  70.809  1.00  0.00    -0.338 A  
HETATM   20  H   UNL     1     -10.680  12.845  69.484  1.00  0.00     0.000 HD 
HETATM   21  C   UNL     1     -12.213  14.959  70.761  1.00  0.00    -0.387 A  
HETATM   22  C   UNL     1     -13.177  15.667  71.492  1.00  0.00    -0.555 A  
HETATM   23  C   UNL     1     -14.132  14.993  72.258  1.00  0.00    -0.612 A  
HETATM   24  C   UNL     1     -14.141  13.595  72.341  1.00  0.00    -0.586 A  
HETATM   25  C   UNL     1     -13.163  12.914  71.610  1.00  0.00    -0.324 A  
HETATM   26  N   UNL     1     -12.865  11.583  71.466  1.00  0.00    -0.409 NA 
ENDBRANCH  15  17
ENDBRANCH  14  15
ENDBRANCH  10  14
ENDBRANCH   6   7
ENDBRANCH   5   6
ENDBRANCH   4   5
ENDBRANCH   3   4
ENDBRANCH   2   3
TORSDOF 8
ENDMDL
MODEL       35
REMARK 921   NORMALIZED FREE ENERGY PREDICTED BY IDOCK:   -5.43 KCAL/MOL
REMARK 922        TOTAL FREE ENERGY PREDICTED BY IDOCK:   -8.84 KCAL/MOL
REMARK 923 INTER-LIGAND FREE ENERGY PREDICTED BY IDOCK:   -7.69 KCAL/MOL
REMARK 924 INTRA-LIGAND FREE ENERGY PREDICTED BY IDOCK:   -1.14 KCAL/MOL
REMARK 927      BINDING AFFINITY PREDICTED BY RF-SCORE:    0.00 PKD
ROOT
HETATM    1  C   UNL     1     -12.434  13.327  65.723  1.00  0.00    -0.417 C  
HETATM    2  O   UNL     1     -13.284  12.632  64.819  1.00  0.00    -0.846 OA 
ENDROOT
BRANCH   2   3
HETATM    3  C   UNL     1     -12.558  12.043  63.743  1.00  0.00    -0.454 C  
BRANCH   3   4
HETATM    4  C   UNL     1     -11.276  12.835  63.509  1.00  0.00    -0.429 C  
BRANCH   4   5
HETATM    5  C   UNL     1     -10.059  11.920  63.373  1.00  0.00    -0.438 C  
BRANCH   5   6
HETATM    6  O   UNL     1     -10.400  10.617  63.873  1.00  0.00    -0.318 OA 
BRANCH   6   7
HETATM    7  C   UNL     1      -9.366   9.935  64.472  1.00  0.00    -0.275 A  
HETATM    8  C   UNL     1      -9.532   9.550  65.817  1.00  0.00    -0.314 A  
HETATM    9  C   UNL     1     -10.754   9.979  66.581  1.00  0.00    -0.128 C  
HETATM   10  C   UNL     1      -8.546   8.727  66.388  1.00  0.00    -0.128 A  
HETATM   11  C   UNL     1      -8.183   9.628  63.805  1.00  0.00    -0.162 A  
HETATM   12  N   UNL     1      -7.413   8.385  65.710  1.00  0.00    -0.076 NA 
HETATM   13  C   UNL     1      -7.241   8.869  64.464  1.00  0.00    -0.097 A  
BRANCH  10  14
HETATM   14  C   UNL     1      -8.699   8.056  67.740  1.00  0.00    -0.127 C  
BRANCH  14  15
HETATM   15  S   UNL     1      -8.035   9.082  69.074  1.00  0.00    -0.103 S  
HETATM   16  O   UNL     1      -7.540  10.417  68.598  1.00  0.00    -0.083 OA 
BRANCH  15  17
HETATM   17  C   UNL     1      -9.482   9.403  69.978  1.00  0.00    -0.228 A  
HETATM   18  N   UNL     1     -10.185  10.515  69.946  1.00  0.00    -0.438 NA 
HETATM   19  C   UNL     1     -11.291  10.267  70.727  1.00  0.00    -0.337 A  
HETATM   20  H   UNL     1      -9.958  11.377  69.449  1.00  0.00     0.000 HD 
HETATM   21  C   UNL     1     -12.374  11.101  71.041  1.00  0.00    -0.487 A  
HETATM   22  C   UNL     1     -13.422  10.584  71.815  1.00  0.00    -0.345 A  
HETATM   23  C   UNL     1     -13.392   9.264  72.270  1.00  0.00    -0.547 A  
HETATM   24  C   UNL     1     -12.307   8.424  71.991  1.00  0.00    -0.413 A  
HETATM   25  C   UNL     1     -11.270   8.968  71.227  1.00  0.00    -0.315 A  
HETATM   26  N   UNL     1     -10.076   8.461  70.782  1.00  0.00    -0.190 NA 
ENDBRANCH  15  17
ENDBRANCH  14  15
ENDBRANCH  10  14
ENDBRANCH   6   7
ENDBRANCH   5   6
ENDBRANCH   4   5
ENDBRANCH   3   4
ENDBRANCH   2   3
TORSDOF 8
ENDMDL
MODEL       36
REMARK 921   NORMALIZED FREE ENERGY PREDICTED BY IDOCK:   -5.42 KCAL/MOL
REMARK 922        TOTAL FREE ENERGY PREDICTED BY IDOCK:   -8.82 KCAL/MOL
REMARK 923 INTER-LIGAND FREE ENERGY PREDICTED BY IDOCK:   -8.08 KCAL/MOL
REMARK 924 INTRA-LIGAND FREE ENERGY PREDICTED BY IDOCK:   -0.75 KCAL/MOL
REMARK 927      BINDING AFFINITY PREDICTED BY RF-SCORE:    0.00 PKD
ROOT
HETATM    1  C   UNL     1      -7.277   7.975  66.303  1.00  0.00    -0.071 C  
HETATM    2  O   UNL     1      -6.622   8.614  65.215  1.00  0.00    -0.063 OA 
ENDROOT
BRANCH   2   3
HETATM    3  C   UNL     1      -7.360   9.734  64.728  1.00  0.00    -0.130 C  
BRANCH   3   4
HETATM    4  C   UNL     1      -8.318   9.270  63.638  1.00  0.00    -0.185 C  
BRANCH   4   5
HETATM    5  C   UNL     1      -9.501  10.224  63.476  1.00  0.00    -0.298 C  
BRANCH   5   6
HETATM    6  O   UNL     1     -10.151  10.378  64.748  1.00  0.00    -0.339 OA 
BRANCH   6   7
HETATM    7  C   UNL     1     -10.764  11.594  64.945  1.00  0.00    -0.296 A  
HETATM    8  C   UNL     1     -11.211  11.895  66.246  1.00  0.00    -0.392 A  
HETATM    9  C   UNL     1     -11.113  10.866  67.337  1.00  0.00    -0.373 C  
HETATM   10  C   UNL     1     -11.702  13.191  66.485  1.00  0.00    -0.382 A  
HETATM   11  C   UNL     1     -10.958  12.512  63.916  1.00  0.00    -0.471 A  
HETATM   12  N   UNL     1     -11.840  14.104  65.482  1.00  0.00    -0.351 NA 
HETATM   13  C   UNL     1     -11.506  13.736  64.229  1.00  0.00    -0.340 A  
BRANCH  10  14
HETATM   14  C   UNL     1     -12.007  13.725  67.872  1.00  0.00    -0.356 C  
BRANCH  14  15
HETATM   15  S   UNL     1     -10.497  14.165  68.766  1.00  0.00    -0.228 S  
HETATM   16  O   UNL     1      -9.284  13.439  68.261  1.00  0.00    -0.204 OA 
BRANCH  15  17
HETATM   17  C   UNL     1     -10.305  15.818  68.273  1.00  0.00    -0.239 A  
HETATM   18  N   UNL     1     -10.522  16.297  67.067  1.00  0.00    -0.310 NA 
HETATM   19  C   UNL     1     -10.351  17.658  67.183  1.00  0.00    -0.343 A  
HETATM   20  H   UNL     1     -10.764  15.772  66.226  1.00  0.00     0.000 HD 
HETATM   21  C   UNL     1     -10.462  18.663  66.209  1.00  0.00    -0.468 A  
HETATM   22  C   UNL     1     -10.302  20.000  66.598  1.00  0.00    -0.565 A  
HETATM   23  C   UNL     1     -10.035  20.332  67.929  1.00  0.00    -0.492 A  
HETATM   24  C   UNL     1      -9.893  19.342  68.909  1.00  0.00    -0.523 A  
HETATM   25  C   UNL     1     -10.046  18.016  68.493  1.00  0.00    -0.393 A  
HETATM   26  N   UNL     1      -9.964  16.816  69.153  1.00  0.00    -0.268 NA 
ENDBRANCH  15  17
ENDBRANCH  14  15
ENDBRANCH  10  14
ENDBRANCH   6   7
ENDBRANCH   5   6
ENDBRANCH   4   5
ENDBRANCH   3   4
ENDBRANCH   2   3
TORSDOF 8
ENDMDL
MODEL       37
REMARK 921   NORMALIZED FREE ENERGY PREDICTED BY IDOCK:   -5.41 KCAL/MOL
REMARK 922        TOTAL FREE ENERGY PREDICTED BY IDOCK:   -8.82 KCAL/MOL
REMARK 923 INTER-LIGAND FREE ENERGY PREDICTED BY IDOCK:   -7.88 KCAL/MOL
REMARK 924 INTRA-LIGAND FREE ENERGY PREDICTED BY IDOCK:   -0.93 KCAL/MOL
REMARK 927      BINDING AFFINITY PREDICTED BY RF-SCORE:    0.00 PKD
ROOT
HETATM    1  C   UNL     1      -9.340   9.967  64.466  1.00  0.00    -0.275 C  
HETATM    2  O   UNL     1     -10.068  11.175  64.647  1.00  0.00    -0.256 OA 
ENDROOT
BRANCH   2   3
HETATM    3  C   UNL     1     -10.664  11.629  63.433  1.00  0.00    -0.391 C  
BRANCH   3   4
HETATM    4  C   UNL     1     -12.094  12.074  63.711  1.00  0.00    -0.599 C  
BRANCH   4   5
HETATM    5  C   UNL     1     -12.266  13.583  63.532  1.00  0.00    -0.346 C  
BRANCH   5   6
HETATM    6  O   UNL     1     -12.543  14.174  64.811  1.00  0.00    -0.608 OA 
BRANCH   6   7
HETATM    7  C   UNL     1     -11.433  14.539  65.537  1.00  0.00    -0.343 A  
HETATM    8  C   UNL     1     -11.210  13.883  66.763  1.00  0.00    -0.328 A  
HETATM    9  C   UNL     1     -12.221  12.904  67.291  1.00  0.00    -0.119 C  
HETATM   10  C   UNL     1     -10.003  14.145  67.435  1.00  0.00    -0.240 A  
HETATM   11  C   UNL     1     -10.547  15.524  65.108  1.00  0.00    -0.455 A  
HETATM   12  N   UNL     1      -9.113  15.073  66.980  1.00  0.00    -0.217 NA 
HETATM   13  C   UNL     1      -9.420  15.761  65.862  1.00  0.00    -0.342 A  
BRANCH  10  14
HETATM   14  C   UNL     1      -9.529  13.352  68.638  1.00  0.00    -0.036 C  
BRANCH  14  15
HETATM   15  S   UNL     1      -9.107  11.651  68.194  1.00  0.00    -0.187 S  
HETATM   16  O   UNL     1      -7.690  11.289  68.532  1.00  0.00    -0.115 OA 
BRANCH  15  17
HETATM   17  C   UNL     1     -10.104  10.773  69.311  1.00  0.00    -0.177 A  
HETATM   18  N   UNL     1     -11.048  11.283  70.072  1.00  0.00    -0.477 NA 
HETATM   19  C   UNL     1     -11.633  10.203  70.695  1.00  0.00    -0.343 A  
HETATM   20  H   UNL     1     -11.294  12.268  70.178  1.00  0.00     0.000 HD 
HETATM   21  C   UNL     1     -12.694  10.163  71.612  1.00  0.00    -0.549 A  
HETATM   22  C   UNL     1     -13.155   8.916  72.056  1.00  0.00    -0.454 A  
HETATM   23  C   UNL     1     -12.571   7.732  71.598  1.00  0.00    -0.357 A  
HETATM   24  C   UNL     1     -11.493   7.753  70.704  1.00  0.00    -0.259 A  
HETATM   25  C   UNL     1     -11.046   9.010  70.285  1.00  0.00    -0.235 A  
HETATM   26  N   UNL     1     -10.034   9.408  69.449  1.00  0.00    -0.175 NA 
ENDBRANCH  15  17
ENDBRANCH  14  15
ENDBRANCH  10  14
ENDBRANCH   6   7
ENDBRANCH   5   6
ENDBRANCH   4   5
ENDBRANCH   3   4
ENDBRANCH   2   3
TORSDOF 8
ENDMDL
MODEL       38
REMARK 921   NORMALIZED FREE ENERGY PREDICTED BY IDOCK:   -5.41 KCAL/MOL
REMARK 922        TOTAL FREE ENERGY PREDICTED BY IDOCK:   -8.81 KCAL/MOL
REMARK 923 INTER-LIGAND FREE ENERGY PREDICTED BY IDOCK:   -8.16 KCAL/MOL
REMARK 924 INTRA-LIGAND FREE ENERGY PREDICTED BY IDOCK:   -0.65 KCAL/MOL
REMARK 927      BINDING AFFINITY PREDICTED BY RF-SCORE:    0.00 PKD
ROOT
HETATM    1  C   UNL     1     -12.063  12.552  63.401  1.00  0.00    -0.529 C  
HETATM    2  O   UNL     1     -12.763  13.787  63.483  1.00  0.00    -0.774 OA 
ENDROOT
BRANCH   2   3
HETATM    3  C   UNL     1     -12.234  14.637  64.499  1.00  0.00    -0.456 C  
BRANCH   3   4
HETATM    4  C   UNL     1     -10.775  14.273  64.750  1.00  0.00    -0.435 C  
BRANCH   4   5
HETATM    5  C   UNL     1     -10.555  13.749  66.169  1.00  0.00    -0.291 C  
BRANCH   5   6
HETATM    6  O   UNL     1      -9.692  12.602  66.112  1.00  0.00    -0.256 OA 
BRANCH   6   7
HETATM    7  C   UNL     1     -10.109  11.522  66.854  1.00  0.00    -0.212 A  
HETATM    8  C   UNL     1      -9.825  10.237  66.353  1.00  0.00    -0.272 A  
HETATM    9  C   UNL     1      -9.189  10.077  65.001  1.00  0.00    -0.277 C  
HETATM   10  C   UNL     1     -10.115   9.135  67.176  1.00  0.00    -0.236 A  
HETATM   11  C   UNL     1     -10.798  11.659  68.057  1.00  0.00    -0.259 A  
HETATM   12  N   UNL     1     -10.742   9.281  68.379  1.00  0.00    -0.185 NA 
HETATM   13  C   UNL     1     -11.099  10.520  68.769  1.00  0.00    -0.265 A  
BRANCH  10  14
HETATM   14  C   UNL     1      -9.663   7.720  66.867  1.00  0.00    -0.216 C  
BRANCH  14  15
HETATM   15  S   UNL     1     -11.011   6.530  67.063  1.00  0.00    -0.310 S  
HETATM   16  O   UNL     1     -10.766   5.240  66.334  1.00  0.00    -0.307 OA 
BRANCH  15  17
HETATM   17  C   UNL     1     -10.866   6.160  68.752  1.00  0.00    -0.336 A  
HETATM   18  N   UNL     1     -11.577   6.689  69.725  1.00  0.00    -0.616 NA 
HETATM   19  C   UNL     1     -11.192   6.014  70.862  1.00  0.00    -0.265 A  
HETATM   20  H   UNL     1     -12.265   7.439  69.652  1.00  0.00     0.000 HD 
HETATM   21  C   UNL     1     -11.630   6.166  72.187  1.00  0.00    -0.369 A  
HETATM   22  C   UNL     1     -11.125   5.301  73.167  1.00  0.00    -0.384 A  
HETATM   23  C   UNL     1     -10.202   4.305  72.837  1.00  0.00    -0.227 A  
HETATM   24  C   UNL     1      -9.733   4.155  71.526  1.00  0.00    -0.243 A  
HETATM   25  C   UNL     1     -10.244   5.039  70.570  1.00  0.00    -0.246 A  
HETATM   26  N   UNL     1     -10.011   5.195  69.227  1.00  0.00    -0.193 NA 
ENDBRANCH  15  17
ENDBRANCH  14  15
ENDBRANCH  10  14
ENDBRANCH   6   7
ENDBRANCH   5   6
ENDBRANCH   4   5
ENDBRANCH   3   4
ENDBRANCH   2   3
TORSDOF 8
ENDMDL
MODEL       39
REMARK 921   NORMALIZED FREE ENERGY PREDICTED BY IDOCK:   -5.41 KCAL/MOL
REMARK 922        TOTAL FREE ENERGY PREDICTED BY IDOCK:   -8.81 KCAL/MOL
REMARK 923 INTER-LIGAND FREE ENERGY PREDICTED BY IDOCK:   -7.49 KCAL/MOL
REMARK 924 INTRA-LIGAND FREE ENERGY PREDICTED BY IDOCK:   -1.32 KCAL/MOL
REMARK 927      BINDING AFFINITY PREDICTED BY RF-SCORE:    0.00 PKD
ROOT
HETATM    1  C   UNL     1      -6.821   7.731  68.396  1.00  0.00    -0.067 C  
HETATM    2  O   UNL     1      -7.014   6.886  67.268  1.00  0.00    -0.073 OA 
ENDROOT
BRANCH   2   3
HETATM    3  C   UNL     1      -6.756   5.517  67.573  1.00  0.00    -0.059 C  
BRANCH   3   4
HETATM    4  C   UNL     1      -8.065   4.737  67.530  1.00  0.00    -0.101 C  
BRANCH   4   5
HETATM    5  C   UNL     1      -9.067   5.361  66.560  1.00  0.00    -0.135 C  
BRANCH   5   6
HETATM    6  O   UNL     1     -10.288   5.636  67.265  1.00  0.00    -0.192 OA 
BRANCH   6   7
HETATM    7  C   UNL     1     -10.448   6.942  67.665  1.00  0.00    -0.228 A  
HETATM    8  C   UNL     1     -10.799   7.174  69.009  1.00  0.00    -0.172 A  
HETATM    9  C   UNL     1     -11.092   6.018  69.925  1.00  0.00    -0.469 C  
HETATM   10  C   UNL     1     -10.819   8.506  69.459  1.00  0.00    -0.125 A  
HETATM   11  C   UNL     1     -10.287   8.018  66.796  1.00  0.00    -0.360 A  
HETATM   12  N   UNL     1     -10.606   9.554  68.613  1.00  0.00    -0.217 NA 
HETATM   13  C   UNL     1     -10.386   9.292  67.310  1.00  0.00    -0.265 A  
BRANCH  10  14
HETATM   14  C   UNL     1     -10.957   8.892  70.920  1.00  0.00    -0.266 C  
BRANCH  14  15
HETATM   15  S   UNL     1     -12.675   9.259  71.354  1.00  0.00    -0.321 S  
HETATM   16  O   UNL     1     -13.019   8.874  72.763  1.00  0.00    -0.359 OA 
BRANCH  15  17
HETATM   17  C   UNL     1     -12.646  10.994  71.326  1.00  0.00    -0.412 A  
HETATM   18  N   UNL     1     -12.003  11.744  70.456  1.00  0.00    -0.465 NA 
HETATM   19  C   UNL     1     -12.362  13.038  70.760  1.00  0.00    -0.310 A  
HETATM   20  H   UNL     1     -11.373  11.433  69.716  1.00  0.00     0.000 HD 
HETATM   21  C   UNL     1     -11.976  14.243  70.153  1.00  0.00    -0.391 A  
HETATM   22  C   UNL     1     -12.540  15.441  70.612  1.00  0.00    -0.491 A  
HETATM   23  C   UNL     1     -13.469  15.442  71.656  1.00  0.00    -0.593 A  
HETATM   24  C   UNL     1     -13.846  14.253  72.292  1.00  0.00    -0.622 A  
HETATM   25  C   UNL     1     -13.260  13.073  71.822  1.00  0.00    -0.392 A  
HETATM   26  N   UNL     1     -13.376  11.760  72.202  1.00  0.00    -0.406 NA 
ENDBRANCH  15  17
ENDBRANCH  14  15
ENDBRANCH  10  14
ENDBRANCH   6   7
ENDBRANCH   5   6
ENDBRANCH   4   5
ENDBRANCH   3   4
ENDBRANCH   2   3
TORSDOF 8
ENDMDL
MODEL       40
REMARK 921   NORMALIZED FREE ENERGY PREDICTED BY IDOCK:   -5.40 KCAL/MOL
REMARK 922        TOTAL FREE ENERGY PREDICTED BY IDOCK:   -8.80 KCAL/MOL
REMARK 923 INTER-LIGAND FREE ENERGY PREDICTED BY IDOCK:   -7.98 KCAL/MOL
REMARK 924 INTRA-LIGAND FREE ENERGY PREDICTED BY IDOCK:   -0.82 KCAL/MOL
REMARK 927      BINDING AFFINITY PREDICTED BY RF-SCORE:    0.00 PKD
ROOT
HETATM    1  C   UNL     1     -13.547  13.531  72.198  1.00  0.00    -0.557 C  
HETATM    2  O   UNL     1     -13.306  12.208  71.735  1.00  0.00    -0.407 OA 
ENDROOT
BRANCH   2   3
HETATM    3  C   UNL     1     -12.316  12.170  70.709  1.00  0.00    -0.297 C  
BRANCH   3   4
HETATM    4  C   UNL     1     -12.571  10.966  69.809  1.00  0.00    -0.150 C  
BRANCH   4   5
HETATM    5  C   UNL     1     -11.431  10.749  68.814  1.00  0.00    -0.295 C  
BRANCH   5   6
HETATM    6  O   UNL     1     -11.662  11.569  67.657  1.00  0.00    -0.538 OA 
BRANCH   6   7
HETATM    7  C   UNL     1     -10.668  12.479  67.380  1.00  0.00    -0.229 A  
HETATM    8  C   UNL     1     -11.044  13.687  66.760  1.00  0.00    -0.315 A  
HETATM    9  C   UNL     1     -12.466  13.903  66.325  1.00  0.00    -0.454 C  
HETATM   10  C   UNL     1     -10.058  14.679  66.610  1.00  0.00    -0.273 A  
HETATM   11  C   UNL     1      -9.329  12.241  67.679  1.00  0.00    -0.186 A  
HETATM   12  N   UNL     1      -8.758  14.459  66.956  1.00  0.00    -0.227 NA 
HETATM   13  C   UNL     1      -8.419  13.247  67.441  1.00  0.00    -0.206 A  
BRANCH  10  14
HETATM   14  C   UNL     1     -10.363  16.098  66.170  1.00  0.00    -0.339 C  
BRANCH  14  15
HETATM   15  S   UNL     1     -10.645  17.190  67.584  1.00  0.00    -0.311 S  
HETATM   16  O   UNL     1     -10.316  16.545  68.899  1.00  0.00    -0.254 OA 
BRANCH  15  17
HETATM   17  C   UNL     1      -9.414  18.383  67.314  1.00  0.00    -0.278 A  
HETATM   18  N   UNL     1      -8.823  19.110  68.239  1.00  0.00    -0.325 NA 
HETATM   19  C   UNL     1      -7.852  19.823  67.572  1.00  0.00    -0.282 A  
HETATM   20  H   UNL     1      -9.039  19.139  69.236  1.00  0.00     0.000 HD 
HETATM   21  C   UNL     1      -6.922  20.750  68.066  1.00  0.00    -0.236 A  
HETATM   22  C   UNL     1      -5.982  21.298  67.183  1.00  0.00    -0.415 A  
HETATM   23  C   UNL     1      -5.967  20.931  65.834  1.00  0.00    -0.285 A  
HETATM   24  C   UNL     1      -6.904  20.028  65.317  1.00  0.00    -0.328 A  
HETATM   25  C   UNL     1      -7.838  19.506  66.217  1.00  0.00    -0.317 A  
HETATM   26  N   UNL     1      -8.885  18.631  66.071  1.00  0.00    -0.482 NA 
ENDBRANCH  15  17
ENDBRANCH  14  15
ENDBRANCH  10  14
ENDBRANCH   6   7
ENDBRANCH   5   6
ENDBRANCH   4   5
ENDBRANCH   3   4
ENDBRANCH   2   3
TORSDOF 8
ENDMDL
MODEL       41
REMARK 921   NORMALIZED FREE ENERGY PREDICTED BY IDOCK:   -5.39 KCAL/MOL
REMARK 922        TOTAL FREE ENERGY PREDICTED BY IDOCK:   -8.79 KCAL/MOL
REMARK 923 INTER-LIGAND FREE ENERGY PREDICTED BY IDOCK:   -7.89 KCAL/MOL
REMARK 924 INTRA-LIGAND FREE ENERGY PREDICTED BY IDOCK:   -0.90 KCAL/MOL
REMARK 927      BINDING AFFINITY PREDICTED BY RF-SCORE:    0.00 PKD
ROOT
HETATM    1  C   UNL     1     -13.569   9.137  71.783  1.00  0.00    -0.415 C  
HETATM    2  O   UNL     1     -12.391   9.798  71.337  1.00  0.00    -0.334 OA 
ENDROOT
BRANCH   2   3
HETATM    3  C   UNL     1     -11.207   9.098  71.714  1.00  0.00    -0.381 C  
BRANCH   3   4
HETATM    4  C   UNL     1     -10.426   8.720  70.461  1.00  0.00    -0.246 C  
BRANCH   4   5
HETATM    5  C   UNL     1      -9.212   9.623  70.252  1.00  0.00    -0.236 C  
BRANCH   5   6
HETATM    6  O   UNL     1      -8.993   9.791  68.842  1.00  0.00    -0.133 OA 
BRANCH   6   7
HETATM    7  C   UNL     1      -8.886  11.096  68.420  1.00  0.00    -0.157 A  
HETATM    8  C   UNL     1      -9.977  11.646  67.720  1.00  0.00    -0.191 A  
HETATM    9  C   UNL     1     -11.157  10.787  67.362  1.00  0.00    -0.363 C  
HETATM   10  C   UNL     1      -9.934  13.019  67.417  1.00  0.00    -0.228 A  
HETATM   11  C   UNL     1      -7.751  11.868  68.652  1.00  0.00    -0.113 A  
HETATM   12  N   UNL     1      -8.840  13.783  67.697  1.00  0.00    -0.178 NA 
HETATM   13  C   UNL     1      -7.771  13.189  68.265  1.00  0.00    -0.141 A  
BRANCH  10  14
HETATM   14  C   UNL     1     -11.121  13.791  66.872  1.00  0.00    -0.302 C  
BRANCH  14  15
HETATM   15  S   UNL     1     -10.674  14.759  65.412  1.00  0.00    -0.402 S  
HETATM   16  O   UNL     1     -11.803  14.899  64.432  1.00  0.00    -0.415 OA 
BRANCH  15  17
HETATM   17  C   UNL     1     -10.461  16.328  66.123  1.00  0.00    -0.322 A  
HETATM   18  N   UNL     1     -10.262  16.579  67.400  1.00  0.00    -0.281 NA 
HETATM   19  C   UNL     1     -10.039  17.936  67.470  1.00  0.00    -0.342 A  
HETATM   20  H   UNL     1     -10.272  15.912  68.171  1.00  0.00     0.000 HD 
HETATM   21  C   UNL     1      -9.770  18.744  68.585  1.00  0.00    -0.437 A  
HETATM   22  C   UNL     1      -9.511  20.107  68.384  1.00  0.00    -0.216 A  
HETATM   23  C   UNL     1      -9.522  20.656  67.099  1.00  0.00    -0.505 A  
HETATM   24  C   UNL     1      -9.816  19.872  65.977  1.00  0.00    -0.515 A  
HETATM   25  C   UNL     1     -10.081  18.518  66.207  1.00  0.00    -0.398 A  
HETATM   26  N   UNL     1     -10.412  17.478  65.375  1.00  0.00    -0.636 NA 
ENDBRANCH  15  17
ENDBRANCH  14  15
ENDBRANCH  10  14
ENDBRANCH   6   7
ENDBRANCH   5   6
ENDBRANCH   4   5
ENDBRANCH   3   4
ENDBRANCH   2   3
TORSDOF 8
ENDMDL
MODEL       42
REMARK 921   NORMALIZED FREE ENERGY PREDICTED BY IDOCK:   -5.39 KCAL/MOL
REMARK 922        TOTAL FREE ENERGY PREDICTED BY IDOCK:   -8.78 KCAL/MOL
REMARK 923 INTER-LIGAND FREE ENERGY PREDICTED BY IDOCK:   -8.07 KCAL/MOL
REMARK 924 INTRA-LIGAND FREE ENERGY PREDICTED BY IDOCK:   -0.70 KCAL/MOL
REMARK 927      BINDING AFFINITY PREDICTED BY RF-SCORE:    0.00 PKD
ROOT
HETATM    1  C   UNL     1      -9.492   3.690  69.498  1.00  0.00    -0.176 C  
HETATM    2  O   UNL     1     -10.166   4.527  70.429  1.00  0.00    -0.210 OA 
ENDROOT
BRANCH   2   3
HETATM    3  C   UNL     1      -9.884   4.163  71.779  1.00  0.00    -0.182 C  
BRANCH   3   4
HETATM    4  C   UNL     1     -10.844   4.896  72.709  1.00  0.00    -0.293 C  
BRANCH   4   5
HETATM    5  C   UNL     1     -11.545   6.057  72.003  1.00  0.00    -0.276 C  
BRANCH   5   6
HETATM    6  O   UNL     1     -11.178   7.285  72.652  1.00  0.00    -0.286 OA 
BRANCH   6   7
HETATM    7  C   UNL     1     -11.799   8.410  72.163  1.00  0.00    -0.375 A  
HETATM    8  C   UNL     1     -11.020   9.311  71.410  1.00  0.00    -0.429 A  
HETATM    9  C   UNL     1      -9.542   9.085  71.256  1.00  0.00    -0.361 C  
HETATM   10  C   UNL     1     -11.681  10.383  70.785  1.00  0.00    -0.368 A  
HETATM   11  C   UNL     1     -13.145   8.684  72.393  1.00  0.00    -0.396 A  
HETATM   12  N   UNL     1     -13.012  10.614  70.971  1.00  0.00    -0.378 NA 
HETATM   13  C   UNL     1     -13.697   9.793  71.792  1.00  0.00    -0.229 A  
BRANCH  10  14
HETATM   14  C   UNL     1     -11.017  11.295  69.771  1.00  0.00    -0.103 C  
BRANCH  14  15
HETATM   15  S   UNL     1     -11.936  12.838  69.557  1.00  0.00    -0.233 S  
HETATM   16  O   UNL     1     -11.156  14.049  69.980  1.00  0.00    -0.091 OA 
BRANCH  15  17
HETATM   17  C   UNL     1     -12.034  12.913  67.826  1.00  0.00    -0.283 A  
HETATM   18  N   UNL     1     -12.286  13.988  67.110  1.00  0.00    -0.532 NA 
HETATM   19  C   UNL     1     -12.151  13.589  65.799  1.00  0.00    -0.433 A  
HETATM   20  H   UNL     1     -12.529  14.917  67.453  1.00  0.00     0.000 HD 
HETATM   21  C   UNL     1     -12.303  14.327  64.616  1.00  0.00    -0.433 A  
HETATM   22  C   UNL     1     -12.043  13.699  63.390  1.00  0.00    -0.246 A  
HETATM   23  C   UNL     1     -11.642  12.361  63.342  1.00  0.00    -0.541 A  
HETATM   24  C   UNL     1     -11.511  11.600  64.510  1.00  0.00    -0.272 A  
HETATM   25  C   UNL     1     -11.786  12.248  65.718  1.00  0.00    -0.352 A  
HETATM   26  N   UNL     1     -11.778  11.828  67.024  1.00  0.00    -0.594 NA 
ENDBRANCH  15  17
ENDBRANCH  14  15
ENDBRANCH  10  14
ENDBRANCH   6   7
ENDBRANCH   5   6
ENDBRANCH   4   5
ENDBRANCH   3   4
ENDBRANCH   2   3
TORSDOF 8
ENDMDL
MODEL       43
REMARK 921   NORMALIZED FREE ENERGY PREDICTED BY IDOCK:   -5.35 KCAL/MOL
REMARK 922        TOTAL FREE ENERGY PREDICTED BY IDOCK:   -8.72 KCAL/MOL
REMARK 923 INTER-LIGAND FREE ENERGY PREDICTED BY IDOCK:   -7.80 KCAL/MOL
REMARK 924 INTRA-LIGAND FREE ENERGY PREDICTED BY IDOCK:   -0.92 KCAL/MOL
REMARK 927      BINDING AFFINITY PREDICTED BY RF-SCORE:    0.00 PKD
ROOT
HETATM    1  C   UNL     1      -7.371   6.097  66.320  1.00  0.00    -0.084 C  
HETATM    2  O   UNL     1      -8.390   6.267  67.297  1.00  0.00    -0.109 OA 
ENDROOT
BRANCH   2   3
HETATM    3  C   UNL     1      -9.585   5.568  66.953  1.00  0.00    -0.141 C  
BRANCH   3   4
HETATM    4  C   UNL     1     -10.762   6.536  66.987  1.00  0.00    -0.434 C  
BRANCH   4   5
HETATM    5  C   UNL     1     -10.372   7.884  67.593  1.00  0.00    -0.241 C  
BRANCH   5   6
HETATM    6  O   UNL     1     -10.851   8.934  66.738  1.00  0.00    -0.126 OA 
BRANCH   6   7
HETATM    7  C   UNL     1     -10.673  10.209  67.224  1.00  0.00    -0.254 A  
HETATM    8  C   UNL     1      -9.930  11.110  66.437  1.00  0.00    -0.257 A  
HETATM    9  C   UNL     1      -9.272  10.640  65.170  1.00  0.00    -0.241 C  
HETATM   10  C   UNL     1      -9.871  12.450  66.857  1.00  0.00    -0.215 A  
HETATM   11  C   UNL     1     -11.187  10.622  68.451  1.00  0.00    -0.347 A  
HETATM   12  N   UNL     1     -10.424  12.860  68.034  1.00  0.00    -0.224 NA 
HETATM   13  C   UNL     1     -11.028  11.941  68.813  1.00  0.00    -0.235 A  
BRANCH  10  14
HETATM   14  C   UNL     1      -9.303  13.568  66.002  1.00  0.00     0.003 C  
BRANCH  14  15
HETATM   15  S   UNL     1     -10.603  14.448  65.103  1.00  0.00    -0.435 S  
HETATM   16  O   UNL     1     -11.972  13.880  65.344  1.00  0.00    -0.346 OA 
BRANCH  15  17
HETATM   17  C   UNL     1     -10.571  15.981  65.916  1.00  0.00    -0.328 A  
HETATM   18  N   UNL     1     -10.450  16.167  67.213  1.00  0.00    -0.306 NA 
HETATM   19  C   UNL     1     -10.361  17.531  67.375  1.00  0.00    -0.351 A  
HETATM   20  H   UNL     1     -10.427  15.454  67.942  1.00  0.00     0.000 HD 
HETATM   21  C   UNL     1     -10.217  18.289  68.548  1.00  0.00    -0.402 A  
HETATM   22  C   UNL     1     -10.082  19.680  68.441  1.00  0.00    -0.557 A  
HETATM   23  C   UNL     1     -10.093  20.306  67.192  1.00  0.00    -0.556 A  
HETATM   24  C   UNL     1     -10.264  19.571  66.012  1.00  0.00    -0.567 A  
HETATM   25  C   UNL     1     -10.407  18.186  66.148  1.00  0.00    -0.385 A  
HETATM   26  N   UNL     1     -10.601  17.176  65.241  1.00  0.00    -0.662 NA 
ENDBRANCH  15  17
ENDBRANCH  14  15
ENDBRANCH  10  14
ENDBRANCH   6   7
ENDBRANCH   5   6
ENDBRANCH   4   5
ENDBRANCH   3   4
ENDBRANCH   2   3
TORSDOF 8
ENDMDL
MODEL       44
REMARK 921   NORMALIZED FREE ENERGY PREDICTED BY IDOCK:   -5.33 KCAL/MOL
REMARK 922        TOTAL FREE ENERGY PREDICTED BY IDOCK:   -8.70 KCAL/MOL
REMARK 923 INTER-LIGAND FREE ENERGY PREDICTED BY IDOCK:   -7.73 KCAL/MOL
REMARK 924 INTRA-LIGAND FREE ENERGY PREDICTED BY IDOCK:   -0.97 KCAL/MOL
REMARK 927      BINDING AFFINITY PREDICTED BY RF-SCORE:    0.00 PKD
ROOT
HETATM    1  C   UNL     1     -12.397  11.876  63.364  1.00  0.00    -0.462 C  
HETATM    2  O   UNL     1     -12.570  13.282  63.237  1.00  0.00    -0.711 OA 
ENDROOT
BRANCH   2   3
HETATM    3  C   UNL     1     -11.953  13.997  64.306  1.00  0.00    -0.435 C  
BRANCH   3   4
HETATM    4  C   UNL     1     -12.893  14.017  65.506  1.00  0.00    -0.453 C  
BRANCH   4   5
HETATM    5  C   UNL     1     -12.148  13.759  66.816  1.00  0.00    -0.418 C  
BRANCH   5   6
HETATM    6  O   UNL     1     -11.674  12.403  66.821  1.00  0.00    -0.393 OA 
BRANCH   6   7
HETATM    7  C   UNL     1     -10.415  12.228  67.347  1.00  0.00    -0.210 A  
HETATM    8  C   UNL     1     -10.018  10.915  67.666  1.00  0.00    -0.197 A  
HETATM    9  C   UNL     1     -10.992   9.778  67.534  1.00  0.00    -0.205 C  
HETATM   10  C   UNL     1      -8.684  10.713  68.063  1.00  0.00    -0.126 A  
HETATM   11  C   UNL     1      -9.544  13.290  67.577  1.00  0.00    -0.218 A  
HETATM   12  N   UNL     1      -7.820  11.754  68.234  1.00  0.00    -0.130 NA 
HETATM   13  C   UNL     1      -8.274  13.006  68.027  1.00  0.00    -0.161 A  
BRANCH  10  14
HETATM   14  C   UNL     1      -8.059   9.340  68.220  1.00  0.00    -0.107 C  
BRANCH  14  15
HETATM   15  S   UNL     1      -7.716   8.956  69.954  1.00  0.00    -0.082 S  
HETATM   16  O   UNL     1      -7.128  10.114  70.707  1.00  0.00    -0.333 OA 
BRANCH  15  17
HETATM   17  C   UNL     1      -9.330   8.761  70.562  1.00  0.00    -0.187 A  
HETATM   18  N   UNL     1     -10.096   9.715  71.047  1.00  0.00    -0.304 NA 
HETATM   19  C   UNL     1     -11.310   9.114  71.294  1.00  0.00    -0.336 A  
HETATM   20  H   UNL     1      -9.844  10.691  71.206  1.00  0.00     0.000 HD 
HETATM   21  C   UNL     1     -12.494   9.661  71.811  1.00  0.00    -0.487 A  
HETATM   22  C   UNL     1     -13.629   8.844  71.907  1.00  0.00    -0.474 A  
HETATM   23  C   UNL     1     -13.587   7.509  71.498  1.00  0.00    -0.439 A  
HETATM   24  C   UNL     1     -12.408   6.937  71.005  1.00  0.00    -0.401 A  
HETATM   25  C   UNL     1     -11.287   7.770  70.930  1.00  0.00    -0.275 A  
HETATM   26  N   UNL     1      -9.994   7.559  70.524  1.00  0.00    -0.184 NA 
ENDBRANCH  15  17
ENDBRANCH  14  15
ENDBRANCH  10  14
ENDBRANCH   6   7
ENDBRANCH   5   6
ENDBRANCH   4   5
ENDBRANCH   3   4
ENDBRANCH   2   3
TORSDOF 8
ENDMDL
MODEL       45
REMARK 921   NORMALIZED FREE ENERGY PREDICTED BY IDOCK:   -5.32 KCAL/MOL
REMARK 922        TOTAL FREE ENERGY PREDICTED BY IDOCK:   -8.68 KCAL/MOL
REMARK 923 INTER-LIGAND FREE ENERGY PREDICTED BY IDOCK:   -7.54 KCAL/MOL
REMARK 924 INTRA-LIGAND FREE ENERGY PREDICTED BY IDOCK:   -1.14 KCAL/MOL
REMARK 927      BINDING AFFINITY PREDICTED BY RF-SCORE:    0.00 PKD
ROOT
HETATM    1  C   UNL     1     -10.986  16.347  69.094  1.00  0.00    -0.324 C  
HETATM    2  O   UNL     1     -10.606  16.841  67.816  1.00  0.00    -0.327 OA 
ENDROOT
BRANCH   2   3
HETATM    3  C   UNL     1      -9.325  16.359  67.414  1.00  0.00    -0.221 C  
BRANCH   3   4
HETATM    4  C   UNL     1      -9.313  16.161  65.903  1.00  0.00    -0.316 C  
BRANCH   4   5
HETATM    5  C   UNL     1     -10.710  15.868  65.357  1.00  0.00    -0.399 C  
BRANCH   5   6
HETATM    6  O   UNL     1     -10.705  14.572  64.737  1.00  0.00    -0.413 OA 
BRANCH   6   7
HETATM    7  C   UNL     1     -11.051  13.529  65.565  1.00  0.00    -0.294 A  
HETATM    8  C   UNL     1     -10.619  12.238  65.203  1.00  0.00    -0.320 A  
HETATM    9  C   UNL     1      -9.905  12.018  63.899  1.00  0.00    -0.266 C  
HETATM   10  C   UNL     1     -10.841  11.194  66.119  1.00  0.00    -0.185 A  
HETATM   11  C   UNL     1     -11.807  13.708  66.721  1.00  0.00    -0.452 A  
HETATM   12  N   UNL     1     -11.536  11.387  67.276  1.00  0.00    -0.560 NA 
HETATM   13  C   UNL     1     -12.031  12.616  67.529  1.00  0.00    -0.250 A  
BRANCH  10  14
HETATM   14  C   UNL     1     -10.239   9.810  65.967  1.00  0.00    -0.193 C  
BRANCH  14  15
HETATM   15  S   UNL     1      -8.842   9.562  67.089  1.00  0.00    -0.131 S  
HETATM   16  O   UNL     1      -8.149  10.843  67.456  1.00  0.00    -0.114 OA 
BRANCH  15  17
HETATM   17  C   UNL     1      -9.672   9.040  68.521  1.00  0.00    -0.159 A  
HETATM   18  N   UNL     1     -10.002   9.797  69.545  1.00  0.00    -0.200 NA 
HETATM   19  C   UNL     1     -10.734   8.980  70.377  1.00  0.00    -0.227 A  
HETATM   20  H   UNL     1      -9.765  10.778  69.691  1.00  0.00     0.000 HD 
HETATM   21  C   UNL     1     -11.338   9.266  71.611  1.00  0.00    -0.467 A  
HETATM   22  C   UNL     1     -12.095   8.267  72.239  1.00  0.00    -0.439 A  
HETATM   23  C   UNL     1     -12.246   7.007  71.653  1.00  0.00    -0.395 A  
HETATM   24  C   UNL     1     -11.629   6.695  70.435  1.00  0.00    -0.457 A  
HETATM   25  C   UNL     1     -10.871   7.705  69.836  1.00  0.00    -0.235 A  
HETATM   26  N   UNL     1     -10.132   7.755  68.680  1.00  0.00    -0.194 NA 
ENDBRANCH  15  17
ENDBRANCH  14  15
ENDBRANCH  10  14
ENDBRANCH   6   7
ENDBRANCH   5   6
ENDBRANCH   4   5
ENDBRANCH   3   4
ENDBRANCH   2   3
TORSDOF 8
ENDMDL
MODEL       46
REMARK 921   NORMALIZED FREE ENERGY PREDICTED BY IDOCK:   -5.32 KCAL/MOL
REMARK 922        TOTAL FREE ENERGY PREDICTED BY IDOCK:   -8.68 KCAL/MOL
REMARK 923 INTER-LIGAND FREE ENERGY PREDICTED BY IDOCK:   -8.06 KCAL/MOL
REMARK 924 INTRA-LIGAND FREE ENERGY PREDICTED BY IDOCK:   -0.61 KCAL/MOL
REMARK 927      BINDING AFFINITY PREDICTED BY RF-SCORE:    0.00 PKD
ROOT
HETATM    1  C   UNL     1      -9.225   1.816  63.952  1.00  0.00    -0.106 C  
HETATM    2  O   UNL     1     -10.138   2.900  64.075  1.00  0.00    -0.157 OA 
ENDROOT
BRANCH   2   3
HETATM    3  C   UNL     1      -9.533   4.045  64.672  1.00  0.00    -0.169 C  
BRANCH   3   4
HETATM    4  C   UNL     1     -10.377   4.500  65.857  1.00  0.00    -0.289 C  
BRANCH   4   5
HETATM    5  C   UNL     1      -9.583   5.387  66.815  1.00  0.00    -0.147 C  
BRANCH   5   6
HETATM    6  O   UNL     1     -10.422   6.467  67.252  1.00  0.00    -0.198 OA 
BRANCH   6   7
HETATM    7  C   UNL     1     -10.526   6.609  68.617  1.00  0.00    -0.211 A  
HETATM    8  C   UNL     1     -10.557   7.918  69.136  1.00  0.00    -0.184 A  
HETATM    9  C   UNL     1     -10.367   9.097  68.224  1.00  0.00    -0.256 C  
HETATM   10  C   UNL     1     -10.811   8.070  70.511  1.00  0.00    -0.241 A  
HETATM   11  C   UNL     1     -10.591   5.519  69.481  1.00  0.00    -0.366 A  
HETATM   12  N   UNL     1     -10.928   6.996  71.343  1.00  0.00    -0.237 NA 
HETATM   13  C   UNL     1     -10.779   5.761  70.823  1.00  0.00    -0.271 A  
BRANCH  10  14
HETATM   14  C   UNL     1     -11.093   9.409  71.164  1.00  0.00    -0.362 C  
BRANCH  14  15
HETATM   15  S   UNL     1     -12.867   9.689  71.377  1.00  0.00    -0.396 S  
HETATM   16  O   UNL     1     -13.386   9.194  72.696  1.00  0.00    -0.454 OA 
BRANCH  15  17
HETATM   17  C   UNL     1     -12.908  11.422  71.467  1.00  0.00    -0.403 A  
HETATM   18  N   UNL     1     -13.535  12.136  72.377  1.00  0.00    -0.536 NA 
HETATM   19  C   UNL     1     -13.192  13.442  72.111  1.00  0.00    -0.462 A  
HETATM   20  H   UNL     1     -14.145  11.794  73.121  1.00  0.00     0.000 HD 
HETATM   21  C   UNL     1     -13.573  14.622  72.769  1.00  0.00    -0.538 A  
HETATM   22  C   UNL     1     -13.028  15.840  72.339  1.00  0.00    -0.546 A  
HETATM   23  C   UNL     1     -12.124  15.884  71.274  1.00  0.00    -0.487 A  
HETATM   24  C   UNL     1     -11.754  14.721  70.588  1.00  0.00    -0.353 A  
HETATM   25  C   UNL     1     -12.320  13.521  71.029  1.00  0.00    -0.338 A  
HETATM   26  N   UNL     1     -12.204  12.223  70.602  1.00  0.00    -0.357 NA 
ENDBRANCH  15  17
ENDBRANCH  14  15
ENDBRANCH  10  14
ENDBRANCH   6   7
ENDBRANCH   5   6
ENDBRANCH   4   5
ENDBRANCH   3   4
ENDBRANCH   2   3
TORSDOF 8
ENDMDL
MODEL       47
REMARK 921   NORMALIZED FREE ENERGY PREDICTED BY IDOCK:   -5.31 KCAL/MOL
REMARK 922        TOTAL FREE ENERGY PREDICTED BY IDOCK:   -8.67 KCAL/MOL
REMARK 923 INTER-LIGAND FREE ENERGY PREDICTED BY IDOCK:   -7.58 KCAL/MOL
REMARK 924 INTRA-LIGAND FREE ENERGY PREDICTED BY IDOCK:   -1.09 KCAL/MOL
REMARK 927      BINDING AFFINITY PREDICTED BY RF-SCORE:    0.00 PKD
ROOT
HETATM    1  C   UNL     1      -8.673   5.514  69.665  1.00  0.00    -0.108 C  
HETATM    2  O   UNL     1      -9.896   5.346  70.370  1.00  0.00    -0.177 OA 
ENDROOT
BRANCH   2   3
HETATM    3  C   UNL     1      -9.762   4.447  71.469  1.00  0.00    -0.174 C  
BRANCH   3   4
HETATM    4  C   UNL     1     -10.080   5.184  72.764  1.00  0.00    -0.209 C  
BRANCH   4   5
HETATM    5  C   UNL     1     -11.320   6.067  72.627  1.00  0.00    -0.277 C  
BRANCH   5   6
HETATM    6  O   UNL     1     -11.016   7.377  73.130  1.00  0.00    -0.357 OA 
BRANCH   6   7
HETATM    7  C   UNL     1     -11.316   8.413  72.277  1.00  0.00    -0.378 A  
HETATM    8  C   UNL     1     -10.262   8.961  71.520  1.00  0.00    -0.398 A  
HETATM    9  C   UNL     1      -8.851   8.491  71.738  1.00  0.00    -0.278 C  
HETATM   10  C   UNL     1     -10.587   9.917  70.541  1.00  0.00    -0.293 A  
HETATM   11  C   UNL     1     -12.602   8.931  72.149  1.00  0.00    -0.467 A  
HETATM   12  N   UNL     1     -11.860  10.380  70.384  1.00  0.00    -0.302 NA 
HETATM   13  C   UNL     1     -12.819   9.912  71.207  1.00  0.00    -0.390 A  
BRANCH  10  14
HETATM   14  C   UNL     1      -9.598  10.424  69.509  1.00  0.00    -0.157 C  
BRANCH  14  15
HETATM   15  S   UNL     1      -9.650   9.437  67.993  1.00  0.00    -0.140 S  
HETATM   16  O   UNL     1     -10.647   8.317  68.055  1.00  0.00    -0.201 OA 
BRANCH  15  17
HETATM   17  C   UNL     1     -10.302  10.598  66.880  1.00  0.00    -0.236 A  
HETATM   18  N   UNL     1     -10.302  10.499  65.568  1.00  0.00    -0.251 NA 
HETATM   19  C   UNL     1     -11.019  11.587  65.123  1.00  0.00    -0.234 A  
HETATM   20  H   UNL     1      -9.864   9.772  65.002  1.00  0.00     0.000 HD 
HETATM   21  C   UNL     1     -11.336  11.979  63.814  1.00  0.00    -0.526 A  
HETATM   22  C   UNL     1     -12.147  13.106  63.624  1.00  0.00    -0.583 A  
HETATM   23  C   UNL     1     -12.631  13.832  64.715  1.00  0.00    -0.330 A  
HETATM   24  C   UNL     1     -12.303  13.474  66.029  1.00  0.00    -0.486 A  
HETATM   25  C   UNL     1     -11.485  12.351  66.189  1.00  0.00    -0.379 A  
HETATM   26  N   UNL     1     -10.961  11.730  67.295  1.00  0.00    -0.251 NA 
ENDBRANCH  15  17
ENDBRANCH  14  15
ENDBRANCH  10  14
ENDBRANCH   6   7
ENDBRANCH   5   6
ENDBRANCH   4   5
ENDBRANCH   3   4
ENDBRANCH   2   3
TORSDOF 8
ENDMDL
MODEL       48
REMARK 921   NORMALIZED FREE ENERGY PREDICTED BY IDOCK:   -5.30 KCAL/MOL
REMARK 922        TOTAL FREE ENERGY PREDICTED BY IDOCK:   -8.65 KCAL/MOL
REMARK 923 INTER-LIGAND FREE ENERGY PREDICTED BY IDOCK:   -8.06 KCAL/MOL
REMARK 924 INTRA-LIGAND FREE ENERGY PREDICTED BY IDOCK:   -0.59 KCAL/MOL
REMARK 927      BINDING AFFINITY PREDICTED BY RF-SCORE:    0.00 PKD
ROOT
HETATM    1  C   UNL     1     -10.481  19.524  65.854  1.00  0.00    -0.491 C  
HETATM    2  O   UNL     1     -10.467  20.072  67.166  1.00  0.00    -0.427 OA 
ENDROOT
BRANCH   2   3
HETATM    3  C   UNL     1      -9.910  19.169  68.119  1.00  0.00    -0.369 C  
BRANCH   3   4
HETATM    4  C   UNL     1     -10.218  17.738  67.697  1.00  0.00    -0.359 C  
BRANCH   4   5
HETATM    5  C   UNL     1     -10.666  16.879  68.879  1.00  0.00    -0.321 C  
BRANCH   5   6
HETATM    6  O   UNL     1     -11.601  15.895  68.412  1.00  0.00    -0.371 OA 
BRANCH   6   7
HETATM    7  C   UNL     1     -12.006  14.981  69.356  1.00  0.00    -0.303 A  
HETATM    8  C   UNL     1     -11.970  13.618  69.003  1.00  0.00    -0.392 A  
HETATM    9  C   UNL     1     -11.606  13.210  67.602  1.00  0.00    -0.392 C  
HETATM   10  C   UNL     1     -12.240  12.674  70.009  1.00  0.00    -0.197 A  
HETATM   11  C   UNL     1     -12.450  15.356  70.622  1.00  0.00    -0.478 A  
HETATM   12  N   UNL     1     -12.622  13.049  71.263  1.00  0.00    -0.336 NA 
HETATM   13  C   UNL     1     -12.755  14.364  71.526  1.00  0.00    -0.345 A  
BRANCH  10  14
HETATM   14  C   UNL     1     -12.021  11.183  69.835  1.00  0.00    -0.363 C  
BRANCH  14  15
HETATM   15  S   UNL     1     -12.235  10.289  71.393  1.00  0.00    -0.365 S  
HETATM   16  O   UNL     1     -13.655   9.874  71.642  1.00  0.00    -0.335 OA 
BRANCH  15  17
HETATM   17  C   UNL     1     -11.363   8.829  71.044  1.00  0.00    -0.278 A  
HETATM   18  N   UNL     1     -11.776   7.845  70.275  1.00  0.00    -0.474 NA 
HETATM   19  C   UNL     1     -10.716   6.969  70.208  1.00  0.00    -0.241 A  
HETATM   20  H   UNL     1     -12.687   7.752  69.824  1.00  0.00     0.000 HD 
HETATM   21  C   UNL     1     -10.602   5.750  69.523  1.00  0.00    -0.390 A  
HETATM   22  C   UNL     1      -9.378   5.068  69.561  1.00  0.00    -0.184 A  
HETATM   23  C   UNL     1      -8.289   5.586  70.267  1.00  0.00    -0.110 A  
HETATM   24  C   UNL     1      -8.393   6.787  70.980  1.00  0.00    -0.127 A  
HETATM   25  C   UNL     1      -9.628   7.442  70.935  1.00  0.00    -0.166 A  
HETATM   26  N   UNL     1     -10.090   8.601  71.507  1.00  0.00    -0.247 NA 
ENDBRANCH  15  17
ENDBRANCH  14  15
ENDBRANCH  10  14
ENDBRANCH   6   7
ENDBRANCH   5   6
ENDBRANCH   4   5
ENDBRANCH   3   4
ENDBRANCH   2   3
TORSDOF 8
ENDMDL
MODEL       49
REMARK 921   NORMALIZED FREE ENERGY PREDICTED BY IDOCK:   -5.30 KCAL/MOL
REMARK 922        TOTAL FREE ENERGY PREDICTED BY IDOCK:   -8.64 KCAL/MOL
REMARK 923 INTER-LIGAND FREE ENERGY PREDICTED BY IDOCK:   -7.90 KCAL/MOL
REMARK 924 INTRA-LIGAND FREE ENERGY PREDICTED BY IDOCK:   -0.75 KCAL/MOL
REMARK 927      BINDING AFFINITY PREDICTED BY RF-SCORE:    0.00 PKD
ROOT
HETATM    1  C   UNL     1      -5.469  18.532  65.227  1.00  0.00    -0.197 C  
HETATM    2  O   UNL     1      -6.777  18.992  64.912  1.00  0.00    -0.478 OA 
ENDROOT
BRANCH   2   3
HETATM    3  C   UNL     1      -7.094  20.211  65.581  1.00  0.00    -0.292 C  
BRANCH   3   4
HETATM    4  C   UNL     1      -7.974  19.908  66.787  1.00  0.00    -0.340 C  
BRANCH   4   5
HETATM    5  C   UNL     1      -9.183  19.051  66.410  1.00  0.00    -0.334 C  
BRANCH   5   6
HETATM    6  O   UNL     1      -9.029  17.748  66.994  1.00  0.00    -0.240 OA 
BRANCH   6   7
HETATM    7  C   UNL     1      -9.580  16.717  66.270  1.00  0.00    -0.299 A  
HETATM    8  C   UNL     1      -9.077  15.420  66.495  1.00  0.00    -0.334 A  
HETATM    9  C   UNL     1      -7.906  15.213  67.414  1.00  0.00    -0.224 C  
HETATM   10  C   UNL     1      -9.735  14.346  65.869  1.00  0.00    -0.276 A  
HETATM   11  C   UNL     1     -10.592  16.914  65.333  1.00  0.00    -0.177 A  
HETATM   12  N   UNL     1     -10.762  14.543  64.994  1.00  0.00    -0.401 NA 
HETATM   13  C   UNL     1     -11.136  15.809  64.719  1.00  0.00    -0.400 A  
BRANCH  10  14
HETATM   14  C   UNL     1      -9.450  12.892  66.192  1.00  0.00    -0.154 C  
BRANCH  14  15
HETATM   15  S   UNL     1     -10.901  11.849  65.914  1.00  0.00    -0.306 S  
HETATM   16  O   UNL     1     -10.658  10.759  64.911  1.00  0.00    -0.292 OA 
BRANCH  15  17
HETATM   17  C   UNL     1     -11.027  11.061  67.456  1.00  0.00    -0.281 A  
HETATM   18  N   UNL     1     -10.105  10.311  68.020  1.00  0.00    -0.156 NA 
HETATM   19  C   UNL     1     -10.602  10.004  69.267  1.00  0.00    -0.227 A  
HETATM   20  H   UNL     1      -9.213  10.020  67.620  1.00  0.00     0.000 HD 
HETATM   21  C   UNL     1     -10.035   9.234  70.294  1.00  0.00    -0.262 A  
HETATM   22  C   UNL     1     -10.722   9.124  71.511  1.00  0.00    -0.437 A  
HETATM   23  C   UNL     1     -11.949   9.765  71.703  1.00  0.00    -0.454 A  
HETATM   24  C   UNL     1     -12.543  10.514  70.680  1.00  0.00    -0.457 A  
HETATM   25  C   UNL     1     -11.843  10.599  69.473  1.00  0.00    -0.273 A  
HETATM   26  N   UNL     1     -12.116  11.217  68.279  1.00  0.00    -0.607 NA 
ENDBRANCH  15  17
ENDBRANCH  14  15
ENDBRANCH  10  14
ENDBRANCH   6   7
ENDBRANCH   5   6
ENDBRANCH   4   5
ENDBRANCH   3   4
ENDBRANCH   2   3
TORSDOF 8
ENDMDL
MODEL       50
REMARK 921   NORMALIZED FREE ENERGY PREDICTED BY IDOCK:   -5.28 KCAL/MOL
REMARK 922        TOTAL FREE ENERGY PREDICTED BY IDOCK:   -8.62 KCAL/MOL
REMARK 923 INTER-LIGAND FREE ENERGY PREDICTED BY IDOCK:   -7.91 KCAL/MOL
REMARK 924 INTRA-LIGAND FREE ENERGY PREDICTED BY IDOCK:   -0.71 KCAL/MOL
REMARK 927      BINDING AFFINITY PREDICTED BY RF-SCORE:    0.00 PKD
ROOT
HETATM    1  C   UNL     1      -8.849   6.385  72.195  1.00  0.00    -0.136 C  
HETATM    2  O   UNL     1      -9.757   6.778  73.216  1.00  0.00    -0.158 OA 
ENDROOT
BRANCH   2   3
HETATM    3  C   UNL     1     -10.808   7.601  72.713  1.00  0.00    -0.360 C  
BRANCH   3   4
HETATM    4  C   UNL     1     -10.400   8.162  71.355  1.00  0.00    -0.258 C  
BRANCH   4   5
HETATM    5  C   UNL     1     -11.516   8.997  70.727  1.00  0.00    -0.282 C  
BRANCH   5   6
HETATM    6  O   UNL     1     -11.079   9.461  69.440  1.00  0.00    -0.189 OA 
BRANCH   6   7
HETATM    7  C   UNL     1     -11.061  10.829  69.289  1.00  0.00    -0.256 A  
HETATM    8  C   UNL     1     -10.045  11.383  68.486  1.00  0.00    -0.211 A  
HETATM    9  C   UNL     1      -8.967  10.504  67.917  1.00  0.00    -0.137 C  
HETATM   10  C   UNL     1     -10.110  12.760  68.209  1.00  0.00    -0.237 A  
HETATM   11  C   UNL     1     -11.991  11.663  69.903  1.00  0.00    -0.414 A  
HETATM   12  N   UNL     1     -11.058  13.563  68.771  1.00  0.00    -0.255 NA 
HETATM   13  C   UNL     1     -11.942  13.011  69.625  1.00  0.00    -0.302 A  
BRANCH  10  14
HETATM   14  C   UNL     1      -9.224  13.448  67.187  1.00  0.00    -0.240 C  
BRANCH  14  15
HETATM   15  S   UNL     1     -10.194  14.187  65.851  1.00  0.00    -0.331 S  
HETATM   16  O   UNL     1     -11.611  13.695  65.813  1.00  0.00    -0.319 OA 
BRANCH  15  17
HETATM   17  C   UNL     1     -10.273  15.835  66.390  1.00  0.00    -0.293 A  
HETATM   18  N   UNL     1     -10.262  16.242  67.641  1.00  0.00    -0.266 NA 
HETATM   19  C   UNL     1     -10.229  17.617  67.573  1.00  0.00    -0.348 A  
HETATM   20  H   UNL     1     -10.276  15.664  68.481  1.00  0.00     0.000 HD 
HETATM   21  C   UNL     1     -10.201  18.567  68.606  1.00  0.00    -0.363 A  
HETATM   22  C   UNL     1     -10.101  19.924  68.272  1.00  0.00    -0.571 A  
HETATM   23  C   UNL     1     -10.032  20.330  66.936  1.00  0.00    -0.592 A  
HETATM   24  C   UNL     1     -10.085  19.400  65.891  1.00  0.00    -0.397 A  
HETATM   25  C   UNL     1     -10.196  18.053  66.252  1.00  0.00    -0.381 A  
HETATM   26  N   UNL     1     -10.287  16.897  65.519  1.00  0.00    -0.614 NA 
ENDBRANCH  15  17
ENDBRANCH  14  15
ENDBRANCH  10  14
ENDBRANCH   6   7
ENDBRANCH   5   6
ENDBRANCH   4   5
ENDBRANCH   3   4
ENDBRANCH   2   3
TORSDOF 8
ENDMDL
MODEL       51
REMARK 921   NORMALIZED FREE ENERGY PREDICTED BY IDOCK:   -5.26 KCAL/MOL
REMARK 922        TOTAL FREE ENERGY PREDICTED BY IDOCK:   -8.60 KCAL/MOL
REMARK 923 INTER-LIGAND FREE ENERGY PREDICTED BY IDOCK:   -7.96 KCAL/MOL
REMARK 924 INTRA-LIGAND FREE ENERGY PREDICTED BY IDOCK:   -0.63 KCAL/MOL
REMARK 927      BINDING AFFINITY PREDICTED BY RF-SCORE:    0.00 PKD
ROOT
HETATM    1  C   UNL     1      -8.056   4.245  66.118  1.00  0.00    -0.102 C  
HETATM    2  O   UNL     1      -7.856   5.599  65.729  1.00  0.00    -0.096 OA 
ENDROOT
BRANCH   2   3
HETATM    3  C   UNL     1      -8.979   6.420  66.045  1.00  0.00    -0.130 C  
BRANCH   3   4
HETATM    4  C   UNL     1      -8.621   7.880  65.795  1.00  0.00    -0.167 C  
BRANCH   4   5
HETATM    5  C   UNL     1      -9.749   8.822  66.212  1.00  0.00    -0.272 C  
BRANCH   5   6
HETATM    6  O   UNL     1      -9.686  10.008  65.405  1.00  0.00    -0.260 OA 
BRANCH   6   7
HETATM    7  C   UNL     1      -9.402  11.166  66.092  1.00  0.00    -0.206 A  
HETATM    8  C   UNL     1     -10.237  12.278  65.869  1.00  0.00    -0.274 A  
HETATM    9  C   UNL     1     -11.322  12.213  64.830  1.00  0.00    -0.378 C  
HETATM   10  C   UNL     1     -10.043  13.414  66.675  1.00  0.00    -0.275 A  
HETATM   11  C   UNL     1      -8.331  11.271  66.975  1.00  0.00    -0.153 A  
HETATM   12  N   UNL     1      -9.024  13.489  67.578  1.00  0.00    -0.199 NA 
HETATM   13  C   UNL     1      -8.178  12.444  67.678  1.00  0.00    -0.169 A  
BRANCH  10  14
HETATM   14  C   UNL     1     -11.000  14.590  66.703  1.00  0.00    -0.321 C  
BRANCH  14  15
HETATM   15  S   UNL     1     -10.333  15.972  67.661  1.00  0.00    -0.291 S  
HETATM   16  O   UNL     1     -10.613  17.308  67.039  1.00  0.00    -0.310 OA 
BRANCH  15  17
HETATM   17  C   UNL     1     -11.330  15.886  69.080  1.00  0.00    -0.371 A  
HETATM   18  N   UNL     1     -12.482  15.259  69.180  1.00  0.00    -0.602 NA 
HETATM   19  C   UNL     1     -12.840  15.371  70.505  1.00  0.00    -0.376 A  
HETATM   20  H   UNL     1     -13.000  14.792  68.435  1.00  0.00     0.000 HD 
HETATM   21  C   UNL     1     -13.975  14.885  71.172  1.00  0.00    -0.403 A  
HETATM   22  C   UNL     1     -14.077  15.075  72.556  1.00  0.00    -0.503 A  
HETATM   23  C   UNL     1     -13.071  15.738  73.264  1.00  0.00    -0.692 A  
HETATM   24  C   UNL     1     -11.944  16.254  72.613  1.00  0.00    -0.644 A  
HETATM   25  C   UNL     1     -11.873  16.060  71.230  1.00  0.00    -0.449 A  
HETATM   26  N   UNL     1     -10.950  16.428  70.283  1.00  0.00    -0.320 NA 
ENDBRANCH  15  17
ENDBRANCH  14  15
ENDBRANCH  10  14
ENDBRANCH   6   7
ENDBRANCH   5   6
ENDBRANCH   4   5
ENDBRANCH   3   4
ENDBRANCH   2   3
TORSDOF 8
ENDMDL
MODEL       52
REMARK 921   NORMALIZED FREE ENERGY PREDICTED BY IDOCK:   -5.26 KCAL/MOL
REMARK 922        TOTAL FREE ENERGY PREDICTED BY IDOCK:   -8.59 KCAL/MOL
REMARK 923 INTER-LIGAND FREE ENERGY PREDICTED BY IDOCK:   -8.00 KCAL/MOL
REMARK 924 INTRA-LIGAND FREE ENERGY PREDICTED BY IDOCK:   -0.59 KCAL/MOL
REMARK 927      BINDING AFFINITY PREDICTED BY RF-SCORE:    0.00 PKD
ROOT
HETATM    1  C   UNL     1      -9.358   8.914  71.150  1.00  0.00    -0.257 C  
HETATM    2  O   UNL     1      -9.139   8.395  69.844  1.00  0.00    -0.144 OA 
ENDROOT
BRANCH   2   3
HETATM    3  C   UNL     1     -10.362   8.126  69.162  1.00  0.00    -0.220 C  
BRANCH   3   4
HETATM    4  C   UNL     1     -10.354   8.837  67.814  1.00  0.00    -0.297 C  
BRANCH   4   5
HETATM    5  C   UNL     1     -11.045  10.199  67.884  1.00  0.00    -0.238 C  
BRANCH   5   6
HETATM    6  O   UNL     1     -10.817  10.900  66.652  1.00  0.00    -0.252 OA 
BRANCH   6   7
HETATM    7  C   UNL     1     -10.052  12.037  66.762  1.00  0.00    -0.203 A  
HETATM    8  C   UNL     1     -10.686  13.275  66.539  1.00  0.00    -0.290 A  
HETATM    9  C   UNL     1     -12.120  13.319  66.089  1.00  0.00    -0.477 C  
HETATM   10  C   UNL     1      -9.947  14.444  66.794  1.00  0.00    -0.263 A  
HETATM   11  C   UNL     1      -8.694  12.001  67.070  1.00  0.00    -0.188 A  
HETATM   12  N   UNL     1      -8.632  14.400  67.150  1.00  0.00    -0.213 NA 
HETATM   13  C   UNL     1      -8.032  13.196  67.241  1.00  0.00    -0.133 A  
BRANCH  10  14
HETATM   14  C   UNL     1     -10.561  15.831  66.815  1.00  0.00    -0.309 C  
BRANCH  14  15
HETATM   15  S   UNL     1     -10.026  16.777  68.261  1.00  0.00    -0.288 S  
HETATM   16  O   UNL     1     -10.478  18.208  68.227  1.00  0.00    -0.362 OA 
BRANCH  15  17
HETATM   17  C   UNL     1     -10.958  16.009  69.507  1.00  0.00    -0.326 A  
HETATM   18  N   UNL     1     -11.626  16.619  70.462  1.00  0.00    -0.382 NA 
HETATM   19  C   UNL     1     -12.293  15.619  71.133  1.00  0.00    -0.427 A  
HETATM   20  H   UNL     1     -11.646  17.619  70.663  1.00  0.00     0.000 HD 
HETATM   21  C   UNL     1     -13.155  15.698  72.238  1.00  0.00    -0.538 A  
HETATM   22  C   UNL     1     -13.767  14.526  72.701  1.00  0.00    -0.543 A  
HETATM   23  C   UNL     1     -13.526  13.298  72.080  1.00  0.00    -0.655 A  
HETATM   24  C   UNL     1     -12.648  13.194  70.995  1.00  0.00    -0.397 A  
HETATM   25  C   UNL     1     -12.042  14.376  70.559  1.00  0.00    -0.334 A  
HETATM   26  N   UNL     1     -11.140  14.649  69.562  1.00  0.00    -0.262 NA 
ENDBRANCH  15  17
ENDBRANCH  14  15
ENDBRANCH  10  14
ENDBRANCH   6   7
ENDBRANCH   5   6
ENDBRANCH   4   5
ENDBRANCH   3   4
ENDBRANCH   2   3
TORSDOF 8
ENDMDL
MODEL       53
REMARK 921   NORMALIZED FREE ENERGY PREDICTED BY IDOCK:   -5.25 KCAL/MOL
REMARK 922        TOTAL FREE ENERGY PREDICTED BY IDOCK:   -8.58 KCAL/MOL
REMARK 923 INTER-LIGAND FREE ENERGY PREDICTED BY IDOCK:   -7.55 KCAL/MOL
REMARK 924 INTRA-LIGAND FREE ENERGY PREDICTED BY IDOCK:   -1.02 KCAL/MOL
REMARK 927      BINDING AFFINITY PREDICTED BY RF-SCORE:    0.00 PKD
ROOT
HETATM    1  C   UNL     1     -12.416  13.804  65.306  1.00  0.00    -0.480 C  
HETATM    2  O   UNL     1     -12.416  12.406  65.565  1.00  0.00    -0.643 OA 
ENDROOT
BRANCH   2   3
HETATM    3  C   UNL     1     -11.500  12.051  66.600  1.00  0.00    -0.346 C  
BRANCH   3   4
HETATM    4  C   UNL     1     -11.401  13.199  67.598  1.00  0.00    -0.335 C  
BRANCH   4   5
HETATM    5  C   UNL     1     -11.682  12.735  69.028  1.00  0.00    -0.323 C  
BRANCH   5   6
HETATM    6  O   UNL     1     -11.032  11.473  69.243  1.00  0.00    -0.231 OA 
BRANCH   6   7
HETATM    7  C   UNL     1     -11.580  10.697  70.238  1.00  0.00    -0.336 A  
HETATM    8  C   UNL     1     -10.814   9.618  70.721  1.00  0.00    -0.400 A  
HETATM    9  C   UNL     1      -9.498   9.279  70.079  1.00  0.00    -0.236 C  
HETATM   10  C   UNL     1     -11.304   8.916  71.836  1.00  0.00    -0.376 A  
HETATM   11  C   UNL     1     -12.847  10.938  70.765  1.00  0.00    -0.378 A  
HETATM   12  N   UNL     1     -12.523   9.193  72.381  1.00  0.00    -0.325 NA 
HETATM   13  C   UNL     1     -13.274  10.159  71.816  1.00  0.00    -0.438 A  
BRANCH  10  14
HETATM   14  C   UNL     1     -10.491   7.886  72.597  1.00  0.00    -0.320 C  
BRANCH  14  15
HETATM   15  S   UNL     1     -11.112   6.209  72.323  1.00  0.00    -0.292 S  
HETATM   16  O   UNL     1     -12.610   6.124  72.360  1.00  0.00    -0.137 OA 
BRANCH  15  17
HETATM   17  C   UNL     1     -10.659   5.969  70.665  1.00  0.00    -0.260 A  
HETATM   18  N   UNL     1     -11.430   6.161  69.616  1.00  0.00    -0.411 NA 
HETATM   19  C   UNL     1     -10.614   5.955  68.526  1.00  0.00    -0.252 A  
HETATM   20  H   UNL     1     -12.419   6.409  69.611  1.00  0.00     0.000 HD 
HETATM   21  C   UNL     1     -10.910   6.030  67.156  1.00  0.00    -0.414 A  
HETATM   22  C   UNL     1      -9.875   5.838  66.231  1.00  0.00    -0.136 A  
HETATM   23  C   UNL     1      -8.571   5.574  66.659  1.00  0.00    -0.116 A  
HETATM   24  C   UNL     1      -8.262   5.468  68.020  1.00  0.00    -0.100 A  
HETATM   25  C   UNL     1      -9.315   5.653  68.922  1.00  0.00    -0.120 A  
HETATM   26  N   UNL     1      -9.388   5.609  70.291  1.00  0.00    -0.149 NA 
ENDBRANCH  15  17
ENDBRANCH  14  15
ENDBRANCH  10  14
ENDBRANCH   6   7
ENDBRANCH   5   6
ENDBRANCH   4   5
ENDBRANCH   3   4
ENDBRANCH   2   3
TORSDOF 8
ENDMDL
MODEL       54
REMARK 921   NORMALIZED FREE ENERGY PREDICTED BY IDOCK:   -5.24 KCAL/MOL
REMARK 922        TOTAL FREE ENERGY PREDICTED BY IDOCK:   -8.57 KCAL/MOL
REMARK 923 INTER-LIGAND FREE ENERGY PREDICTED BY IDOCK:   -7.56 KCAL/MOL
REMARK 924 INTRA-LIGAND FREE ENERGY PREDICTED BY IDOCK:   -1.01 KCAL/MOL
REMARK 927      BINDING AFFINITY PREDICTED BY RF-SCORE:    0.00 PKD
ROOT
HETATM    1  C   UNL     1      -7.417   4.582  70.759  1.00  0.00    -0.052 C  
HETATM    2  O   UNL     1      -8.192   4.408  71.939  1.00  0.00    -0.098 OA 
ENDROOT
BRANCH   2   3
HETATM    3  C   UNL     1      -9.193   3.405  71.781  1.00  0.00    -0.120 C  
BRANCH   3   4
HETATM    4  C   UNL     1     -10.416   3.781  72.609  1.00  0.00    -0.194 C  
BRANCH   4   5
HETATM    5  C   UNL     1     -10.534   5.293  72.796  1.00  0.00    -0.217 C  
BRANCH   5   6
HETATM    6  O   UNL     1     -11.638   5.774  72.012  1.00  0.00    -0.255 OA 
BRANCH   6   7
HETATM    7  C   UNL     1     -11.288   6.503  70.899  1.00  0.00    -0.337 A  
HETATM    8  C   UNL     1     -11.265   7.906  71.019  1.00  0.00    -0.288 A  
HETATM    9  C   UNL     1     -11.718   8.563  72.293  1.00  0.00    -0.443 C  
HETATM   10  C   UNL     1     -10.766   8.647  69.933  1.00  0.00    -0.225 A  
HETATM   11  C   UNL     1     -10.972   5.907  69.681  1.00  0.00    -0.447 A  
HETATM   12  N   UNL     1     -10.407   8.051  68.760  1.00  0.00    -0.210 NA 
HETATM   13  C   UNL     1     -10.553   6.715  68.648  1.00  0.00    -0.234 A  
BRANCH  10  14
HETATM   14  C   UNL     1     -10.474  10.134  70.001  1.00  0.00    -0.274 C  
BRANCH  14  15
HETATM   15  S   UNL     1     -11.920  11.121  69.546  1.00  0.00    -0.353 S  
HETATM   16  O   UNL     1     -11.948  12.464  70.215  1.00  0.00    -0.349 OA 
BRANCH  15  17
HETATM   17  C   UNL     1     -11.581  11.427  67.872  1.00  0.00    -0.266 A  
HETATM   18  N   UNL     1     -10.701  10.789  67.130  1.00  0.00    -0.260 NA 
HETATM   19  C   UNL     1     -10.865  11.295  65.860  1.00  0.00    -0.202 A  
HETATM   20  H   UNL     1     -10.040  10.074  67.431  1.00  0.00     0.000 HD 
HETATM   21  C   UNL     1     -10.192  10.973  64.671  1.00  0.00    -0.392 A  
HETATM   22  C   UNL     1     -10.594  11.590  63.479  1.00  0.00    -0.487 A  
HETATM   23  C   UNL     1     -11.644  12.512  63.469  1.00  0.00    -0.584 A  
HETATM   24  C   UNL     1     -12.310  12.867  64.648  1.00  0.00    -0.501 A  
HETATM   25  C   UNL     1     -11.882  12.244  65.825  1.00  0.00    -0.352 A  
HETATM   26  N   UNL     1     -12.279  12.352  67.134  1.00  0.00    -0.418 NA 
ENDBRANCH  15  17
ENDBRANCH  14  15
ENDBRANCH  10  14
ENDBRANCH   6   7
ENDBRANCH   5   6
ENDBRANCH   4   5
ENDBRANCH   3   4
ENDBRANCH   2   3
TORSDOF 8
ENDMDL
MODEL       55
REMARK 921   NORMALIZED FREE ENERGY PREDICTED BY IDOCK:   -5.24 KCAL/MOL
REMARK 922        TOTAL FREE ENERGY PREDICTED BY IDOCK:   -8.57 KCAL/MOL
REMARK 923 INTER-LIGAND FREE ENERGY PREDICTED BY IDOCK:   -7.54 KCAL/MOL
REMARK 924 INTRA-LIGAND FREE ENERGY PREDICTED BY IDOCK:   -1.03 KCAL/MOL
REMARK 927      BINDING AFFINITY PREDICTED BY RF-SCORE:    0.00 PKD
ROOT
HETATM    1  C   UNL     1     -13.506  15.665  72.924  1.00  0.00    -0.568 C  
HETATM    2  O   UNL     1     -13.076  15.696  71.569  1.00  0.00    -0.467 OA 
ENDROOT
BRANCH   2   3
HETATM    3  C   UNL     1     -11.702  16.062  71.450  1.00  0.00    -0.473 C  
BRANCH   3   4
HETATM    4  C   UNL     1     -11.083  15.317  70.273  1.00  0.00    -0.316 C  
BRANCH   4   5
HETATM    5  C   UNL     1     -11.729  15.713  68.946  1.00  0.00    -0.384 C  
BRANCH   5   6
HETATM    6  O   UNL     1     -12.278  14.538  68.328  1.00  0.00    -0.233 OA 
BRANCH   6   7
HETATM    7  C   UNL     1     -11.426  13.877  67.473  1.00  0.00    -0.340 A  
HETATM    8  C   UNL     1     -11.275  12.488  67.648  1.00  0.00    -0.332 A  
HETATM    9  C   UNL     1     -11.943  11.795  68.803  1.00  0.00    -0.317 C  
HETATM   10  C   UNL     1     -10.524  11.786  66.689  1.00  0.00    -0.224 A  
HETATM   11  C   UNL     1     -10.717  14.530  66.468  1.00  0.00    -0.312 A  
HETATM   12  N   UNL     1      -9.876  12.426  65.674  1.00  0.00    -0.248 NA 
HETATM   13  C   UNL     1      -9.954  13.770  65.610  1.00  0.00    -0.255 A  
BRANCH  10  14
HETATM   14  C   UNL     1     -10.463  10.272  66.622  1.00  0.00    -0.194 C  
BRANCH  14  15
HETATM   15  S   UNL     1      -9.016   9.622  67.492  1.00  0.00    -0.127 S  
HETATM   16  O   UNL     1      -8.155  10.699  68.085  1.00  0.00    -0.109 OA 
BRANCH  15  17
HETATM   17  C   UNL     1      -9.780   8.828  68.832  1.00  0.00    -0.172 A  
HETATM   18  N   UNL     1     -10.584   7.788  68.761  1.00  0.00    -0.340 NA 
HETATM   19  C   UNL     1     -10.847   7.445  70.068  1.00  0.00    -0.252 A  
HETATM   20  H   UNL     1     -10.937   7.335  67.918  1.00  0.00     0.000 HD 
HETATM   21  C   UNL     1     -11.644   6.409  70.581  1.00  0.00    -0.412 A  
HETATM   22  C   UNL     1     -11.699   6.225  71.969  1.00  0.00    -0.374 A  
HETATM   23  C   UNL     1     -10.977   7.055  72.831  1.00  0.00    -0.337 A  
HETATM   24  C   UNL     1     -10.199   8.111  72.340  1.00  0.00    -0.368 A  
HETATM   25  C   UNL     1     -10.171   8.279  70.952  1.00  0.00    -0.191 A  
HETATM   26  N   UNL     1      -9.547   9.189  70.136  1.00  0.00    -0.191 NA 
ENDBRANCH  15  17
ENDBRANCH  14  15
ENDBRANCH  10  14
ENDBRANCH   6   7
ENDBRANCH   5   6
ENDBRANCH   4   5
ENDBRANCH   3   4
ENDBRANCH   2   3
TORSDOF 8
ENDMDL
MODEL       56
REMARK 921   NORMALIZED FREE ENERGY PREDICTED BY IDOCK:   -5.24 KCAL/MOL
REMARK 922        TOTAL FREE ENERGY PREDICTED BY IDOCK:   -8.56 KCAL/MOL
REMARK 923 INTER-LIGAND FREE ENERGY PREDICTED BY IDOCK:   -7.81 KCAL/MOL
REMARK 924 INTRA-LIGAND FREE ENERGY PREDICTED BY IDOCK:   -0.75 KCAL/MOL
REMARK 927      BINDING AFFINITY PREDICTED BY RF-SCORE:    0.00 PKD
ROOT
HETATM    1  C   UNL     1      -8.291   9.133  64.541  1.00  0.00    -0.168 C  
HETATM    2  O   UNL     1      -9.016   9.995  63.674  1.00  0.00    -0.214 OA 
ENDROOT
BRANCH   2   3
HETATM    3  C   UNL     1      -9.816  10.931  64.395  1.00  0.00    -0.309 C  
BRANCH   3   4
HETATM    4  C   UNL     1     -10.579  11.806  63.407  1.00  0.00    -0.479 C  
BRANCH   4   5
HETATM    5  C   UNL     1     -11.962  12.186  63.934  1.00  0.00    -0.486 C  
BRANCH   5   6
HETATM    6  O   UNL     1     -11.953  13.574  64.304  1.00  0.00    -0.397 OA 
BRANCH   6   7
HETATM    7  C   UNL     1     -11.738  13.820  65.640  1.00  0.00    -0.347 A  
HETATM    8  C   UNL     1     -11.221  15.080  65.997  1.00  0.00    -0.310 A  
HETATM    9  C   UNL     1     -10.821  16.062  64.931  1.00  0.00    -0.391 C  
HETATM   10  C   UNL     1     -11.139  15.390  67.366  1.00  0.00    -0.311 A  
HETATM   11  C   UNL     1     -12.003  12.875  66.628  1.00  0.00    -0.436 A  
HETATM   12  N   UNL     1     -11.452  14.478  68.330  1.00  0.00    -0.295 NA 
HETATM   13  C   UNL     1     -11.834  13.244  67.944  1.00  0.00    -0.349 A  
BRANCH  10  14
HETATM   14  C   UNL     1     -10.817  16.777  67.890  1.00  0.00    -0.311 C  
BRANCH  14  15
HETATM   15  S   UNL     1      -9.323  16.776  68.909  1.00  0.00    -0.199 S  
HETATM   16  O   UNL     1      -8.489  15.540  68.729  1.00  0.00    -0.163 OA 
BRANCH  15  17
HETATM   17  C   UNL     1      -8.431  18.067  68.167  1.00  0.00    -0.269 A  
HETATM   18  N   UNL     1      -7.671  18.942  68.790  1.00  0.00    -0.338 NA 
HETATM   19  C   UNL     1      -7.088  19.689  67.791  1.00  0.00    -0.256 A  
HETATM   20  H   UNL     1      -7.541  19.044  69.797  1.00  0.00     0.000 HD 
HETATM   21  C   UNL     1      -6.184  20.759  67.883  1.00  0.00    -0.366 A  
HETATM   22  C   UNL     1      -5.679  21.318  66.701  1.00  0.00    -0.346 A  
HETATM   23  C   UNL     1      -6.066  20.825  65.452  1.00  0.00    -0.282 A  
HETATM   24  C   UNL     1      -6.988  19.777  65.340  1.00  0.00    -0.298 A  
HETATM   25  C   UNL     1      -7.485  19.244  66.534  1.00  0.00    -0.245 A  
HETATM   26  N   UNL     1      -8.388  18.248  66.806  1.00  0.00    -0.247 NA 
ENDBRANCH  15  17
ENDBRANCH  14  15
ENDBRANCH  10  14
ENDBRANCH   6   7
ENDBRANCH   5   6
ENDBRANCH   4   5
ENDBRANCH   3   4
ENDBRANCH   2   3
TORSDOF 8
ENDMDL
MODEL       57
REMARK 921   NORMALIZED FREE ENERGY PREDICTED BY IDOCK:   -5.23 KCAL/MOL
REMARK 922        TOTAL FREE ENERGY PREDICTED BY IDOCK:   -8.54 KCAL/MOL
REMARK 923 INTER-LIGAND FREE ENERGY PREDICTED BY IDOCK:   -7.77 KCAL/MOL
REMARK 924 INTRA-LIGAND FREE ENERGY PREDICTED BY IDOCK:   -0.77 KCAL/MOL
REMARK 927      BINDING AFFINITY PREDICTED BY RF-SCORE:    0.00 PKD
ROOT
HETATM    1  C   UNL     1     -12.481  15.816  74.229  1.00  0.00    -0.654 C  
HETATM    2  O   UNL     1     -13.339  15.874  73.097  1.00  0.00    -0.547 OA 
ENDROOT
BRANCH   2   3
HETATM    3  C   UNL     1     -13.383  14.634  72.393  1.00  0.00    -0.417 C  
BRANCH   3   4
HETATM    4  C   UNL     1     -13.230  14.897  70.900  1.00  0.00    -0.420 C  
BRANCH   4   5
HETATM    5  C   UNL     1     -11.926  15.629  70.582  1.00  0.00    -0.402 C  
BRANCH   5   6
HETATM    6  O   UNL     1     -11.808  15.771  69.158  1.00  0.00    -0.381 OA 
BRANCH   6   7
HETATM    7  C   UNL     1     -10.767  15.076  68.587  1.00  0.00    -0.244 A  
HETATM    8  C   UNL     1     -11.004  14.448  67.349  1.00  0.00    -0.303 A  
HETATM    9  C   UNL     1     -12.382  14.457  66.748  1.00  0.00    -0.204 C  
HETATM   10  C   UNL     1      -9.907  13.863  66.692  1.00  0.00    -0.284 A  
HETATM   11  C   UNL     1      -9.517  14.969  69.190  1.00  0.00    -0.195 A  
HETATM   12  N   UNL     1      -8.671  13.810  67.265  1.00  0.00    -0.210 NA 
HETATM   13  C   UNL     1      -8.514  14.323  68.502  1.00  0.00    -0.164 A  
BRANCH  10  14
HETATM   14  C   UNL     1      -9.964  13.354  65.264  1.00  0.00    -0.174 C  
BRANCH  14  15
HETATM   15  S   UNL     1     -11.014  11.888  65.119  1.00  0.00    -0.305 S  
HETATM   16  O   UNL     1     -10.572  10.954  64.030  1.00  0.00    -0.372 OA 
BRANCH  15  17
HETATM   17  C   UNL     1     -10.648  11.086  66.614  1.00  0.00    -0.262 A  
HETATM   18  N   UNL     1      -9.500  10.529  66.934  1.00  0.00    -0.163 NA 
HETATM   19  C   UNL     1      -9.646  10.126  68.243  1.00  0.00    -0.141 A  
HETATM   20  H   UNL     1      -8.678  10.419  66.340  1.00  0.00     0.000 HD 
HETATM   21  C   UNL     1      -8.733   9.479  69.090  1.00  0.00    -0.146 A  
HETATM   22  C   UNL     1      -9.104   9.232  70.419  1.00  0.00    -0.288 A  
HETATM   23  C   UNL     1     -10.359   9.619  70.896  1.00  0.00    -0.334 A  
HETATM   24  C   UNL     1     -11.293  10.241  70.059  1.00  0.00    -0.370 A  
HETATM   25  C   UNL     1     -10.902  10.466  68.735  1.00  0.00    -0.232 A  
HETATM   26  N   UNL     1     -11.541  11.022  67.656  1.00  0.00    -0.562 NA 
ENDBRANCH  15  17
ENDBRANCH  14  15
ENDBRANCH  10  14
ENDBRANCH   6   7
ENDBRANCH   5   6
ENDBRANCH   4   5
ENDBRANCH   3   4
ENDBRANCH   2   3
TORSDOF 8
ENDMDL
MODEL       58
REMARK 921   NORMALIZED FREE ENERGY PREDICTED BY IDOCK:   -5.22 KCAL/MOL
REMARK 922        TOTAL FREE ENERGY PREDICTED BY IDOCK:   -8.53 KCAL/MOL
REMARK 923 INTER-LIGAND FREE ENERGY PREDICTED BY IDOCK:   -7.79 KCAL/MOL
REMARK 924 INTRA-LIGAND FREE ENERGY PREDICTED BY IDOCK:   -0.74 KCAL/MOL
REMARK 927      BINDING AFFINITY PREDICTED BY RF-SCORE:    0.00 PKD
ROOT
HETATM    1  C   UNL     1      -7.841  20.029  67.804  1.00  0.00    -0.295 C  
HETATM    2  O   UNL     1      -8.991  19.396  68.352  1.00  0.00    -0.334 OA 
ENDROOT
BRANCH   2   3
HETATM    3  C   UNL     1     -10.055  19.308  67.407  1.00  0.00    -0.389 C  
BRANCH   3   4
HETATM    4  C   UNL     1     -10.573  17.875  67.365  1.00  0.00    -0.370 C  
BRANCH   4   5
HETATM    5  C   UNL     1     -10.627  17.332  65.937  1.00  0.00    -0.204 C  
BRANCH   5   6
HETATM    6  O   UNL     1      -9.884  16.104  65.878  1.00  0.00    -0.320 OA 
BRANCH   6   7
HETATM    7  C   UNL     1     -10.647  14.967  65.750  1.00  0.00    -0.331 A  
HETATM    8  C   UNL     1     -10.431  13.928  66.676  1.00  0.00    -0.272 A  
HETATM    9  C   UNL     1      -9.325  14.036  67.689  1.00  0.00    -0.203 C  
HETATM   10  C   UNL     1     -11.307  12.828  66.642  1.00  0.00    -0.316 A  
HETATM   11  C   UNL     1     -11.599  14.812  64.746  1.00  0.00    -0.418 A  
HETATM   12  N   UNL     1     -12.274  12.709  65.688  1.00  0.00    -0.590 NA 
HETATM   13  C   UNL     1     -12.371  13.672  64.749  1.00  0.00    -0.390 A  
BRANCH  10  14
HETATM   14  C   UNL     1     -11.337  11.752  67.710  1.00  0.00    -0.289 C  
BRANCH  14  15
HETATM   15  S   UNL     1     -10.516  10.238  67.156  1.00  0.00    -0.252 S  
HETATM   16  O   UNL     1      -9.030  10.392  67.019  1.00  0.00    -0.139 OA 
BRANCH  15  17
HETATM   17  C   UNL     1     -10.766   9.217  68.538  1.00  0.00    -0.142 A  
HETATM   18  N   UNL     1     -10.598   7.913  68.578  1.00  0.00    -0.358 NA 
HETATM   19  C   UNL     1     -10.802   7.563  69.894  1.00  0.00    -0.240 A  
HETATM   20  H   UNL     1     -10.368   7.294  67.801  1.00  0.00     0.000 HD 
HETATM   21  C   UNL     1     -10.746   6.301  70.507  1.00  0.00    -0.327 A  
HETATM   22  C   UNL     1     -10.929   6.216  71.894  1.00  0.00    -0.311 A  
HETATM   23  C   UNL     1     -11.165   7.362  72.657  1.00  0.00    -0.379 A  
HETATM   24  C   UNL     1     -11.251   8.626  72.061  1.00  0.00    -0.434 A  
HETATM   25  C   UNL     1     -11.076   8.682  70.675  1.00  0.00    -0.249 A  
HETATM   26  N   UNL     1     -11.106   9.715  69.772  1.00  0.00    -0.236 NA 
ENDBRANCH  15  17
ENDBRANCH  14  15
ENDBRANCH  10  14
ENDBRANCH   6   7
ENDBRANCH   5   6
ENDBRANCH   4   5
ENDBRANCH   3   4
ENDBRANCH   2   3
TORSDOF 8
ENDMDL
MODEL       59
REMARK 921   NORMALIZED FREE ENERGY PREDICTED BY IDOCK:   -5.21 KCAL/MOL
REMARK 922        TOTAL FREE ENERGY PREDICTED BY IDOCK:   -8.52 KCAL/MOL
REMARK 923 INTER-LIGAND FREE ENERGY PREDICTED BY IDOCK:   -7.71 KCAL/MOL
REMARK 924 INTRA-LIGAND FREE ENERGY PREDICTED BY IDOCK:   -0.81 KCAL/MOL
REMARK 927      BINDING AFFINITY PREDICTED BY RF-SCORE:    0.00 PKD
ROOT
HETATM    1  C   UNL     1     -12.658  15.813  73.667  1.00  0.00    -0.592 C  
HETATM    2  O   UNL     1     -12.237  16.319  72.406  1.00  0.00    -0.490 OA 
ENDROOT
BRANCH   2   3
HETATM    3  C   UNL     1     -12.807  15.593  71.319  1.00  0.00    -0.487 C  
BRANCH   3   4
HETATM    4  C   UNL     1     -11.797  15.516  70.181  1.00  0.00    -0.378 C  
BRANCH   4   5
HETATM    5  C   UNL     1     -12.476  15.284  68.831  1.00  0.00     0.181 C  
BRANCH   5   6
HETATM    6  O   UNL     1     -11.490  15.380  67.792  1.00  0.00    -0.334 OA 
BRANCH   6   7
HETATM    7  C   UNL     1     -11.488  14.340  66.892  1.00  0.00    -0.363 A  
HETATM    8  C   UNL     1     -10.314  13.570  66.786  1.00  0.00    -0.264 A  
HETATM    9  C   UNL     1      -9.083  13.960  67.556  1.00  0.00    -0.201 C  
HETATM   10  C   UNL     1     -10.356  12.419  65.979  1.00  0.00    -0.251 A  
HETATM   11  C   UNL     1     -12.588  14.038  66.092  1.00  0.00    -0.407 A  
HETATM   12  N   UNL     1     -11.457  12.099  65.241  1.00  0.00    -0.344 NA 
HETATM   13  C   UNL     1     -12.520  12.927  65.283  1.00  0.00    -0.493 A  
BRANCH  10  14
HETATM   14  C   UNL     1      -9.250  11.381  65.947  1.00  0.00    -0.216 C  
BRANCH  14  15
HETATM   15  S   UNL     1      -9.776   9.870  65.104  1.00  0.00    -0.262 S  
HETATM   16  O   UNL     1      -8.658   9.186  64.372  1.00  0.00    -0.186 OA 
BRANCH  15  17
HETATM   17  C   UNL     1     -10.147   8.859  66.465  1.00  0.00    -0.286 A  
HETATM   18  N   UNL     1     -10.208   7.544  66.460  1.00  0.00    -0.485 NA 
HETATM   19  C   UNL     1     -10.419   7.187  67.772  1.00  0.00    -0.223 A  
HETATM   20  H   UNL     1     -10.119   6.923  65.655  1.00  0.00     0.000 HD 
HETATM   21  C   UNL     1     -10.560   5.913  68.344  1.00  0.00    -0.314 A  
HETATM   22  C   UNL     1     -10.702   5.810  69.735  1.00  0.00    -0.418 A  
HETATM   23  C   UNL     1     -10.706   6.952  70.541  1.00  0.00    -0.267 A  
HETATM   24  C   UNL     1     -10.593   8.232  69.987  1.00  0.00    -0.235 A  
HETATM   25  C   UNL     1     -10.464   8.308  68.596  1.00  0.00    -0.168 A  
HETATM   26  N   UNL     1     -10.348   9.362  67.727  1.00  0.00    -0.223 NA 
ENDBRANCH  15  17
ENDBRANCH  14  15
ENDBRANCH  10  14
ENDBRANCH   6   7
ENDBRANCH   5   6
ENDBRANCH   4   5
ENDBRANCH   3   4
ENDBRANCH   2   3
TORSDOF 8
ENDMDL
MODEL       60
REMARK 921   NORMALIZED FREE ENERGY PREDICTED BY IDOCK:   -5.20 KCAL/MOL
REMARK 922        TOTAL FREE ENERGY PREDICTED BY IDOCK:   -8.51 KCAL/MOL
REMARK 923 INTER-LIGAND FREE ENERGY PREDICTED BY IDOCK:   -7.85 KCAL/MOL
REMARK 924 INTRA-LIGAND FREE ENERGY PREDICTED BY IDOCK:   -0.66 KCAL/MOL
REMARK 927      BINDING AFFINITY PREDICTED BY RF-SCORE:    0.00 PKD
ROOT
HETATM    1  C   UNL     1     -10.609  17.051  69.129  1.00  0.00    -0.303 C  
HETATM    2  O   UNL     1     -10.855  16.927  67.733  1.00  0.00    -0.345 OA 
ENDROOT
BRANCH   2   3
HETATM    3  C   UNL     1      -9.719  16.426  67.031  1.00  0.00    -0.248 C  
BRANCH   3   4
HETATM    4  C   UNL     1     -10.186  15.490  65.922  1.00  0.00    -0.367 C  
BRANCH   4   5
HETATM    5  C   UNL     1     -11.523  14.830  66.260  1.00  0.00    -0.316 C  
BRANCH   5   6
HETATM    6  O   UNL     1     -11.296  13.441  66.548  1.00  0.00    -0.304 OA 
BRANCH   6   7
HETATM    7  C   UNL     1     -11.569  13.061  67.841  1.00  0.00    -0.342 A  
HETATM    8  C   UNL     1     -11.389  11.705  68.175  1.00  0.00    -0.358 A  
HETATM    9  C   UNL     1     -11.019  10.708  67.112  1.00  0.00    -0.312 C  
HETATM   10  C   UNL     1     -11.524  11.340  69.526  1.00  0.00    -0.307 A  
HETATM   11  C   UNL     1     -12.019  13.958  68.807  1.00  0.00    -0.393 A  
HETATM   12  N   UNL     1     -11.912  12.237  70.478  1.00  0.00    -0.292 NA 
HETATM   13  C   UNL     1     -12.185  13.500  70.095  1.00  0.00    -0.330 A  
BRANCH  10  14
HETATM   14  C   UNL     1     -11.142   9.974  70.064  1.00  0.00    -0.295 C  
BRANCH  14  15
HETATM   15  S   UNL     1     -12.152   9.512  71.492  1.00  0.00    -0.411 S  
HETATM   16  O   UNL     1     -13.601   9.324  71.151  1.00  0.00    -0.292 OA 
BRANCH  15  17
HETATM   17  C   UNL     1     -11.528   7.927  71.823  1.00  0.00    -0.269 A  
HETATM   18  N   UNL     1     -11.967   7.099  72.747  1.00  0.00    -0.520 NA 
HETATM   19  C   UNL     1     -11.251   5.937  72.561  1.00  0.00    -0.294 A  
HETATM   20  H   UNL     1     -12.684   7.279  73.450  1.00  0.00     0.000 HD 
HETATM   21  C   UNL     1     -11.312   4.723  73.262  1.00  0.00    -0.408 A  
HETATM   22  C   UNL     1     -10.515   3.654  72.831  1.00  0.00    -0.239 A  
HETATM   23  C   UNL     1      -9.672   3.790  71.724  1.00  0.00    -0.245 A  
HETATM   24  C   UNL     1      -9.577   5.001  71.029  1.00  0.00    -0.232 A  
HETATM   25  C   UNL     1     -10.375   6.055  71.486  1.00  0.00    -0.214 A  
HETATM   26  N   UNL     1     -10.529   7.354  71.074  1.00  0.00    -0.214 NA 
ENDBRANCH  15  17
ENDBRANCH  14  15
ENDBRANCH  10  14
ENDBRANCH   6   7
ENDBRANCH   5   6
ENDBRANCH   4   5
ENDBRANCH   3   4
ENDBRANCH   2   3
TORSDOF 8
ENDMDL
MODEL       61
REMARK 921   NORMALIZED FREE ENERGY PREDICTED BY IDOCK:   -5.20 KCAL/MOL
REMARK 922        TOTAL FREE ENERGY PREDICTED BY IDOCK:   -8.50 KCAL/MOL
REMARK 923 INTER-LIGAND FREE ENERGY PREDICTED BY IDOCK:   -7.77 KCAL/MOL
REMARK 924 INTRA-LIGAND FREE ENERGY PREDICTED BY IDOCK:   -0.74 KCAL/MOL
REMARK 927      BINDING AFFINITY PREDICTED BY RF-SCORE:    0.00 PKD
ROOT
HETATM    1  C   UNL     1     -13.100  10.541  71.497  1.00  0.00    -0.430 C  
HETATM    2  O   UNL     1     -13.533   9.317  72.077  1.00  0.00    -0.391 OA 
ENDROOT
BRANCH   2   3
HETATM    3  C   UNL     1     -12.459   8.394  72.246  1.00  0.00    -0.361 C  
BRANCH   3   4
HETATM    4  C   UNL     1     -12.698   7.177  71.361  1.00  0.00    -0.433 C  
BRANCH   4   5
HETATM    5  C   UNL     1     -11.410   6.701  70.688  1.00  0.00    -0.347 C  
BRANCH   5   6
HETATM    6  O   UNL     1     -10.609   7.846  70.355  1.00  0.00    -0.218 OA 
BRANCH   6   7
HETATM    7  C   UNL     1     -10.474   8.090  69.008  1.00  0.00    -0.199 A  
HETATM    8  C   UNL     1     -10.277   9.425  68.604  1.00  0.00    -0.222 A  
HETATM    9  C   UNL     1     -10.328  10.536  69.615  1.00  0.00    -0.231 C  
HETATM   10  C   UNL     1      -9.991   9.662  67.248  1.00  0.00    -0.197 A  
HETATM   11  C   UNL     1     -10.536   7.079  68.052  1.00  0.00    -0.260 A  
HETATM   12  N   UNL     1      -9.999   8.658  66.325  1.00  0.00    -0.266 NA 
HETATM   13  C   UNL     1     -10.306   7.411  66.736  1.00  0.00    -0.251 A  
BRANCH  10  14
HETATM   14  C   UNL     1      -9.538  11.007  66.713  1.00  0.00    -0.190 C  
BRANCH  14  15
HETATM   15  S   UNL     1     -10.939  12.018  66.174  1.00  0.00    -0.313 S  
HETATM   16  O   UNL     1     -12.155  11.844  67.037  1.00  0.00    -0.600 OA 
BRANCH  15  17
HETATM   17  C   UNL     1     -10.333  13.608  66.515  1.00  0.00    -0.282 A  
HETATM   18  N   UNL     1      -9.147  14.073  66.184  1.00  0.00    -0.495 NA 
HETATM   19  C   UNL     1      -9.162  15.398  66.558  1.00  0.00    -0.292 A  
HETATM   20  H   UNL     1      -8.381  13.561  65.746  1.00  0.00     0.000 HD 
HETATM   21  C   UNL     1      -8.161  16.375  66.438  1.00  0.00    -0.366 A  
HETATM   22  C   UNL     1      -8.448  17.687  66.839  1.00  0.00    -0.261 A  
HETATM   23  C   UNL     1      -9.705  18.021  67.351  1.00  0.00    -0.296 A  
HETATM   24  C   UNL     1     -10.707  17.055  67.503  1.00  0.00    -0.266 A  
HETATM   25  C   UNL     1     -10.391  15.752  67.106  1.00  0.00    -0.291 A  
HETATM   26  N   UNL     1     -11.097  14.575  67.121  1.00  0.00    -0.311 NA 
ENDBRANCH  15  17
ENDBRANCH  14  15
ENDBRANCH  10  14
ENDBRANCH   6   7
ENDBRANCH   5   6
ENDBRANCH   4   5
ENDBRANCH   3   4
ENDBRANCH   2   3
TORSDOF 8
ENDMDL
MODEL       62
REMARK 921   NORMALIZED FREE ENERGY PREDICTED BY IDOCK:   -5.20 KCAL/MOL
REMARK 922        TOTAL FREE ENERGY PREDICTED BY IDOCK:   -8.50 KCAL/MOL
REMARK 923 INTER-LIGAND FREE ENERGY PREDICTED BY IDOCK:   -7.76 KCAL/MOL
REMARK 924 INTRA-LIGAND FREE ENERGY PREDICTED BY IDOCK:   -0.74 KCAL/MOL
REMARK 927      BINDING AFFINITY PREDICTED BY RF-SCORE:    0.00 PKD
ROOT
HETATM    1  C   UNL     1     -13.077  15.265  71.435  1.00  0.00    -0.454 C  
HETATM    2  O   UNL     1     -11.989  16.050  70.961  1.00  0.00    -0.403 OA 
ENDROOT
BRANCH   2   3
HETATM    3  C   UNL     1     -11.642  15.729  69.615  1.00  0.00    -0.358 C  
BRANCH   3   4
HETATM    4  C   UNL     1     -12.035  14.285  69.325  1.00  0.00    -0.375 C  
BRANCH   4   5
HETATM    5  C   UNL     1     -11.645  13.864  67.909  1.00  0.00    -0.342 C  
BRANCH   5   6
HETATM    6  O   UNL     1     -12.217  12.575  67.634  1.00  0.00    -0.401 OA 
BRANCH   6   7
HETATM    7  C   UNL     1     -11.422  11.731  66.892  1.00  0.00    -0.293 A  
HETATM    8  C   UNL     1     -10.857  10.622  67.551  1.00  0.00    -0.351 A  
HETATM    9  C   UNL     1     -11.037  10.450  69.033  1.00  0.00    -0.297 C  
HETATM   10  C   UNL     1     -10.168   9.678  66.768  1.00  0.00    -0.239 A  
HETATM   11  C   UNL     1     -11.158  11.943  65.542  1.00  0.00    -0.356 A  
HETATM   12  N   UNL     1      -9.960   9.866  65.433  1.00  0.00    -0.316 NA 
HETATM   13  C   UNL     1     -10.420  10.998  64.865  1.00  0.00    -0.303 A  
BRANCH  10  14
HETATM   14  C   UNL     1      -9.705   8.334  67.297  1.00  0.00    -0.177 C  
BRANCH  14  15
HETATM   15  S   UNL     1     -11.032   7.107  67.258  1.00  0.00    -0.164 S  
HETATM   16  O   UNL     1     -10.724   5.936  66.371  1.00  0.00    -0.211 OA 
BRANCH  15  17
HETATM   17  C   UNL     1     -10.959   6.507  68.885  1.00  0.00    -0.314 A  
HETATM   18  N   UNL     1     -11.765   6.839  69.870  1.00  0.00    -0.627 NA 
HETATM   19  C   UNL     1     -11.397   6.035  70.925  1.00  0.00    -0.229 A  
HETATM   20  H   UNL     1     -12.504   7.543  69.855  1.00  0.00     0.000 HD 
HETATM   21  C   UNL     1     -11.922   5.963  72.225  1.00  0.00    -0.211 A  
HETATM   22  C   UNL     1     -11.410   5.002  73.107  1.00  0.00    -0.397 A  
HETATM   23  C   UNL     1     -10.395   4.130  72.706  1.00  0.00    -0.243 A  
HETATM   24  C   UNL     1      -9.839   4.205  71.423  1.00  0.00    -0.254 A  
HETATM   25  C   UNL     1     -10.360   5.180  70.566  1.00  0.00    -0.243 A  
HETATM   26  N   UNL     1     -10.061   5.545  69.278  1.00  0.00    -0.201 NA 
ENDBRANCH  15  17
ENDBRANCH  14  15
ENDBRANCH  10  14
ENDBRANCH   6   7
ENDBRANCH   5   6
ENDBRANCH   4   5
ENDBRANCH   3   4
ENDBRANCH   2   3
TORSDOF 8
ENDMDL
MODEL       63
REMARK 921   NORMALIZED FREE ENERGY PREDICTED BY IDOCK:   -5.19 KCAL/MOL
REMARK 922        TOTAL FREE ENERGY PREDICTED BY IDOCK:   -8.49 KCAL/MOL
REMARK 923 INTER-LIGAND FREE ENERGY PREDICTED BY IDOCK:   -7.61 KCAL/MOL
REMARK 924 INTRA-LIGAND FREE ENERGY PREDICTED BY IDOCK:   -0.88 KCAL/MOL
REMARK 927      BINDING AFFINITY PREDICTED BY RF-SCORE:    0.00 PKD
ROOT
HETATM    1  C   UNL     1     -10.735  19.802  65.824  1.00  0.00    -0.370 C  
HETATM    2  O   UNL     1     -10.636  18.404  65.579  1.00  0.00    -0.627 OA 
ENDROOT
BRANCH   2   3
HETATM    3  C   UNL     1      -9.889  17.734  66.592  1.00  0.00    -0.322 C  
BRANCH   3   4
HETATM    4  C   UNL     1      -9.483  16.354  66.087  1.00  0.00    -0.363 C  
BRANCH   4   5
HETATM    5  C   UNL     1     -10.601  15.689  65.287  1.00  0.00    -0.426 C  
BRANCH   5   6
HETATM    6  O   UNL     1     -10.973  14.464  65.938  1.00  0.00    -0.301 OA 
BRANCH   6   7
HETATM    7  C   UNL     1     -10.487  13.320  65.348  1.00  0.00    -0.297 A  
HETATM    8  C   UNL     1      -9.728  12.445  66.150  1.00  0.00    -0.254 A  
HETATM    9  C   UNL     1      -9.381  12.824  67.562  1.00  0.00    -0.189 C  
HETATM   10  C   UNL     1      -9.355  11.208  65.596  1.00  0.00    -0.219 A  
HETATM   11  C   UNL     1     -10.710  13.013  64.008  1.00  0.00    -0.387 A  
HETATM   12  N   UNL     1      -9.625  10.891  64.297  1.00  0.00    -0.250 NA 
HETATM   13  C   UNL     1     -10.254  11.805  63.531  1.00  0.00    -0.450 A  
BRANCH  10  14
HETATM   14  C   UNL     1      -8.737  10.083  66.405  1.00  0.00    -0.129 C  
BRANCH  14  15
HETATM   15  S   UNL     1      -9.758   8.590  66.363  1.00  0.00    -0.241 S  
HETATM   16  O   UNL     1      -8.962   7.342  66.116  1.00  0.00    -0.165 OA 
BRANCH  15  17
HETATM   17  C   UNL     1     -10.272   8.510  68.019  1.00  0.00    -0.213 A  
HETATM   18  N   UNL     1     -10.549   9.537  68.794  1.00  0.00    -0.221 NA 
HETATM   19  C   UNL     1     -11.016   8.987  69.967  1.00  0.00    -0.214 A  
HETATM   20  H   UNL     1     -10.440  10.527  68.574  1.00  0.00     0.000 HD 
HETATM   21  C   UNL     1     -11.459   9.618  71.140  1.00  0.00    -0.456 A  
HETATM   22  C   UNL     1     -11.955   8.827  72.186  1.00  0.00    -0.436 A  
HETATM   23  C   UNL     1     -12.007   7.435  72.068  1.00  0.00    -0.333 A  
HETATM   24  C   UNL     1     -11.544   6.786  70.917  1.00  0.00    -0.403 A  
HETATM   25  C   UNL     1     -11.045   7.598  69.894  1.00  0.00    -0.150 A  
HETATM   26  N   UNL     1     -10.508   7.320  68.662  1.00  0.00    -0.197 NA 
ENDBRANCH  15  17
ENDBRANCH  14  15
ENDBRANCH  10  14
ENDBRANCH   6   7
ENDBRANCH   5   6
ENDBRANCH   4   5
ENDBRANCH   3   4
ENDBRANCH   2   3
TORSDOF 8
ENDMDL
MODEL       64
REMARK 921   NORMALIZED FREE ENERGY PREDICTED BY IDOCK:   -5.17 KCAL/MOL
REMARK 922        TOTAL FREE ENERGY PREDICTED BY IDOCK:   -8.46 KCAL/MOL
REMARK 923 INTER-LIGAND FREE ENERGY PREDICTED BY IDOCK:   -7.44 KCAL/MOL
REMARK 924 INTRA-LIGAND FREE ENERGY PREDICTED BY IDOCK:   -1.03 KCAL/MOL
REMARK 927      BINDING AFFINITY PREDICTED BY RF-SCORE:    0.00 PKD
ROOT
HETATM    1  C   UNL     1     -10.462   3.629  63.801  1.00  0.00    -0.266 C  
HETATM    2  O   UNL     1     -10.275   4.159  65.108  1.00  0.00    -0.224 OA 
ENDROOT
BRANCH   2   3
HETATM    3  C   UNL     1      -9.087   4.942  65.204  1.00  0.00    -0.144 C  
BRANCH   3   4
HETATM    4  C   UNL     1      -9.028   5.600  66.578  1.00  0.00    -0.126 C  
BRANCH   4   5
HETATM    5  C   UNL     1     -10.422   5.930  67.110  1.00  0.00    -0.272 C  
BRANCH   5   6
HETATM    6  O   UNL     1     -10.740   7.289  66.770  1.00  0.00    -0.311 OA 
BRANCH   6   7
HETATM    7  C   UNL     1     -10.533   8.205  67.775  1.00  0.00    -0.214 A  
HETATM    8  C   UNL     1     -10.006   9.461  67.415  1.00  0.00    -0.252 A  
HETATM    9  C   UNL     1      -9.587   9.726  65.996  1.00  0.00    -0.296 C  
HETATM   10  C   UNL     1      -9.932  10.449  68.412  1.00  0.00    -0.162 A  
HETATM   11  C   UNL     1     -10.815   7.929  69.111  1.00  0.00    -0.054 A  
HETATM   12  N   UNL     1     -10.261  10.188  69.710  1.00  0.00    -0.246 NA 
HETATM   13  C   UNL     1     -10.653   8.939  70.033  1.00  0.00    -0.220 A  
BRANCH  10  14
HETATM   14  C   UNL     1      -9.600  11.901  68.125  1.00  0.00    -0.195 C  
BRANCH  14  15
HETATM   15  S   UNL     1     -11.044  12.811  67.527  1.00  0.00    -0.277 S  
HETATM   16  O   UNL     1     -12.106  11.917  66.955  1.00  0.00    -0.599 OA 
BRANCH  15  17
HETATM   17  C   UNL     1     -11.682  13.415  69.024  1.00  0.00    -0.323 A  
HETATM   18  N   UNL     1     -12.245  12.697  69.972  1.00  0.00    -0.244 NA 
HETATM   19  C   UNL     1     -12.487  13.580  70.999  1.00  0.00    -0.369 A  
HETATM   20  H   UNL     1     -12.458  11.699  69.949  1.00  0.00     0.000 HD 
HETATM   21  C   UNL     1     -13.070  13.358  72.256  1.00  0.00    -0.484 A  
HETATM   22  C   UNL     1     -13.145  14.424  73.163  1.00  0.00    -0.490 A  
HETATM   23  C   UNL     1     -12.653  15.687  72.826  1.00  0.00    -0.536 A  
HETATM   24  C   UNL     1     -12.094  15.936  71.567  1.00  0.00    -0.533 A  
HETATM   25  C   UNL     1     -12.041  14.858  70.677  1.00  0.00    -0.307 A  
HETATM   26  N   UNL     1     -11.587  14.735  69.388  1.00  0.00    -0.292 NA 
ENDBRANCH  15  17
ENDBRANCH  14  15
ENDBRANCH  10  14
ENDBRANCH   6   7
ENDBRANCH   5   6
ENDBRANCH   4   5
ENDBRANCH   3   4
ENDBRANCH   2   3
TORSDOF 8
ENDMDL
MODEL       65
REMARK 921   NORMALIZED FREE ENERGY PREDICTED BY IDOCK:   -5.17 KCAL/MOL
REMARK 922        TOTAL FREE ENERGY PREDICTED BY IDOCK:   -8.46 KCAL/MOL
REMARK 923 INTER-LIGAND FREE ENERGY PREDICTED BY IDOCK:   -7.57 KCAL/MOL
REMARK 924 INTRA-LIGAND FREE ENERGY PREDICTED BY IDOCK:   -0.89 KCAL/MOL
REMARK 927      BINDING AFFINITY PREDICTED BY RF-SCORE:    0.00 PKD
ROOT
HETATM    1  C   UNL     1      -8.465   5.229  70.451  1.00  0.00    -0.115 C  
HETATM    2  O   UNL     1      -9.167   5.697  71.596  1.00  0.00    -0.142 OA 
ENDROOT
BRANCH   2   3
HETATM    3  C   UNL     1     -10.567   5.441  71.509  1.00  0.00    -0.216 C  
BRANCH   3   4
HETATM    4  C   UNL     1     -11.296   6.262  72.567  1.00  0.00    -0.313 C  
BRANCH   4   5
HETATM    5  C   UNL     1     -10.552   7.557  72.894  1.00  0.00    -0.337 C  
BRANCH   5   6
HETATM    6  O   UNL     1     -11.317   8.668  72.402  1.00  0.00    -0.359 OA 
BRANCH   6   7
HETATM    7  C   UNL     1     -10.812   9.269  71.272  1.00  0.00    -0.347 A  
HETATM    8  C   UNL     1     -11.678  10.097  70.531  1.00  0.00    -0.407 A  
HETATM    9  C   UNL     1     -13.125  10.215  70.918  1.00  0.00    -0.412 C  
HETATM   10  C   UNL     1     -11.128  10.828  69.463  1.00  0.00    -0.278 A  
HETATM   11  C   UNL     1      -9.501   9.078  70.843  1.00  0.00    -0.331 A  
HETATM   12  N   UNL     1      -9.828  10.677  69.082  1.00  0.00    -0.212 NA 
HETATM   13  C   UNL     1      -9.063   9.788  69.748  1.00  0.00    -0.225 A  
BRANCH  10  14
HETATM   14  C   UNL     1     -11.880  11.919  68.725  1.00  0.00    -0.313 C  
BRANCH  14  15
HETATM   15  S   UNL     1     -11.190  12.209  67.078  1.00  0.00    -0.334 S  
HETATM   16  O   UNL     1     -12.233  12.223  65.998  1.00  0.00    -0.646 OA 
BRANCH  15  17
HETATM   17  C   UNL     1     -10.651  13.850  67.243  1.00  0.00    -0.276 A  
HETATM   18  N   UNL     1      -9.911  14.513  66.381  1.00  0.00    -0.278 NA 
HETATM   19  C   UNL     1      -9.836  15.794  66.879  1.00  0.00    -0.236 A  
HETATM   20  H   UNL     1      -9.484  14.154  65.526  1.00  0.00     0.000 HD 
HETATM   21  C   UNL     1      -9.176  16.921  66.363  1.00  0.00    -0.308 A  
HETATM   22  C   UNL     1      -9.307  18.145  67.033  1.00  0.00    -0.270 A  
HETATM   23  C   UNL     1     -10.078  18.247  68.194  1.00  0.00    -0.397 A  
HETATM   24  C   UNL     1     -10.721  17.129  68.739  1.00  0.00    -0.289 A  
HETATM   25  C   UNL     1     -10.565  15.918  68.058  1.00  0.00    -0.287 A  
HETATM   26  N   UNL     1     -11.024  14.647  68.298  1.00  0.00    -0.245 NA 
ENDBRANCH  15  17
ENDBRANCH  14  15
ENDBRANCH  10  14
ENDBRANCH   6   7
ENDBRANCH   5   6
ENDBRANCH   4   5
ENDBRANCH   3   4
ENDBRANCH   2   3
TORSDOF 8
ENDMDL
MODEL       66
REMARK 921   NORMALIZED FREE ENERGY PREDICTED BY IDOCK:   -5.16 KCAL/MOL
REMARK 922        TOTAL FREE ENERGY PREDICTED BY IDOCK:   -8.45 KCAL/MOL
REMARK 923 INTER-LIGAND FREE ENERGY PREDICTED BY IDOCK:   -7.66 KCAL/MOL
REMARK 924 INTRA-LIGAND FREE ENERGY PREDICTED BY IDOCK:   -0.80 KCAL/MOL
REMARK 927      BINDING AFFINITY PREDICTED BY RF-SCORE:    0.00 PKD
ROOT
HETATM    1  C   UNL     1      -7.453   7.739  63.414  1.00  0.00    -0.115 C  
HETATM    2  O   UNL     1      -8.313   8.133  64.476  1.00  0.00    -0.140 OA 
ENDROOT
BRANCH   2   3
HETATM    3  C   UNL     1      -8.440   9.551  64.565  1.00  0.00    -0.181 C  
BRANCH   3   4
HETATM    4  C   UNL     1      -9.099  10.078  63.296  1.00  0.00    -0.300 C  
BRANCH   4   5
HETATM    5  C   UNL     1     -10.093  11.200  63.595  1.00  0.00    -0.379 C  
BRANCH   5   6
HETATM    6  O   UNL     1     -10.770  10.906  64.827  1.00  0.00    -0.292 OA 
BRANCH   6   7
HETATM    7  C   UNL     1     -11.324  11.994  65.461  1.00  0.00    -0.328 A  
HETATM    8  C   UNL     1     -10.735  12.414  66.670  1.00  0.00    -0.263 A  
HETATM    9  C   UNL     1      -9.616  11.618  67.282  1.00  0.00    -0.182 C  
HETATM   10  C   UNL     1     -11.202  13.609  67.244  1.00  0.00    -0.309 A  
HETATM   11  C   UNL     1     -12.431  12.672  64.959  1.00  0.00    -0.556 A  
HETATM   12  N   UNL     1     -12.253  14.298  66.716  1.00  0.00    -0.423 NA 
HETATM   13  C   UNL     1     -12.862  13.799  65.621  1.00  0.00    -0.408 A  
BRANCH  10  14
HETATM   14  C   UNL     1     -10.520  14.296  68.412  1.00  0.00    -0.249 C  
BRANCH  14  15
HETATM   15  S   UNL     1     -11.468  15.722  68.996  1.00  0.00    -0.403 S  
HETATM   16  O   UNL     1     -11.578  15.781  70.492  1.00  0.00    -0.314 OA 
BRANCH  15  17
HETATM   17  C   UNL     1     -10.405  17.017  68.543  1.00  0.00    -0.359 A  
HETATM   18  N   UNL     1      -9.312  17.381  69.178  1.00  0.00    -0.091 NA 
HETATM   19  C   UNL     1      -8.750  18.365  68.396  1.00  0.00    -0.317 A  
HETATM   20  H   UNL     1      -8.957  17.013  70.062  1.00  0.00     0.000 HD 
HETATM   21  C   UNL     1      -7.572  19.103  68.592  1.00  0.00    -0.381 A  
HETATM   22  C   UNL     1      -7.175  20.014  67.603  1.00  0.00    -0.316 A  
HETATM   23  C   UNL     1      -7.935  20.189  66.443  1.00  0.00    -0.298 A  
HETATM   24  C   UNL     1      -9.127  19.481  66.243  1.00  0.00    -0.403 A  
HETATM   25  C   UNL     1      -9.506  18.587  67.249  1.00  0.00    -0.288 A  
HETATM   26  N   UNL     1     -10.587  17.757  67.400  1.00  0.00    -0.361 NA 
ENDBRANCH  15  17
ENDBRANCH  14  15
ENDBRANCH  10  14
ENDBRANCH   6   7
ENDBRANCH   5   6
ENDBRANCH   4   5
ENDBRANCH   3   4
ENDBRANCH   2   3
TORSDOF 8
ENDMDL
MODEL       67
REMARK 921   NORMALIZED FREE ENERGY PREDICTED BY IDOCK:   -5.16 KCAL/MOL
REMARK 922        TOTAL FREE ENERGY PREDICTED BY IDOCK:   -8.45 KCAL/MOL
REMARK 923 INTER-LIGAND FREE ENERGY PREDICTED BY IDOCK:   -7.54 KCAL/MOL
REMARK 924 INTRA-LIGAND FREE ENERGY PREDICTED BY IDOCK:   -0.91 KCAL/MOL
REMARK 927      BINDING AFFINITY PREDICTED BY RF-SCORE:    0.00 PKD
ROOT
HETATM    1  C   UNL     1     -12.504  12.017  63.430  1.00  0.00    -0.509 C  
HETATM    2  O   UNL     1     -12.521  13.386  63.045  1.00  0.00    -0.667 OA 
ENDROOT
BRANCH   2   3
HETATM    3  C   UNL     1     -12.260  14.256  64.145  1.00  0.00    -0.378 C  
BRANCH   3   4
HETATM    4  C   UNL     1     -12.839  13.647  65.416  1.00  0.00    -0.440 C  
BRANCH   4   5
HETATM    5  C   UNL     1     -11.915  13.851  66.617  1.00  0.00    -0.442 C  
BRANCH   5   6
HETATM    6  O   UNL     1     -11.085  14.999  66.374  1.00  0.00    -0.335 OA 
BRANCH   6   7
HETATM    7  C   UNL     1     -10.804  15.759  67.486  1.00  0.00    -0.315 A  
HETATM    8  C   UNL     1     -10.103  16.965  67.291  1.00  0.00    -0.286 A  
HETATM    9  C   UNL     1      -9.594  17.331  65.924  1.00  0.00    -0.074 C  
HETATM   10  C   UNL     1      -9.943  17.815  68.399  1.00  0.00    -0.362 A  
HETATM   11  C   UNL     1     -11.175  15.374  68.772  1.00  0.00    -0.305 A  
HETATM   12  N   UNL     1     -10.358  17.456  69.647  1.00  0.00    -0.045 NA 
HETATM   13  C   UNL     1     -10.922  16.242  69.810  1.00  0.00    -0.354 A  
BRANCH  10  14
HETATM   14  C   UNL     1      -9.413  19.233  68.294  1.00  0.00    -0.359 C  
BRANCH  14  15
HETATM   15  S   UNL     1      -7.662  19.326  68.737  1.00  0.00    -0.349 S  
HETATM   16  O   UNL     1      -7.135  18.048  69.322  1.00  0.00    -0.221 OA 
BRANCH  15  17
HETATM   17  C   UNL     1      -6.942  19.464  67.164  1.00  0.00    -0.198 A  
HETATM   18  N   UNL     1      -6.249  18.533  66.544  1.00  0.00    -0.166 NA 
HETATM   19  C   UNL     1      -5.983  19.051  65.296  1.00  0.00    -0.244 A  
HETATM   20  H   UNL     1      -5.969  17.623  66.910  1.00  0.00     0.000 HD 
HETATM   21  C   UNL     1      -5.281  18.485  64.221  1.00  0.00    -0.109 A  
HETATM   22  C   UNL     1      -5.204  19.197  63.017  1.00  0.00    -0.336 A  
HETATM   23  C   UNL     1      -5.812  20.448  62.884  1.00  0.00    -0.258 A  
HETATM   24  C   UNL     1      -6.494  21.041  63.953  1.00  0.00    -0.240 A  
HETATM   25  C   UNL     1      -6.546  20.314  65.147  1.00  0.00    -0.295 A  
HETATM   26  N   UNL     1      -7.100  20.577  66.375  1.00  0.00    -0.251 NA 
ENDBRANCH  15  17
ENDBRANCH  14  15
ENDBRANCH  10  14
ENDBRANCH   6   7
ENDBRANCH   5   6
ENDBRANCH   4   5
ENDBRANCH   3   4
ENDBRANCH   2   3
TORSDOF 8
ENDMDL
MODEL       68
REMARK 921   NORMALIZED FREE ENERGY PREDICTED BY IDOCK:   -5.16 KCAL/MOL
REMARK 922        TOTAL FREE ENERGY PREDICTED BY IDOCK:   -8.45 KCAL/MOL
REMARK 923 INTER-LIGAND FREE ENERGY PREDICTED BY IDOCK:   -7.88 KCAL/MOL
REMARK 924 INTRA-LIGAND FREE ENERGY PREDICTED BY IDOCK:   -0.57 KCAL/MOL
REMARK 927      BINDING AFFINITY PREDICTED BY RF-SCORE:    0.00 PKD
ROOT
HETATM    1  C   UNL     1     -12.648   7.521  71.733  1.00  0.00    -0.334 C  
HETATM    2  O   UNL     1     -11.922   8.617  72.275  1.00  0.00    -0.364 OA 
ENDROOT
BRANCH   2   3
HETATM    3  C   UNL     1     -12.053   9.794  71.480  1.00  0.00    -0.409 C  
BRANCH   3   4
HETATM    4  C   UNL     1     -11.487   9.528  70.090  1.00  0.00    -0.205 C  
BRANCH   4   5
HETATM    5  C   UNL     1     -11.020  10.815  69.410  1.00  0.00    -0.254 C  
BRANCH   5   6
HETATM    6  O   UNL     1     -12.155  11.462  68.812  1.00  0.00    -0.480 OA 
BRANCH   6   7
HETATM    7  C   UNL     1     -11.853  12.517  67.982  1.00  0.00    -0.325 A  
HETATM    8  C   UNL     1     -11.810  13.804  68.553  1.00  0.00    -0.406 A  
HETATM    9  C   UNL     1     -12.193  14.006  69.993  1.00  0.00    -0.414 C  
HETATM   10  C   UNL     1     -11.359  14.863  67.745  1.00  0.00    -0.329 A  
HETATM   11  C   UNL     1     -11.605  12.354  66.622  1.00  0.00    -0.447 A  
HETATM   12  N   UNL     1     -11.064  14.685  66.426  1.00  0.00    -0.329 NA 
HETATM   13  C   UNL     1     -11.229  13.459  65.891  1.00  0.00    -0.300 A  
BRANCH  10  14
HETATM   14  C   UNL     1     -11.049  16.247  68.281  1.00  0.00    -0.346 C  
BRANCH  14  15
HETATM   15  S   UNL     1      -9.453  16.292  69.132  1.00  0.00    -0.217 S  
HETATM   16  O   UNL     1      -8.640  15.048  68.924  1.00  0.00    -0.172 OA 
BRANCH  15  17
HETATM   17  C   UNL     1      -8.650  17.544  68.237  1.00  0.00    -0.266 A  
HETATM   18  N   UNL     1      -8.474  18.787  68.632  1.00  0.00    -0.342 NA 
HETATM   19  C   UNL     1      -7.698  19.369  67.655  1.00  0.00    -0.264 A  
HETATM   20  H   UNL     1      -8.836  19.226  69.479  1.00  0.00     0.000 HD 
HETATM   21  C   UNL     1      -7.205  20.680  67.562  1.00  0.00    -0.382 A  
HETATM   22  C   UNL     1      -6.371  21.013  66.486  1.00  0.00    -0.338 A  
HETATM   23  C   UNL     1      -6.035  20.062  65.520  1.00  0.00    -0.219 A  
HETATM   24  C   UNL     1      -6.538  18.756  65.580  1.00  0.00    -0.307 A  
HETATM   25  C   UNL     1      -7.377  18.454  66.657  1.00  0.00    -0.225 A  
HETATM   26  N   UNL     1      -8.048  17.315  67.025  1.00  0.00    -0.201 NA 
ENDBRANCH  15  17
ENDBRANCH  14  15
ENDBRANCH  10  14
ENDBRANCH   6   7
ENDBRANCH   5   6
ENDBRANCH   4   5
ENDBRANCH   3   4
ENDBRANCH   2   3
TORSDOF 8
ENDMDL
MODEL       69
REMARK 921   NORMALIZED FREE ENERGY PREDICTED BY IDOCK:   -5.16 KCAL/MOL
REMARK 922        TOTAL FREE ENERGY PREDICTED BY IDOCK:   -8.44 KCAL/MOL
REMARK 923 INTER-LIGAND FREE ENERGY PREDICTED BY IDOCK:   -7.75 KCAL/MOL
REMARK 924 INTRA-LIGAND FREE ENERGY PREDICTED BY IDOCK:   -0.69 KCAL/MOL
REMARK 927      BINDING AFFINITY PREDICTED BY RF-SCORE:    0.00 PKD
ROOT
HETATM    1  C   UNL     1      -9.749  10.572  63.660  1.00  0.00    -0.318 C  
HETATM    2  O   UNL     1      -9.127   9.958  64.781  1.00  0.00    -0.201 OA 
ENDROOT
BRANCH   2   3
HETATM    3  C   UNL     1     -10.039   9.759  65.859  1.00  0.00    -0.243 C  
BRANCH   3   4
HETATM    4  C   UNL     1     -10.163  11.051  66.658  1.00  0.00    -0.280 C  
BRANCH   4   5
HETATM    5  C   UNL     1     -11.527  11.171  67.338  1.00  0.00    -0.180 C  
BRANCH   5   6
HETATM    6  O   UNL     1     -11.697  12.519  67.802  1.00  0.00    -0.335 OA 
BRANCH   6   7
HETATM    7  C   UNL     1     -11.662  13.482  66.820  1.00  0.00    -0.391 A  
HETATM    8  C   UNL     1     -10.794  14.575  67.010  1.00  0.00    -0.297 A  
HETATM    9  C   UNL     1     -10.030  14.719  68.297  1.00  0.00    -0.222 C  
HETATM   10  C   UNL     1     -10.644  15.483  65.947  1.00  0.00    -0.339 A  
HETATM   11  C   UNL     1     -12.449  13.414  65.674  1.00  0.00    -0.519 A  
HETATM   12  N   UNL     1     -11.379  15.379  64.803  1.00  0.00    -0.409 NA 
HETATM   13  C   UNL     1     -12.282  14.382  64.710  1.00  0.00    -0.446 A  
BRANCH  10  14
HETATM   14  C   UNL     1      -9.587  16.571  65.922  1.00  0.00    -0.248 C  
BRANCH  14  15
HETATM   15  S   UNL     1     -10.257  18.167  66.448  1.00  0.00    -0.392 S  
HETATM   16  O   UNL     1     -11.253  18.046  67.564  1.00  0.00    -0.072 OA 
BRANCH  15  17
HETATM   17  C   UNL     1      -8.843  18.892  67.144  1.00  0.00    -0.284 A  
HETATM   18  N   UNL     1      -8.183  19.923  66.661  1.00  0.00    -0.310 NA 
HETATM   19  C   UNL     1      -7.217  20.206  67.600  1.00  0.00    -0.290 A  
HETATM   20  H   UNL     1      -8.352  20.409  65.779  1.00  0.00     0.000 HD 
HETATM   21  C   UNL     1      -6.234  21.208  67.603  1.00  0.00    -0.426 A  
HETATM   22  C   UNL     1      -5.399  21.331  68.722  1.00  0.00    -0.208 A  
HETATM   23  C   UNL     1      -5.537  20.473  69.816  1.00  0.00    -0.384 A  
HETATM   24  C   UNL     1      -6.493  19.450  69.820  1.00  0.00    -0.296 A  
HETATM   25  C   UNL     1      -7.306  19.342  68.687  1.00  0.00    -0.340 A  
HETATM   26  N   UNL     1      -8.312  18.477  68.341  1.00  0.00    -0.324 NA 
ENDBRANCH  15  17
ENDBRANCH  14  15
ENDBRANCH  10  14
ENDBRANCH   6   7
ENDBRANCH   5   6
ENDBRANCH   4   5
ENDBRANCH   3   4
ENDBRANCH   2   3
TORSDOF 8
ENDMDL
MODEL       70
REMARK 921   NORMALIZED FREE ENERGY PREDICTED BY IDOCK:   -5.16 KCAL/MOL
REMARK 922        TOTAL FREE ENERGY PREDICTED BY IDOCK:   -8.44 KCAL/MOL
REMARK 923 INTER-LIGAND FREE ENERGY PREDICTED BY IDOCK:   -7.33 KCAL/MOL
REMARK 924 INTRA-LIGAND FREE ENERGY PREDICTED BY IDOCK:   -1.11 KCAL/MOL
REMARK 927      BINDING AFFINITY PREDICTED BY RF-SCORE:    0.00 PKD
ROOT
HETATM    1  C   UNL     1     -10.212  11.855  63.320  1.00  0.00    -0.395 C  
HETATM    2  O   UNL     1     -10.384  12.587  64.527  1.00  0.00    -0.313 OA 
ENDROOT
BRANCH   2   3
HETATM    3  C   UNL     1     -11.482  13.494  64.453  1.00  0.00    -0.394 C  
BRANCH   3   4
HETATM    4  C   UNL     1     -11.072  14.831  65.059  1.00  0.00    -0.412 C  
BRANCH   4   5
HETATM    5  C   UNL     1      -9.695  14.759  65.717  1.00  0.00    -0.313 C  
BRANCH   5   6
HETATM    6  O   UNL     1      -9.861  14.752  67.143  1.00  0.00    -0.228 OA 
BRANCH   6   7
HETATM    7  C   UNL     1      -9.838  13.506  67.726  1.00  0.00    -0.233 A  
HETATM    8  C   UNL     1     -10.994  13.086  68.412  1.00  0.00    -0.288 A  
HETATM    9  C   UNL     1     -12.155  14.025  68.583  1.00  0.00    -0.332 C  
HETATM   10  C   UNL     1     -11.031  11.760  68.880  1.00  0.00    -0.239 A  
HETATM   11  C   UNL     1      -8.725  12.671  67.668  1.00  0.00    -0.179 A  
HETATM   12  N   UNL     1      -9.956  10.929  68.771  1.00  0.00    -0.189 NA 
HETATM   13  C   UNL     1      -8.828  11.409  68.209  1.00  0.00    -0.167 A  
BRANCH  10  14
HETATM   14  C   UNL     1     -12.283  11.105  69.432  1.00  0.00    -0.259 C  
BRANCH  14  15
HETATM   15  S   UNL     1     -12.067  10.597  71.155  1.00  0.00    -0.308 S  
HETATM   16  O   UNL     1     -13.348  10.611  71.936  1.00  0.00    -0.424 OA 
BRANCH  15  17
HETATM   17  C   UNL     1     -11.653   8.925  70.945  1.00  0.00    -0.283 A  
HETATM   18  N   UNL     1     -11.223   8.367  69.833  1.00  0.00    -0.444 NA 
HETATM   19  C   UNL     1     -10.922   7.068  70.174  1.00  0.00    -0.272 A  
HETATM   20  H   UNL     1     -11.133   8.804  68.916  1.00  0.00     0.000 HD 
HETATM   21  C   UNL     1     -10.422   6.024  69.380  1.00  0.00    -0.331 A  
HETATM   22  C   UNL     1     -10.133   4.794  69.986  1.00  0.00    -0.308 A  
HETATM   23  C   UNL     1     -10.339   4.604  71.355  1.00  0.00    -0.160 A  
HETATM   24  C   UNL     1     -10.863   5.624  72.159  1.00  0.00    -0.300 A  
HETATM   25  C   UNL     1     -11.153   6.837  71.527  1.00  0.00    -0.251 A  
HETATM   26  N   UNL     1     -11.676   8.022  71.980  1.00  0.00    -0.303 NA 
ENDBRANCH  15  17
ENDBRANCH  14  15
ENDBRANCH  10  14
ENDBRANCH   6   7
ENDBRANCH   5   6
ENDBRANCH   4   5
ENDBRANCH   3   4
ENDBRANCH   2   3
TORSDOF 8
ENDMDL
MODEL       71
REMARK 921   NORMALIZED FREE ENERGY PREDICTED BY IDOCK:   -5.13 KCAL/MOL
REMARK 922        TOTAL FREE ENERGY PREDICTED BY IDOCK:   -8.40 KCAL/MOL
REMARK 923 INTER-LIGAND FREE ENERGY PREDICTED BY IDOCK:   -7.55 KCAL/MOL
REMARK 924 INTRA-LIGAND FREE ENERGY PREDICTED BY IDOCK:   -0.85 KCAL/MOL
REMARK 927      BINDING AFFINITY PREDICTED BY RF-SCORE:    0.00 PKD
ROOT
HETATM    1  C   UNL     1      -6.772  17.841  66.094  1.00  0.00    -0.288 C  
HETATM    2  O   UNL     1      -7.906  18.550  65.610  1.00  0.00    -0.491 OA 
ENDROOT
BRANCH   2   3
HETATM    3  C   UNL     1      -8.203  19.695  66.407  1.00  0.00    -0.337 C  
BRANCH   3   4
HETATM    4  C   UNL     1      -9.547  19.492  67.097  1.00  0.00    -0.430 C  
BRANCH   4   5
HETATM    5  C   UNL     1     -10.402  18.447  66.380  1.00  0.00    -0.405 C  
BRANCH   5   6
HETATM    6  O   UNL     1     -10.650  17.354  67.279  1.00  0.00    -0.339 OA 
BRANCH   6   7
HETATM    7  C   UNL     1     -10.438  16.103  66.747  1.00  0.00    -0.294 A  
HETATM    8  C   UNL     1      -9.967  15.098  67.614  1.00  0.00    -0.229 A  
HETATM    9  C   UNL     1      -9.611  15.431  69.035  1.00  0.00    -0.236 C  
HETATM   10  C   UNL     1      -9.890  13.786  67.113  1.00  0.00    -0.242 A  
HETATM   11  C   UNL     1     -10.661  15.811  65.404  1.00  0.00    -0.441 A  
HETATM   12  N   UNL     1     -10.163  13.498  65.808  1.00  0.00    -0.292 NA 
HETATM   13  C   UNL     1     -10.500  14.510  64.984  1.00  0.00    -0.429 A  
BRANCH  10  14
HETATM   14  C   UNL     1      -9.619  12.575  67.984  1.00  0.00    -0.212 C  
BRANCH  14  15
HETATM   15  S   UNL     1     -11.128  11.969  68.776  1.00  0.00    -0.266 S  
HETATM   16  O   UNL     1     -12.367  12.260  67.979  1.00  0.00    -0.260 OA 
BRANCH  15  17
HETATM   17  C   UNL     1     -10.880  10.255  68.665  1.00  0.00    -0.234 A  
HETATM   18  N   UNL     1     -11.103   9.376  69.619  1.00  0.00    -0.381 NA 
HETATM   19  C   UNL     1     -10.873   8.148  69.040  1.00  0.00     0.010 A  
HETATM   20  H   UNL     1     -11.384   9.565  70.582  1.00  0.00     0.000 HD 
HETATM   21  C   UNL     1     -10.965   6.863  69.596  1.00  0.00    -0.298 A  
HETATM   22  C   UNL     1     -10.742   5.753  68.770  1.00  0.00    -0.318 A  
HETATM   23  C   UNL     1     -10.432   5.918  67.417  1.00  0.00    -0.311 A  
HETATM   24  C   UNL     1     -10.310   7.193  66.851  1.00  0.00    -0.349 A  
HETATM   25  C   UNL     1     -10.526   8.283  67.699  1.00  0.00    -0.235 A  
HETATM   26  N   UNL     1     -10.479   9.640  67.504  1.00  0.00    -0.245 NA 
ENDBRANCH  15  17
ENDBRANCH  14  15
ENDBRANCH  10  14
ENDBRANCH   6   7
ENDBRANCH   5   6
ENDBRANCH   4   5
ENDBRANCH   3   4
ENDBRANCH   2   3
TORSDOF 8
ENDMDL
MODEL       72
REMARK 921   NORMALIZED FREE ENERGY PREDICTED BY IDOCK:   -5.12 KCAL/MOL
REMARK 922        TOTAL FREE ENERGY PREDICTED BY IDOCK:   -8.39 KCAL/MOL
REMARK 923 INTER-LIGAND FREE ENERGY PREDICTED BY IDOCK:   -7.94 KCAL/MOL
REMARK 924 INTRA-LIGAND FREE ENERGY PREDICTED BY IDOCK:   -0.45 KCAL/MOL
REMARK 927      BINDING AFFINITY PREDICTED BY RF-SCORE:    0.00 PKD
ROOT
HETATM    1  C   UNL     1     -10.120   9.042  71.451  1.00  0.00    -0.329 C  
HETATM    2  O   UNL     1      -9.141   8.589  70.524  1.00  0.00    -0.143 OA 
ENDROOT
BRANCH   2   3
HETATM    3  C   UNL     1      -9.489   7.332  69.948  1.00  0.00    -0.157 C  
BRANCH   3   4
HETATM    4  C   UNL     1      -9.291   7.398  68.438  1.00  0.00    -0.144 C  
BRANCH   4   5
HETATM    5  C   UNL     1     -10.599   7.694  67.705  1.00  0.00    -0.196 C  
BRANCH   5   6
HETATM    6  O   UNL     1     -10.347   8.666  66.679  1.00  0.00    -0.289 OA 
BRANCH   6   7
HETATM    7  C   UNL     1     -10.535   9.975  67.057  1.00  0.00    -0.238 A  
HETATM    8  C   UNL     1      -9.872  10.971  66.314  1.00  0.00    -0.257 A  
HETATM    9  C   UNL     1      -8.911  10.587  65.223  1.00  0.00    -0.211 C  
HETATM   10  C   UNL     1     -10.177  12.313  66.601  1.00  0.00    -0.216 A  
HETATM   11  C   UNL     1     -11.337  10.336  68.137  1.00  0.00    -0.233 A  
HETATM   12  N   UNL     1     -11.007  12.659  67.626  1.00  0.00    -0.233 NA 
HETATM   13  C   UNL     1     -11.531  11.676  68.386  1.00  0.00    -0.297 A  
BRANCH  10  14
HETATM   14  C   UNL     1      -9.716  13.476  65.743  1.00  0.00    -0.136 C  
BRANCH  14  15
HETATM   15  S   UNL     1     -11.114  14.432  65.106  1.00  0.00    -0.386 S  
HETATM   16  O   UNL     1     -12.424  14.038  65.723  1.00  0.00    -0.463 OA 
BRANCH  15  17
HETATM   17  C   UNL     1     -10.739  16.003  65.741  1.00  0.00    -0.301 A  
HETATM   18  N   UNL     1     -10.739  17.132  65.065  1.00  0.00    -0.681 NA 
HETATM   19  C   UNL     1     -10.496  18.113  66.000  1.00  0.00    -0.335 A  
HETATM   20  H   UNL     1     -10.887  17.254  64.063  1.00  0.00     0.000 HD 
HETATM   21  C   UNL     1     -10.392  19.503  65.837  1.00  0.00    -0.562 A  
HETATM   22  C   UNL     1     -10.203  20.304  66.972  1.00  0.00    -0.503 A  
HETATM   23  C   UNL     1     -10.118  19.734  68.244  1.00  0.00    -0.575 A  
HETATM   24  C   UNL     1     -10.192  18.347  68.425  1.00  0.00    -0.407 A  
HETATM   25  C   UNL     1     -10.369  17.570  67.275  1.00  0.00    -0.337 A  
HETATM   26  N   UNL     1     -10.468  16.218  67.071  1.00  0.00    -0.310 NA 
ENDBRANCH  15  17
ENDBRANCH  14  15
ENDBRANCH  10  14
ENDBRANCH   6   7
ENDBRANCH   5   6
ENDBRANCH   4   5
ENDBRANCH   3   4
ENDBRANCH   2   3
TORSDOF 8
ENDMDL
MODEL       73
REMARK 921   NORMALIZED FREE ENERGY PREDICTED BY IDOCK:   -5.11 KCAL/MOL
REMARK 922        TOTAL FREE ENERGY PREDICTED BY IDOCK:   -8.37 KCAL/MOL
REMARK 923 INTER-LIGAND FREE ENERGY PREDICTED BY IDOCK:   -7.07 KCAL/MOL
REMARK 924 INTRA-LIGAND FREE ENERGY PREDICTED BY IDOCK:   -1.30 KCAL/MOL
REMARK 927      BINDING AFFINITY PREDICTED BY RF-SCORE:    0.00 PKD
ROOT
HETATM    1  C   UNL     1     -10.492   7.748  66.959  1.00  0.00    -0.349 C  
HETATM    2  O   UNL     1      -9.071   7.783  66.992  1.00  0.00    -0.129 OA 
ENDROOT
BRANCH   2   3
HETATM    3  C   UNL     1      -8.550   7.247  68.207  1.00  0.00    -0.123 C  
BRANCH   3   4
HETATM    4  C   UNL     1      -7.608   8.263  68.842  1.00  0.00    -0.093 C  
BRANCH   4   5
HETATM    5  C   UNL     1      -8.365   9.303  69.667  1.00  0.00    -0.140 C  
BRANCH   5   6
HETATM    6  O   UNL     1      -8.336  10.559  68.972  1.00  0.00    -0.136 OA 
BRANCH   6   7
HETATM    7  C   UNL     1      -9.548  10.978  68.473  1.00  0.00    -0.187 A  
HETATM    8  C   UNL     1      -9.599  11.358  67.118  1.00  0.00    -0.193 A  
HETATM    9  C   UNL     1      -8.340  11.405  66.298  1.00  0.00    -0.111 C  
HETATM   10  C   UNL     1     -10.861  11.644  66.566  1.00  0.00    -0.284 A  
HETATM   11  C   UNL     1     -10.698  11.043  69.255  1.00  0.00    -0.263 A  
HETATM   12  N   UNL     1     -11.992  11.653  67.327  1.00  0.00    -0.602 NA 
HETATM   13  C   UNL     1     -11.882  11.394  68.645  1.00  0.00    -0.310 A  
BRANCH  10  14
HETATM   14  C   UNL     1     -11.095  11.846  65.081  1.00  0.00    -0.305 C  
BRANCH  14  15
HETATM   15  S   UNL     1     -11.762  13.490  64.729  1.00  0.00    -0.390 S  
HETATM   16  O   UNL     1     -13.177  13.664  65.199  1.00  0.00    -0.739 OA 
BRANCH  15  17
HETATM   17  C   UNL     1     -10.785  14.463  65.783  1.00  0.00    -0.307 A  
HETATM   18  N   UNL     1      -9.505  14.729  65.627  1.00  0.00    -0.507 NA 
HETATM   19  C   UNL     1      -9.196  15.618  66.632  1.00  0.00    -0.266 A  
HETATM   20  H   UNL     1      -8.878  14.357  64.914  1.00  0.00     0.000 HD 
HETATM   21  C   UNL     1      -7.974  16.236  66.939  1.00  0.00    -0.278 A  
HETATM   22  C   UNL     1      -7.933  17.165  67.988  1.00  0.00    -0.212 A  
HETATM   23  C   UNL     1      -9.084  17.472  68.719  1.00  0.00    -0.212 A  
HETATM   24  C   UNL     1     -10.306  16.845  68.446  1.00  0.00    -0.338 A  
HETATM   25  C   UNL     1     -10.317  15.915  67.402  1.00  0.00    -0.288 A  
HETATM   26  N   UNL     1     -11.301  15.117  66.874  1.00  0.00    -0.307 NA 
ENDBRANCH  15  17
ENDBRANCH  14  15
ENDBRANCH  10  14
ENDBRANCH   6   7
ENDBRANCH   5   6
ENDBRANCH   4   5
ENDBRANCH   3   4
ENDBRANCH   2   3
TORSDOF 8
ENDMDL
MODEL       74
REMARK 921   NORMALIZED FREE ENERGY PREDICTED BY IDOCK:   -5.10 KCAL/MOL
REMARK 922        TOTAL FREE ENERGY PREDICTED BY IDOCK:   -8.36 KCAL/MOL
REMARK 923 INTER-LIGAND FREE ENERGY PREDICTED BY IDOCK:   -7.70 KCAL/MOL
REMARK 924 INTRA-LIGAND FREE ENERGY PREDICTED BY IDOCK:   -0.67 KCAL/MOL
REMARK 927      BINDING AFFINITY PREDICTED BY RF-SCORE:    0.00 PKD
ROOT
HETATM    1  C   UNL     1     -13.266   7.872  71.525  1.00  0.00    -0.306 C  
HETATM    2  O   UNL     1     -12.596   6.748  70.969  1.00  0.00    -0.347 OA 
ENDROOT
BRANCH   2   3
HETATM    3  C   UNL     1     -11.295   7.083  70.490  1.00  0.00    -0.312 C  
BRANCH   3   4
HETATM    4  C   UNL     1     -11.082   6.442  69.123  1.00  0.00    -0.428 C  
BRANCH   4   5
HETATM    5  C   UNL     1     -10.569   7.451  68.096  1.00  0.00    -0.162 C  
BRANCH   5   6
HETATM    6  O   UNL     1     -10.819   8.779  68.584  1.00  0.00    -0.115 OA 
BRANCH   6   7
HETATM    7  C   UNL     1     -10.700   9.777  67.644  1.00  0.00    -0.274 A  
HETATM    8  C   UNL     1     -11.186  11.054  67.984  1.00  0.00    -0.372 A  
HETATM    9  C   UNL     1     -11.904  11.268  69.287  1.00  0.00    -0.423 C  
HETATM   10  C   UNL     1     -10.934  12.109  67.089  1.00  0.00    -0.268 A  
HETATM   11  C   UNL     1     -10.135   9.562  66.390  1.00  0.00    -0.328 A  
HETATM   12  N   UNL     1     -10.330  11.901  65.885  1.00  0.00    -0.234 NA 
HETATM   13  C   UNL     1      -9.984  10.642  65.549  1.00  0.00    -0.272 A  
BRANCH  10  14
HETATM   14  C   UNL     1     -11.196  13.566  67.422  1.00  0.00    -0.295 C  
BRANCH  14  15
HETATM   15  S   UNL     1     -10.010  14.199  68.632  1.00  0.00    -0.191 S  
HETATM   16  O   UNL     1      -8.657  13.559  68.519  1.00  0.00    -0.160 OA 
BRANCH  15  17
HETATM   17  C   UNL     1      -9.817  15.828  68.066  1.00  0.00    -0.217 A  
HETATM   18  N   UNL     1     -10.634  16.470  67.258  1.00  0.00    -0.310 NA 
HETATM   19  C   UNL     1     -10.136  17.751  67.184  1.00  0.00    -0.338 A  
HETATM   20  H   UNL     1     -11.458  16.097  66.786  1.00  0.00     0.000 HD 
HETATM   21  C   UNL     1     -10.614  18.859  66.467  1.00  0.00    -0.462 A  
HETATM   22  C   UNL     1      -9.958  20.090  66.612  1.00  0.00    -0.598 A  
HETATM   23  C   UNL     1      -8.848  20.216  67.451  1.00  0.00    -0.440 A  
HETATM   24  C   UNL     1      -8.340  19.116  68.153  1.00  0.00    -0.351 A  
HETATM   25  C   UNL     1      -9.006  17.898  67.983  1.00  0.00    -0.267 A  
HETATM   26  N   UNL     1      -8.791  16.640  68.485  1.00  0.00    -0.226 NA 
ENDBRANCH  15  17
ENDBRANCH  14  15
ENDBRANCH  10  14
ENDBRANCH   6   7
ENDBRANCH   5   6
ENDBRANCH   4   5
ENDBRANCH   3   4
ENDBRANCH   2   3
TORSDOF 8
ENDMDL
MODEL       75
REMARK 921   NORMALIZED FREE ENERGY PREDICTED BY IDOCK:   -5.10 KCAL/MOL
REMARK 922        TOTAL FREE ENERGY PREDICTED BY IDOCK:   -8.36 KCAL/MOL
REMARK 923 INTER-LIGAND FREE ENERGY PREDICTED BY IDOCK:   -8.03 KCAL/MOL
REMARK 924 INTRA-LIGAND FREE ENERGY PREDICTED BY IDOCK:   -0.33 KCAL/MOL
REMARK 927      BINDING AFFINITY PREDICTED BY RF-SCORE:    0.00 PKD
ROOT
HETATM    1  C   UNL     1     -10.024   3.915  64.490  1.00  0.00    -0.202 C  
HETATM    2  O   UNL     1     -10.704   4.527  65.579  1.00  0.00    -0.283 OA 
ENDROOT
BRANCH   2   3
HETATM    3  C   UNL     1     -10.005   4.361  66.810  1.00  0.00    -0.195 C  
BRANCH   3   4
HETATM    4  C   UNL     1     -10.093   5.651  67.617  1.00  0.00    -0.208 C  
BRANCH   4   5
HETATM    5  C   UNL     1     -10.795   6.762  66.838  1.00  0.00    -0.331 C  
BRANCH   5   6
HETATM    6  O   UNL     1      -9.808   7.687  66.356  1.00  0.00    -0.191 OA 
BRANCH   6   7
HETATM    7  C   UNL     1     -10.141   9.015  66.485  1.00  0.00    -0.283 A  
HETATM    8  C   UNL     1      -9.831   9.873  65.411  1.00  0.00    -0.384 A  
HETATM    9  C   UNL     1      -9.065   9.355  64.227  1.00  0.00    -0.159 C  
HETATM   10  C   UNL     1     -10.301  11.197  65.476  1.00  0.00    -0.268 A  
HETATM   11  C   UNL     1     -10.753   9.527  67.626  1.00  0.00    -0.314 A  
HETATM   12  N   UNL     1     -10.949  11.677  66.575  1.00  0.00    -0.289 NA 
HETATM   13  C   UNL     1     -11.123  10.853  67.628  1.00  0.00    -0.313 A  
BRANCH  10  14
HETATM   14  C   UNL     1     -10.240  12.161  64.307  1.00  0.00    -0.324 C  
BRANCH  14  15
HETATM   15  S   UNL     1     -11.738  13.168  64.192  1.00  0.00    -0.443 S  
HETATM   16  O   UNL     1     -12.955  12.474  64.729  1.00  0.00    -0.827 OA 
BRANCH  15  17
HETATM   17  C   UNL     1     -11.364  14.426  65.328  1.00  0.00    -0.346 A  
HETATM   18  N   UNL     1     -11.757  14.479  66.582  1.00  0.00    -0.380 NA 
HETATM   19  C   UNL     1     -11.130  15.585  67.111  1.00  0.00    -0.256 A  
HETATM   20  H   UNL     1     -12.391  13.838  67.061  1.00  0.00     0.000 HD 
HETATM   21  C   UNL     1     -11.186  16.113  68.410  1.00  0.00    -0.358 A  
HETATM   22  C   UNL     1     -10.393  17.226  68.721  1.00  0.00    -0.358 A  
HETATM   23  C   UNL     1      -9.560  17.804  67.758  1.00  0.00    -0.272 A  
HETATM   24  C   UNL     1      -9.511  17.308  66.450  1.00  0.00    -0.282 A  
HETATM   25  C   UNL     1     -10.321  16.204  66.163  1.00  0.00    -0.339 A  
HETATM   26  N   UNL     1     -10.537  15.479  65.019  1.00  0.00    -0.426 NA 
ENDBRANCH  15  17
ENDBRANCH  14  15
ENDBRANCH  10  14
ENDBRANCH   6   7
ENDBRANCH   5   6
ENDBRANCH   4   5
ENDBRANCH   3   4
ENDBRANCH   2   3
TORSDOF 8
ENDMDL
MODEL       76
REMARK 921   NORMALIZED FREE ENERGY PREDICTED BY IDOCK:   -5.09 KCAL/MOL
REMARK 922        TOTAL FREE ENERGY PREDICTED BY IDOCK:   -8.34 KCAL/MOL
REMARK 923 INTER-LIGAND FREE ENERGY PREDICTED BY IDOCK:   -7.65 KCAL/MOL
REMARK 924 INTRA-LIGAND FREE ENERGY PREDICTED BY IDOCK:   -0.69 KCAL/MOL
REMARK 927      BINDING AFFINITY PREDICTED BY RF-SCORE:    0.00 PKD
ROOT
HETATM    1  C   UNL     1      -9.480   5.874  67.204  1.00  0.00    -0.117 C  
HETATM    2  O   UNL     1      -8.612   4.908  66.623  1.00  0.00    -0.110 OA 
ENDROOT
BRANCH   2   3
HETATM    3  C   UNL     1      -7.525   5.514  65.927  1.00  0.00    -0.082 C  
BRANCH   3   4
HETATM    4  C   UNL     1      -8.027   6.078  64.603  1.00  0.00    -0.130 C  
BRANCH   4   5
HETATM    5  C   UNL     1      -7.588   7.528  64.400  1.00  0.00    -0.111 C  
BRANCH   5   6
HETATM    6  O   UNL     1      -8.415   8.382  65.205  1.00  0.00    -0.165 OA 
BRANCH   6   7
HETATM    7  C   UNL     1      -8.966   9.454  64.541  1.00  0.00    -0.181 A  
HETATM    8  C   UNL     1      -9.730  10.365  65.295  1.00  0.00    -0.339 A  
HETATM    9  C   UNL     1     -10.012  10.096  66.747  1.00  0.00    -0.266 C  
HETATM   10  C   UNL     1     -10.170  11.537  64.655  1.00  0.00    -0.285 A  
HETATM   11  C   UNL     1      -8.803   9.653  63.173  1.00  0.00    -0.254 A  
HETATM   12  N   UNL     1      -9.958  11.752  63.325  1.00  0.00    -0.427 NA 
HETATM   13  C   UNL     1      -9.322  10.799  62.614  1.00  0.00    -0.313 A  
BRANCH  10  14
HETATM   14  C   UNL     1     -10.803  12.703  65.390  1.00  0.00    -0.287 C  
BRANCH  14  15
HETATM   15  S   UNL     1     -11.354  13.993  64.248  1.00  0.00    -0.180 S  
HETATM   16  O   UNL     1     -12.845  14.031  64.080  1.00  0.00    -0.581 OA 
BRANCH  15  17
HETATM   17  C   UNL     1     -10.939  15.416  65.152  1.00  0.00    -0.418 A  
HETATM   18  N   UNL     1     -10.918  16.648  64.690  1.00  0.00    -0.899 NA 
HETATM   19  C   UNL     1     -10.645  17.439  65.784  1.00  0.00    -0.182 A  
HETATM   20  H   UNL     1     -11.070  16.952  63.729  1.00  0.00     0.000 HD 
HETATM   21  C   UNL     1     -10.510  18.833  65.872  1.00  0.00    -0.424 A  
HETATM   22  C   UNL     1     -10.293  19.411  67.131  1.00  0.00    -0.548 A  
HETATM   23  C   UNL     1     -10.211  18.619  68.279  1.00  0.00    -0.423 A  
HETATM   24  C   UNL     1     -10.316  17.225  68.207  1.00  0.00    -0.361 A  
HETATM   25  C   UNL     1     -10.520  16.672  66.939  1.00  0.00    -0.271 A  
HETATM   26  N   UNL     1     -10.652  15.381  66.495  1.00  0.00    -0.301 NA 
ENDBRANCH  15  17
ENDBRANCH  14  15
ENDBRANCH  10  14
ENDBRANCH   6   7
ENDBRANCH   5   6
ENDBRANCH   4   5
ENDBRANCH   3   4
ENDBRANCH   2   3
TORSDOF 8
ENDMDL
MODEL       77
REMARK 921   NORMALIZED FREE ENERGY PREDICTED BY IDOCK:   -5.07 KCAL/MOL
REMARK 922        TOTAL FREE ENERGY PREDICTED BY IDOCK:   -8.32 KCAL/MOL
REMARK 923 INTER-LIGAND FREE ENERGY PREDICTED BY IDOCK:   -7.82 KCAL/MOL
REMARK 924 INTRA-LIGAND FREE ENERGY PREDICTED BY IDOCK:   -0.50 KCAL/MOL
REMARK 927      BINDING AFFINITY PREDICTED BY RF-SCORE:    0.00 PKD
ROOT
HETATM    1  C   UNL     1      -9.113   7.851  68.445  1.00  0.00    -0.135 C  
HETATM    2  O   UNL     1      -9.250   8.087  69.841  1.00  0.00    -0.151 OA 
ENDROOT
BRANCH   2   3
HETATM    3  C   UNL     1     -10.522   7.668  70.333  1.00  0.00    -0.220 C  
BRANCH   3   4
HETATM    4  C   UNL     1     -10.676   8.124  71.779  1.00  0.00    -0.313 C  
BRANCH   4   5
HETATM    5  C   UNL     1     -12.031   8.789  72.024  1.00  0.00    -0.376 C  
BRANCH   5   6
HETATM    6  O   UNL     1     -12.407   9.525  70.849  1.00  0.00    -0.288 OA 
BRANCH   6   7
HETATM    7  C   UNL     1     -12.542  10.882  71.030  1.00  0.00    -0.417 A  
HETATM    8  C   UNL     1     -11.835  11.730  70.156  1.00  0.00    -0.408 A  
HETATM    9  C   UNL     1     -10.887  11.151  69.144  1.00  0.00    -0.284 C  
HETATM   10  C   UNL     1     -12.085  13.111  70.241  1.00  0.00    -0.328 A  
HETATM   11  C   UNL     1     -13.333  11.429  72.037  1.00  0.00    -0.388 A  
HETATM   12  N   UNL     1     -12.904  13.636  71.196  1.00  0.00    -0.337 NA 
HETATM   13  C   UNL     1     -13.472  12.798  72.086  1.00  0.00    -0.492 A  
BRANCH  10  14
HETATM   14  C   UNL     1     -11.572  14.116  69.227  1.00  0.00    -0.304 C  
BRANCH  14  15
HETATM   15  S   UNL     1     -11.654  15.808  69.861  1.00  0.00    -0.355 S  
HETATM   16  O   UNL     1     -11.202  15.923  71.288  1.00  0.00    -0.353 OA 
BRANCH  15  17
HETATM   17  C   UNL     1     -10.420  16.566  68.905  1.00  0.00    -0.304 A  
HETATM   18  N   UNL     1      -9.658  15.972  68.012  1.00  0.00    -0.215 NA 
HETATM   19  C   UNL     1      -8.919  16.983  67.438  1.00  0.00    -0.211 A  
HETATM   20  H   UNL     1      -9.622  14.977  67.791  1.00  0.00     0.000 HD 
HETATM   21  C   UNL     1      -7.949  16.922  66.426  1.00  0.00    -0.352 A  
HETATM   22  C   UNL     1      -7.380  18.117  65.964  1.00  0.00    -0.290 A  
HETATM   23  C   UNL     1      -7.767  19.348  66.500  1.00  0.00    -0.290 A  
HETATM   24  C   UNL     1      -8.712  19.427  67.530  1.00  0.00    -0.346 A  
HETATM   25  C   UNL     1      -9.256  18.220  67.980  1.00  0.00    -0.290 A  
HETATM   26  N   UNL     1     -10.172  17.916  68.955  1.00  0.00    -0.373 NA 
ENDBRANCH  15  17
ENDBRANCH  14  15
ENDBRANCH  10  14
ENDBRANCH   6   7
ENDBRANCH   5   6
ENDBRANCH   4   5
ENDBRANCH   3   4
ENDBRANCH   2   3
TORSDOF 8
ENDMDL
MODEL       78
REMARK 921   NORMALIZED FREE ENERGY PREDICTED BY IDOCK:   -5.06 KCAL/MOL
REMARK 922        TOTAL FREE ENERGY PREDICTED BY IDOCK:   -8.30 KCAL/MOL
REMARK 923 INTER-LIGAND FREE ENERGY PREDICTED BY IDOCK:   -7.51 KCAL/MOL
REMARK 924 INTRA-LIGAND FREE ENERGY PREDICTED BY IDOCK:   -0.80 KCAL/MOL
REMARK 927      BINDING AFFINITY PREDICTED BY RF-SCORE:    0.00 PKD
ROOT
HETATM    1  C   UNL     1     -12.350  13.870  65.152  1.00  0.00    -0.449 C  
HETATM    2  O   UNL     1     -12.841  13.293  63.949  1.00  0.00    -0.633 OA 
ENDROOT
BRANCH   2   3
HETATM    3  C   UNL     1     -11.992  12.253  63.467  1.00  0.00    -0.533 C  
BRANCH   3   4
HETATM    4  C   UNL     1     -10.562  12.521  63.920  1.00  0.00    -0.472 C  
BRANCH   4   5
HETATM    5  C   UNL     1      -9.671  11.291  63.748  1.00  0.00    -0.298 C  
BRANCH   5   6
HETATM    6  O   UNL     1      -8.986  11.037  64.984  1.00  0.00    -0.189 OA 
BRANCH   6   7
HETATM    7  C   UNL     1      -8.664   9.719  65.212  1.00  0.00    -0.159 A  
HETATM    8  C   UNL     1      -9.452   9.005  66.136  1.00  0.00    -0.318 A  
HETATM    9  C   UNL     1     -10.527   9.710  66.915  1.00  0.00    -0.282 C  
HETATM   10  C   UNL     1      -9.223   7.624  66.262  1.00  0.00    -0.154 A  
HETATM   11  C   UNL     1      -7.599   9.086  64.576  1.00  0.00    -0.108 A  
HETATM   12  N   UNL     1      -8.211   6.999  65.594  1.00  0.00    -0.129 NA 
HETATM   13  C   UNL     1      -7.408   7.742  64.806  1.00  0.00    -0.075 A  
BRANCH  10  14
HETATM   14  C   UNL     1     -10.133   6.694  67.042  1.00  0.00    -0.187 C  
BRANCH  14  15
HETATM   15  S   UNL     1      -9.532   6.432  68.729  1.00  0.00    -0.126 S  
HETATM   16  O   UNL     1      -8.281   7.203  69.033  1.00  0.00    -0.122 OA 
BRANCH  15  17
HETATM   17  C   UNL     1     -10.798   7.195  69.639  1.00  0.00    -0.234 A  
HETATM   18  N   UNL     1     -11.849   6.596  70.156  1.00  0.00    -0.605 NA 
HETATM   19  C   UNL     1     -12.503   7.572  70.875  1.00  0.00    -0.131 A  
HETATM   20  H   UNL     1     -12.121   5.619  70.048  1.00  0.00     0.000 HD 
HETATM   21  C   UNL     1     -13.682   7.490  71.632  1.00  0.00    -0.465 A  
HETATM   22  C   UNL     1     -14.113   8.625  72.333  1.00  0.00    -0.449 A  
HETATM   23  C   UNL     1     -13.388   9.818  72.281  1.00  0.00    -0.472 A  
HETATM   24  C   UNL     1     -12.224   9.927  71.509  1.00  0.00    -0.505 A  
HETATM   25  C   UNL     1     -11.822   8.784  70.811  1.00  0.00    -0.178 A  
HETATM   26  N   UNL     1     -10.771   8.529  69.967  1.00  0.00    -0.232 NA 
ENDBRANCH  15  17
ENDBRANCH  14  15
ENDBRANCH  10  14
ENDBRANCH   6   7
ENDBRANCH   5   6
ENDBRANCH   4   5
ENDBRANCH   3   4
ENDBRANCH   2   3
TORSDOF 8
ENDMDL
MODEL       79
REMARK 921   NORMALIZED FREE ENERGY PREDICTED BY IDOCK:   -5.06 KCAL/MOL
REMARK 922        TOTAL FREE ENERGY PREDICTED BY IDOCK:   -8.30 KCAL/MOL
REMARK 923 INTER-LIGAND FREE ENERGY PREDICTED BY IDOCK:   -7.55 KCAL/MOL
REMARK 924 INTRA-LIGAND FREE ENERGY PREDICTED BY IDOCK:   -0.75 KCAL/MOL
REMARK 927      BINDING AFFINITY PREDICTED BY RF-SCORE:    0.00 PKD
ROOT
HETATM    1  C   UNL     1     -12.655   7.348  71.651  1.00  0.00    -0.358 C  
HETATM    2  O   UNL     1     -11.634   8.298  71.931  1.00  0.00    -0.277 OA 
ENDROOT
BRANCH   2   3
HETATM    3  C   UNL     1     -12.098   9.640  71.798  1.00  0.00    -0.369 C  
BRANCH   3   4
HETATM    4  C   UNL     1     -12.298   9.959  70.321  1.00  0.00    -0.073 C  
BRANCH   4   5
HETATM    5  C   UNL     1     -11.561  11.233  69.909  1.00  0.00    -0.334 C  
BRANCH   5   6
HETATM    6  O   UNL     1     -10.920  11.011  68.643  1.00  0.00    -0.190 OA 
BRANCH   6   7
HETATM    7  C   UNL     1     -10.074  12.016  68.234  1.00  0.00    -0.201 A  
HETATM    8  C   UNL     1     -10.648  13.134  67.600  1.00  0.00    -0.235 A  
HETATM    9  C   UNL     1     -12.119  13.156  67.292  1.00  0.00    -0.329 C  
HETATM   10  C   UNL     1      -9.810  14.226  67.315  1.00  0.00    -0.244 A  
HETATM   11  C   UNL     1      -8.695  11.955  68.417  1.00  0.00    -0.157 A  
HETATM   12  N   UNL     1      -8.467  14.181  67.547  1.00  0.00    -0.175 NA 
HETATM   13  C   UNL     1      -7.940  13.047  68.050  1.00  0.00    -0.155 A  
BRANCH  10  14
HETATM   14  C   UNL     1     -10.325  15.573  66.844  1.00  0.00    -0.290 C  
BRANCH  14  15
HETATM   15  S   UNL     1     -10.040  16.866  68.077  1.00  0.00    -0.308 S  
HETATM   16  O   UNL     1     -10.610  18.196  67.675  1.00  0.00    -0.406 OA 
BRANCH  15  17
HETATM   17  C   UNL     1     -11.037  16.291  69.376  1.00  0.00    -0.328 A  
HETATM   18  N   UNL     1     -12.260  15.818  69.264  1.00  0.00    -0.528 NA 
HETATM   19  C   UNL     1     -12.598  15.387  70.527  1.00  0.00    -0.423 A  
HETATM   20  H   UNL     1     -12.835  15.780  68.421  1.00  0.00     0.000 HD 
HETATM   21  C   UNL     1     -13.785  14.794  70.985  1.00  0.00    -0.322 A  
HETATM   22  C   UNL     1     -13.859  14.379  72.322  1.00  0.00    -0.589 A  
HETATM   23  C   UNL     1     -12.776  14.553  73.187  1.00  0.00    -0.497 A  
HETATM   24  C   UNL     1     -11.594  15.167  72.756  1.00  0.00    -0.380 A  
HETATM   25  C   UNL     1     -11.550  15.582  71.421  1.00  0.00    -0.419 A  
HETATM   26  N   UNL     1     -10.590  16.215  70.672  1.00  0.00     0.033 NA 
ENDBRANCH  15  17
ENDBRANCH  14  15
ENDBRANCH  10  14
ENDBRANCH   6   7
ENDBRANCH   5   6
ENDBRANCH   4   5
ENDBRANCH   3   4
ENDBRANCH   2   3
TORSDOF 8
ENDMDL
MODEL       80
REMARK 921   NORMALIZED FREE ENERGY PREDICTED BY IDOCK:   -5.05 KCAL/MOL
REMARK 922        TOTAL FREE ENERGY PREDICTED BY IDOCK:   -8.28 KCAL/MOL
REMARK 923 INTER-LIGAND FREE ENERGY PREDICTED BY IDOCK:   -7.26 KCAL/MOL
REMARK 924 INTRA-LIGAND FREE ENERGY PREDICTED BY IDOCK:   -1.03 KCAL/MOL
REMARK 927      BINDING AFFINITY PREDICTED BY RF-SCORE:    0.00 PKD
ROOT
HETATM    1  C   UNL     1     -10.696   5.410  66.355  1.00  0.00    -0.217 C  
HETATM    2  O   UNL     1     -11.032   6.560  67.120  1.00  0.00    -0.356 OA 
ENDROOT
BRANCH   2   3
HETATM    3  C   UNL     1      -9.886   7.155  67.727  1.00  0.00    -0.145 C  
BRANCH   3   4
HETATM    4  C   UNL     1     -10.067   7.165  69.240  1.00  0.00    -0.178 C  
BRANCH   4   5
HETATM    5  C   UNL     1      -9.081   8.111  69.925  1.00  0.00    -0.151 C  
BRANCH   5   6
HETATM    6  O   UNL     1      -9.707   9.392  70.093  1.00  0.00    -0.202 OA 
BRANCH   6   7
HETATM    7  C   UNL     1      -9.188  10.401  69.314  1.00  0.00    -0.184 A  
HETATM    8  C   UNL     1     -10.081  11.115  68.491  1.00  0.00    -0.208 A  
HETATM    9  C   UNL     1     -11.522  10.698  68.400  1.00  0.00    -0.330 C  
HETATM   10  C   UNL     1      -9.584  12.239  67.808  1.00  0.00    -0.200 A  
HETATM   11  C   UNL     1      -7.833  10.723  69.309  1.00  0.00    -0.124 A  
HETATM   12  N   UNL     1      -8.265  12.581  67.851  1.00  0.00    -0.153 NA 
HETATM   13  C   UNL     1      -7.423  11.802  68.559  1.00  0.00    -0.110 A  
BRANCH  10  14
HETATM   14  C   UNL     1     -10.469  13.226  67.071  1.00  0.00    -0.249 C  
BRANCH  14  15
HETATM   15  S   UNL     1     -10.172  14.925  67.615  1.00  0.00    -0.236 S  
HETATM   16  O   UNL     1     -10.768  15.949  66.693  1.00  0.00    -0.316 OA 
BRANCH  15  17
HETATM   17  C   UNL     1     -11.131  14.968  69.061  1.00  0.00    -0.262 A  
HETATM   18  N   UNL     1     -12.023  14.072  69.427  1.00  0.00    -0.325 NA 
HETATM   19  C   UNL     1     -12.437  14.465  70.679  1.00  0.00    -0.350 A  
HETATM   20  H   UNL     1     -12.339  13.260  68.895  1.00  0.00     0.000 HD 
HETATM   21  C   UNL     1     -13.375  13.874  71.540  1.00  0.00    -0.406 A  
HETATM   22  C   UNL     1     -13.575  14.438  72.808  1.00  0.00    -0.531 A  
HETATM   23  C   UNL     1     -12.859  15.568  73.211  1.00  0.00    -0.633 A  
HETATM   24  C   UNL     1     -11.939  16.188  72.356  1.00  0.00    -0.649 A  
HETATM   25  C   UNL     1     -11.766  15.612  71.093  1.00  0.00    -0.413 A  
HETATM   26  N   UNL     1     -10.984  15.944  70.016  1.00  0.00    -0.329 NA 
ENDBRANCH  15  17
ENDBRANCH  14  15
ENDBRANCH  10  14
ENDBRANCH   6   7
ENDBRANCH   5   6
ENDBRANCH   4   5
ENDBRANCH   3   4
ENDBRANCH   2   3
TORSDOF 8
ENDMDL
MODEL       81
REMARK 921   NORMALIZED FREE ENERGY PREDICTED BY IDOCK:   -5.03 KCAL/MOL
REMARK 922        TOTAL FREE ENERGY PREDICTED BY IDOCK:   -8.25 KCAL/MOL
REMARK 923 INTER-LIGAND FREE ENERGY PREDICTED BY IDOCK:   -7.33 KCAL/MOL
REMARK 924 INTRA-LIGAND FREE ENERGY PREDICTED BY IDOCK:   -0.92 KCAL/MOL
REMARK 927      BINDING AFFINITY PREDICTED BY RF-SCORE:    0.00 PKD
ROOT
HETATM    1  C   UNL     1     -13.033  10.906  71.657  1.00  0.00    -0.464 C  
HETATM    2  O   UNL     1     -13.656   9.629  71.594  1.00  0.00    -0.371 OA 
ENDROOT
BRANCH   2   3
HETATM    3  C   UNL     1     -12.878   8.621  72.235  1.00  0.00    -0.383 C  
BRANCH   3   4
HETATM    4  C   UNL     1     -13.123   7.283  71.547  1.00  0.00    -0.434 C  
BRANCH   4   5
HETATM    5  C   UNL     1     -11.817   6.541  71.263  1.00  0.00    -0.329 C  
BRANCH   5   6
HETATM    6  O   UNL     1     -11.579   6.547  69.846  1.00  0.00    -0.409 OA 
BRANCH   6   7
HETATM    7  C   UNL     1     -10.414   7.165  69.454  1.00  0.00    -0.222 A  
HETATM    8  C   UNL     1     -10.074   7.108  68.089  1.00  0.00    -0.195 A  
HETATM    9  C   UNL     1     -10.908   6.301  67.134  1.00  0.00    -0.460 C  
HETATM   10  C   UNL     1      -8.967   7.861  67.659  1.00  0.00    -0.131 A  
HETATM   11  C   UNL     1      -9.576   7.823  70.350  1.00  0.00    -0.175 A  
HETATM   12  N   UNL     1      -8.181   8.548  68.536  1.00  0.00    -0.122 NA 
HETATM   13  C   UNL     1      -8.476   8.483  69.850  1.00  0.00    -0.125 A  
BRANCH  10  14
HETATM   14  C   UNL     1      -8.619   8.074  66.198  1.00  0.00    -0.148 C  
BRANCH  14  15
HETATM   15  S   UNL     1      -7.676   9.598  65.951  1.00  0.00    -0.105 S  
HETATM   16  O   UNL     1      -6.740   9.527  64.779  1.00  0.00    -0.087 OA 
BRANCH  15  17
HETATM   17  C   UNL     1      -8.946  10.685  65.483  1.00  0.00    -0.191 A  
HETATM   18  N   UNL     1      -9.344  10.928  64.252  1.00  0.00    -0.222 NA 
HETATM   19  C   UNL     1     -10.435  11.757  64.382  1.00  0.00    -0.311 A  
HETATM   20  H   UNL     1      -8.932  10.577  63.387  1.00  0.00     0.000 HD 
HETATM   21  C   UNL     1     -11.254  12.325  63.394  1.00  0.00    -0.497 A  
HETATM   22  C   UNL     1     -12.358  13.091  63.791  1.00  0.00    -0.477 A  
HETATM   23  C   UNL     1     -12.642  13.291  65.144  1.00  0.00    -0.512 A  
HETATM   24  C   UNL     1     -11.822  12.756  66.145  1.00  0.00    -0.484 A  
HETATM   25  C   UNL     1     -10.721  12.005  65.721  1.00  0.00    -0.279 A  
HETATM   26  N   UNL     1      -9.718  11.358  66.398  1.00  0.00    -0.199 NA 
ENDBRANCH  15  17
ENDBRANCH  14  15
ENDBRANCH  10  14
ENDBRANCH   6   7
ENDBRANCH   5   6
ENDBRANCH   4   5
ENDBRANCH   3   4
ENDBRANCH   2   3
TORSDOF 8
ENDMDL
MODEL       82
REMARK 921   NORMALIZED FREE ENERGY PREDICTED BY IDOCK:   -5.01 KCAL/MOL
REMARK 922        TOTAL FREE ENERGY PREDICTED BY IDOCK:   -8.23 KCAL/MOL
REMARK 923 INTER-LIGAND FREE ENERGY PREDICTED BY IDOCK:   -7.64 KCAL/MOL
REMARK 924 INTRA-LIGAND FREE ENERGY PREDICTED BY IDOCK:   -0.59 KCAL/MOL
REMARK 927      BINDING AFFINITY PREDICTED BY RF-SCORE:    0.00 PKD
ROOT
HETATM    1  C   UNL     1     -10.244   5.909  66.828  1.00  0.00    -0.219 C  
HETATM    2  O   UNL     1     -10.189   6.883  67.863  1.00  0.00    -0.154 OA 
ENDROOT
BRANCH   2   3
HETATM    3  C   UNL     1      -9.825   8.171  67.368  1.00  0.00    -0.184 C  
BRANCH   3   4
HETATM    4  C   UNL     1     -10.866   9.192  67.811  1.00  0.00    -0.159 C  
BRANCH   4   5
HETATM    5  C   UNL     1     -10.626  10.561  67.175  1.00  0.00    -0.264 C  
BRANCH   5   6
HETATM    6  O   UNL     1     -11.826  11.342  67.287  1.00  0.00    -0.594 OA 
BRANCH   6   7
HETATM    7  C   UNL     1     -11.811  12.534  66.599  1.00  0.00    -0.352 A  
HETATM    8  C   UNL     1     -11.543  13.706  67.333  1.00  0.00    -0.389 A  
HETATM    9  C   UNL     1     -11.393  13.646  68.827  1.00  0.00    -0.326 C  
HETATM   10  C   UNL     1     -11.380  14.904  66.614  1.00  0.00    -0.326 A  
HETATM   11  C   UNL     1     -12.059  12.614  65.232  1.00  0.00    -0.519 A  
HETATM   12  N   UNL     1     -11.571  14.965  65.265  1.00  0.00    -0.330 NA 
HETATM   13  C   UNL     1     -11.939  13.841  64.618  1.00  0.00    -0.416 A  
BRANCH  10  14
HETATM   14  C   UNL     1     -10.872  16.189  67.239  1.00  0.00    -0.235 C  
BRANCH  14  15
HETATM   15  S   UNL     1      -9.807  17.109  66.102  1.00  0.00    -0.228 S  
HETATM   16  O   UNL     1     -10.442  18.370  65.593  1.00  0.00    -0.624 OA 
BRANCH  15  17
HETATM   17  C   UNL     1      -8.546  17.612  67.185  1.00  0.00    -0.227 A  
HETATM   18  N   UNL     1      -8.249  18.853  67.505  1.00  0.00    -0.266 NA 
HETATM   19  C   UNL     1      -7.269  18.753  68.466  1.00  0.00    -0.292 A  
HETATM   20  H   UNL     1      -8.657  19.706  67.122  1.00  0.00     0.000 HD 
HETATM   21  C   UNL     1      -6.588  19.764  69.162  1.00  0.00    -0.377 A  
HETATM   22  C   UNL     1      -5.668  19.398  70.154  1.00  0.00    -0.279 A  
HETATM   23  C   UNL     1      -5.427  18.053  70.447  1.00  0.00    -0.251 A  
HETATM   24  C   UNL     1      -6.076  17.030  69.745  1.00  0.00    -0.227 A  
HETATM   25  C   UNL     1      -6.981  17.422  68.753  1.00  0.00    -0.236 A  
HETATM   26  N   UNL     1      -7.767  16.717  67.877  1.00  0.00    -0.168 NA 
ENDBRANCH  15  17
ENDBRANCH  14  15
ENDBRANCH  10  14
ENDBRANCH   6   7
ENDBRANCH   5   6
ENDBRANCH   4   5
ENDBRANCH   3   4
ENDBRANCH   2   3
TORSDOF 8
ENDMDL
MODEL       83
REMARK 921   NORMALIZED FREE ENERGY PREDICTED BY IDOCK:   -5.01 KCAL/MOL
REMARK 922        TOTAL FREE ENERGY PREDICTED BY IDOCK:   -8.22 KCAL/MOL
REMARK 923 INTER-LIGAND FREE ENERGY PREDICTED BY IDOCK:   -7.51 KCAL/MOL
REMARK 924 INTRA-LIGAND FREE ENERGY PREDICTED BY IDOCK:   -0.72 KCAL/MOL
REMARK 927      BINDING AFFINITY PREDICTED BY RF-SCORE:    0.00 PKD
ROOT
HETATM    1  C   UNL     1      -8.548   7.800  74.029  1.00  0.00    -0.265 C  
HETATM    2  O   UNL     1      -8.827   6.770  73.088  1.00  0.00    -0.123 OA 
ENDROOT
BRANCH   2   3
HETATM    3  C   UNL     1      -9.722   7.205  72.067  1.00  0.00    -0.157 C  
BRANCH   3   4
HETATM    4  C   UNL     1     -11.091   7.475  72.679  1.00  0.00    -0.398 C  
BRANCH   4   5
HETATM    5  C   UNL     1     -11.951   8.363  71.781  1.00  0.00    -0.325 C  
BRANCH   5   6
HETATM    6  O   UNL     1     -11.290   9.626  71.605  1.00  0.00    -0.374 OA 
BRANCH   6   7
HETATM    7  C   UNL     1     -11.269  10.098  70.313  1.00  0.00    -0.318 A  
HETATM    8  C   UNL     1     -11.791  11.385  70.080  1.00  0.00    -0.440 A  
HETATM    9  C   UNL     1     -12.443  12.150  71.198  1.00  0.00    -0.337 C  
HETATM   10  C   UNL     1     -11.637  11.930  68.793  1.00  0.00    -0.309 A  
HETATM   11  C   UNL     1     -10.766   9.352  69.250  1.00  0.00    -0.228 A  
HETATM   12  N   UNL     1     -11.093  11.213  67.769  1.00  0.00    -0.263 NA 
HETATM   13  C   UNL     1     -10.711   9.942  68.008  1.00  0.00    -0.248 A  
BRANCH  10  14
HETATM   14  C   UNL     1     -11.944  13.377  68.457  1.00  0.00    -0.328 C  
BRANCH  14  15
HETATM   15  S   UNL     1     -11.063  13.921  66.974  1.00  0.00    -0.309 S  
HETATM   16  O   UNL     1     -11.982  14.400  65.888  1.00  0.00    -0.377 OA 
BRANCH  15  17
HETATM   17  C   UNL     1     -10.262  15.336  67.581  1.00  0.00    -0.242 A  
HETATM   18  N   UNL     1      -8.962  15.491  67.719  1.00  0.00    -0.172 NA 
HETATM   19  C   UNL     1      -8.795  16.796  68.122  1.00  0.00    -0.223 A  
HETATM   20  H   UNL     1      -8.235  14.793  67.562  1.00  0.00     0.000 HD 
HETATM   21  C   UNL     1      -7.617  17.502  68.414  1.00  0.00    -0.254 A  
HETATM   22  C   UNL     1      -7.709  18.861  68.744  1.00  0.00    -0.366 A  
HETATM   23  C   UNL     1      -8.948  19.506  68.786  1.00  0.00    -0.364 A  
HETATM   24  C   UNL     1     -10.136  18.812  68.525  1.00  0.00    -0.444 A  
HETATM   25  C   UNL     1     -10.017  17.455  68.209  1.00  0.00    -0.320 A  
HETATM   26  N   UNL     1     -10.939  16.482  67.917  1.00  0.00    -0.325 NA 
ENDBRANCH  15  17
ENDBRANCH  14  15
ENDBRANCH  10  14
ENDBRANCH   6   7
ENDBRANCH   5   6
ENDBRANCH   4   5
ENDBRANCH   3   4
ENDBRANCH   2   3
TORSDOF 8
ENDMDL
MODEL       84
REMARK 921   NORMALIZED FREE ENERGY PREDICTED BY IDOCK:   -5.00 KCAL/MOL
REMARK 922        TOTAL FREE ENERGY PREDICTED BY IDOCK:   -8.22 KCAL/MOL
REMARK 923 INTER-LIGAND FREE ENERGY PREDICTED BY IDOCK:   -7.37 KCAL/MOL
REMARK 924 INTRA-LIGAND FREE ENERGY PREDICTED BY IDOCK:   -0.85 KCAL/MOL
REMARK 927      BINDING AFFINITY PREDICTED BY RF-SCORE:    0.00 PKD
ROOT
HETATM    1  C   UNL     1      -9.035   2.694  67.331  1.00  0.00    -0.159 C  
HETATM    2  O   UNL     1      -9.772   3.658  66.590  1.00  0.00    -0.182 OA 
ENDROOT
BRANCH   2   3
HETATM    3  C   UNL     1      -9.000   4.229  65.536  1.00  0.00    -0.132 C  
BRANCH   3   4
HETATM    4  C   UNL     1      -8.637   5.665  65.898  1.00  0.00    -0.144 C  
BRANCH   4   5
HETATM    5  C   UNL     1      -9.711   6.321  66.765  1.00  0.00    -0.156 C  
BRANCH   5   6
HETATM    6  O   UNL     1      -9.076   6.976  67.875  1.00  0.00    -0.128 OA 
BRANCH   6   7
HETATM    7  C   UNL     1      -9.696   6.798  69.090  1.00  0.00    -0.146 A  
HETATM    8  C   UNL     1      -9.917   7.940  69.883  1.00  0.00    -0.192 A  
HETATM    9  C   UNL     1      -9.386   9.277  69.448  1.00  0.00    -0.164 C  
HETATM   10  C   UNL     1     -10.681   7.785  71.054  1.00  0.00    -0.228 A  
HETATM   11  C   UNL     1     -10.094   5.546  69.552  1.00  0.00    -0.305 A  
HETATM   12  N   UNL     1     -11.115   6.562  71.473  1.00  0.00    -0.254 NA 
HETATM   13  C   UNL     1     -10.783   5.479  70.742  1.00  0.00    -0.224 A  
BRANCH  10  14
HETATM   14  C   UNL     1     -11.185   8.952  71.881  1.00  0.00    -0.377 C  
BRANCH  14  15
HETATM   15  S   UNL     1     -12.914   9.336  71.511  1.00  0.00    -0.362 S  
HETATM   16  O   UNL     1     -13.837   9.058  72.662  1.00  0.00    -0.467 OA 
BRANCH  15  17
HETATM   17  C   UNL     1     -12.833  11.064  71.368  1.00  0.00    -0.443 A  
HETATM   18  N   UNL     1     -12.206  11.735  70.426  1.00  0.00    -0.348 NA 
HETATM   19  C   UNL     1     -12.511  13.057  70.660  1.00  0.00    -0.268 A  
HETATM   20  H   UNL     1     -11.619  11.356  69.682  1.00  0.00     0.000 HD 
HETATM   21  C   UNL     1     -12.115  14.206  69.960  1.00  0.00    -0.409 A  
HETATM   22  C   UNL     1     -12.621  15.450  70.363  1.00  0.00    -0.433 A  
HETATM   23  C   UNL     1     -13.504  15.548  71.442  1.00  0.00    -0.583 A  
HETATM   24  C   UNL     1     -13.889  14.416  72.170  1.00  0.00    -0.572 A  
HETATM   25  C   UNL     1     -13.361  13.190  71.754  1.00  0.00    -0.389 A  
HETATM   26  N   UNL     1     -13.500  11.908  72.222  1.00  0.00    -0.304 NA 
ENDBRANCH  15  17
ENDBRANCH  14  15
ENDBRANCH  10  14
ENDBRANCH   6   7
ENDBRANCH   5   6
ENDBRANCH   4   5
ENDBRANCH   3   4
ENDBRANCH   2   3
TORSDOF 8
ENDMDL
MODEL       85
REMARK 921   NORMALIZED FREE ENERGY PREDICTED BY IDOCK:   -5.00 KCAL/MOL
REMARK 922        TOTAL FREE ENERGY PREDICTED BY IDOCK:   -8.22 KCAL/MOL
REMARK 923 INTER-LIGAND FREE ENERGY PREDICTED BY IDOCK:   -7.47 KCAL/MOL
REMARK 924 INTRA-LIGAND FREE ENERGY PREDICTED BY IDOCK:   -0.75 KCAL/MOL
REMARK 927      BINDING AFFINITY PREDICTED BY RF-SCORE:    0.00 PKD
ROOT
HETATM    1  C   UNL     1      -7.350   7.538  65.827  1.00  0.00    -0.070 C  
HETATM    2  O   UNL     1      -8.758   7.349  65.908  1.00  0.00    -0.154 OA 
ENDROOT
BRANCH   2   3
HETATM    3  C   UNL     1      -9.464   8.587  65.964  1.00  0.00    -0.186 C  
BRANCH   3   4
HETATM    4  C   UNL     1      -8.978   9.494  64.839  1.00  0.00    -0.264 C  
BRANCH   4   5
HETATM    5  C   UNL     1      -9.787  10.789  64.763  1.00  0.00    -0.300 C  
BRANCH   5   6
HETATM    6  O   UNL     1     -10.879  10.709  65.693  1.00  0.00    -0.095 OA 
BRANCH   6   7
HETATM    7  C   UNL     1     -11.352  11.921  66.141  1.00  0.00    -0.324 A  
HETATM    8  C   UNL     1     -10.914  12.366  67.403  1.00  0.00    -0.296 A  
HETATM    9  C   UNL     1     -10.052  11.481  68.259  1.00  0.00    -0.205 C  
HETATM   10  C   UNL     1     -11.275  13.666  67.800  1.00  0.00    -0.285 A  
HETATM   11  C   UNL     1     -12.240  12.699  65.402  1.00  0.00    -0.517 A  
HETATM   12  N   UNL     1     -12.102  14.444  67.045  1.00  0.00    -0.400 NA 
HETATM   13  C   UNL     1     -12.591  13.935  65.897  1.00  0.00    -0.456 A  
BRANCH  10  14
HETATM   14  C   UNL     1     -10.697  14.357  69.020  1.00  0.00    -0.250 C  
BRANCH  14  15
HETATM   15  S   UNL     1     -11.520  15.933  69.349  1.00  0.00    -0.345 S  
HETATM   16  O   UNL     1     -11.578  16.273  70.810  1.00  0.00    -0.377 OA 
BRANCH  15  17
HETATM   17  C   UNL     1     -10.381  17.039  68.646  1.00  0.00    -0.351 A  
HETATM   18  N   UNL     1     -10.671  18.056  67.862  1.00  0.00    -0.372 NA 
HETATM   19  C   UNL     1      -9.473  18.701  67.649  1.00  0.00    -0.293 A  
HETATM   20  H   UNL     1     -11.587  18.311  67.492  1.00  0.00     0.000 HD 
HETATM   21  C   UNL     1      -9.194  19.849  66.893  1.00  0.00    -0.475 A  
HETATM   22  C   UNL     1      -7.886  20.352  66.887  1.00  0.00    -0.342 A  
HETATM   23  C   UNL     1      -6.874  19.725  67.619  1.00  0.00    -0.276 A  
HETATM   24  C   UNL     1      -7.127  18.562  68.358  1.00  0.00    -0.287 A  
HETATM   25  C   UNL     1      -8.437  18.075  68.337  1.00  0.00    -0.298 A  
HETATM   26  N   UNL     1      -9.035  16.984  68.914  1.00  0.00    -0.248 NA 
ENDBRANCH  15  17
ENDBRANCH  14  15
ENDBRANCH  10  14
ENDBRANCH   6   7
ENDBRANCH   5   6
ENDBRANCH   4   5
ENDBRANCH   3   4
ENDBRANCH   2   3
TORSDOF 8
ENDMDL
MODEL       86
REMARK 921   NORMALIZED FREE ENERGY PREDICTED BY IDOCK:   -4.98 KCAL/MOL
REMARK 922        TOTAL FREE ENERGY PREDICTED BY IDOCK:   -8.18 KCAL/MOL
REMARK 923 INTER-LIGAND FREE ENERGY PREDICTED BY IDOCK:   -7.61 KCAL/MOL
REMARK 924 INTRA-LIGAND FREE ENERGY PREDICTED BY IDOCK:   -0.57 KCAL/MOL
REMARK 927      BINDING AFFINITY PREDICTED BY RF-SCORE:    0.00 PKD
ROOT
HETATM    1  C   UNL     1     -12.502  16.073  74.478  1.00  0.00    -0.541 C  
HETATM    2  O   UNL     1     -13.032  15.879  73.172  1.00  0.00    -0.464 OA 
ENDROOT
BRANCH   2   3
HETATM    3  C   UNL     1     -12.030  15.994  72.164  1.00  0.00    -0.538 C  
BRANCH   3   4
HETATM    4  C   UNL     1     -12.128  14.802  71.219  1.00  0.00    -0.399 C  
BRANCH   4   5
HETATM    5  C   UNL     1     -12.842  13.618  71.870  1.00  0.00    -0.287 C  
BRANCH   5   6
HETATM    6  O   UNL     1     -13.196  12.671  70.849  1.00  0.00     0.033 OA 
BRANCH   6   7
HETATM    7  C   UNL     1     -12.556  11.457  70.934  1.00  0.00    -0.356 A  
HETATM    8  C   UNL     1     -11.505  11.209  70.030  1.00  0.00    -0.376 A  
HETATM    9  C   UNL     1     -11.187  12.204  68.949  1.00  0.00    -0.320 C  
HETATM   10  C   UNL     1     -10.752  10.035  70.208  1.00  0.00    -0.309 A  
HETATM   11  C   UNL     1     -12.916  10.482  71.861  1.00  0.00    -0.553 A  
HETATM   12  N   UNL     1     -11.077   9.109  71.155  1.00  0.00    -0.293 NA 
HETATM   13  C   UNL     1     -12.162   9.332  71.924  1.00  0.00    -0.378 A  
BRANCH  10  14
HETATM   14  C   UNL     1      -9.464   9.748  69.460  1.00  0.00    -0.212 C  
BRANCH  14  15
HETATM   15  S   UNL     1      -9.631   8.318  68.365  1.00  0.00    -0.147 S  
HETATM   16  O   UNL     1     -10.937   7.598  68.533  1.00  0.00    -0.020 OA 
BRANCH  15  17
HETATM   17  C   UNL     1      -9.715   9.108  66.822  1.00  0.00    -0.210 A  
HETATM   18  N   UNL     1     -10.522  10.096  66.500  1.00  0.00    -0.199 NA 
HETATM   19  C   UNL     1     -10.153  10.464  65.226  1.00  0.00    -0.300 A  
HETATM   20  H   UNL     1     -11.262  10.503  67.073  1.00  0.00     0.000 HD 
HETATM   21  C   UNL     1     -10.675  11.467  64.394  1.00  0.00    -0.405 A  
HETATM   22  C   UNL     1     -10.074  11.690  63.148  1.00  0.00    -0.409 A  
HETATM   23  C   UNL     1      -8.977  10.929  62.734  1.00  0.00    -0.326 A  
HETATM   24  C   UNL     1      -8.460   9.905  63.538  1.00  0.00    -0.183 A  
HETATM   25  C   UNL     1      -9.084   9.696  64.772  1.00  0.00    -0.231 A  
HETATM   26  N   UNL     1      -8.866   8.800  65.787  1.00  0.00    -0.184 NA 
ENDBRANCH  15  17
ENDBRANCH  14  15
ENDBRANCH  10  14
ENDBRANCH   6   7
ENDBRANCH   5   6
ENDBRANCH   4   5
ENDBRANCH   3   4
ENDBRANCH   2   3
TORSDOF 8
ENDMDL
MODEL       87
REMARK 921   NORMALIZED FREE ENERGY PREDICTED BY IDOCK:   -4.98 KCAL/MOL
REMARK 922        TOTAL FREE ENERGY PREDICTED BY IDOCK:   -8.18 KCAL/MOL
REMARK 923 INTER-LIGAND FREE ENERGY PREDICTED BY IDOCK:   -7.52 KCAL/MOL
REMARK 924 INTRA-LIGAND FREE ENERGY PREDICTED BY IDOCK:   -0.65 KCAL/MOL
REMARK 927      BINDING AFFINITY PREDICTED BY RF-SCORE:    0.00 PKD
ROOT
HETATM    1  C   UNL     1      -8.540   8.428  65.828  1.00  0.00    -0.159 C  
HETATM    2  O   UNL     1      -9.570   7.847  66.618  1.00  0.00    -0.197 OA 
ENDROOT
BRANCH   2   3
HETATM    3  C   UNL     1     -10.650   8.752  66.841  1.00  0.00    -0.193 C  
BRANCH   3   4
HETATM    4  C   UNL     1     -10.111  10.177  66.881  1.00  0.00    -0.279 C  
BRANCH   4   5
HETATM    5  C   UNL     1     -10.913  11.062  67.836  1.00  0.00    -0.264 C  
BRANCH   5   6
HETATM    6  O   UNL     1     -11.907  11.776  67.084  1.00  0.00    -0.599 OA 
BRANCH   6   7
HETATM    7  C   UNL     1     -11.501  12.995  66.593  1.00  0.00    -0.336 A  
HETATM    8  C   UNL     1     -11.557  14.101  67.464  1.00  0.00    -0.396 A  
HETATM    9  C   UNL     1     -12.148  13.952  68.838  1.00  0.00    -0.355 C  
HETATM   10  C   UNL     1     -11.006  15.315  67.016  1.00  0.00    -0.324 A  
HETATM   11  C   UNL     1     -11.055  13.166  65.285  1.00  0.00    -0.304 A  
HETATM   12  N   UNL     1     -10.520  15.460  65.750  1.00  0.00    -0.330 NA 
HETATM   13  C   UNL     1     -10.591  14.407  64.911  1.00  0.00    -0.434 A  
BRANCH  10  14
HETATM   14  C   UNL     1     -10.794  16.517  67.915  1.00  0.00    -0.326 C  
BRANCH  14  15
HETATM   15  S   UNL     1      -9.254  16.386  68.855  1.00  0.00    -0.251 S  
HETATM   16  O   UNL     1      -8.530  15.092  68.618  1.00  0.00    -0.152 OA 
BRANCH  15  17
HETATM   17  C   UNL     1      -8.304  17.615  68.082  1.00  0.00    -0.259 A  
HETATM   18  N   UNL     1      -8.110  17.744  66.787  1.00  0.00    -0.227 NA 
HETATM   19  C   UNL     1      -7.394  18.912  66.643  1.00  0.00    -0.224 A  
HETATM   20  H   UNL     1      -8.423  17.114  66.048  1.00  0.00     0.000 HD 
HETATM   21  C   UNL     1      -6.918  19.535  65.480  1.00  0.00    -0.299 A  
HETATM   22  C   UNL     1      -6.264  20.769  65.595  1.00  0.00    -0.274 A  
HETATM   23  C   UNL     1      -6.085  21.372  66.843  1.00  0.00    -0.391 A  
HETATM   24  C   UNL     1      -6.529  20.752  68.018  1.00  0.00    -0.362 A  
HETATM   25  C   UNL     1      -7.168  19.516  67.876  1.00  0.00    -0.271 A  
HETATM   26  N   UNL     1      -7.707  18.636  68.780  1.00  0.00    -0.317 NA 
ENDBRANCH  15  17
ENDBRANCH  14  15
ENDBRANCH  10  14
ENDBRANCH   6   7
ENDBRANCH   5   6
ENDBRANCH   4   5
ENDBRANCH   3   4
ENDBRANCH   2   3
TORSDOF 8
ENDMDL
MODEL       88
REMARK 921   NORMALIZED FREE ENERGY PREDICTED BY IDOCK:   -4.96 KCAL/MOL
REMARK 922        TOTAL FREE ENERGY PREDICTED BY IDOCK:   -8.16 KCAL/MOL
REMARK 923 INTER-LIGAND FREE ENERGY PREDICTED BY IDOCK:   -7.53 KCAL/MOL
REMARK 924 INTRA-LIGAND FREE ENERGY PREDICTED BY IDOCK:   -0.63 KCAL/MOL
REMARK 927      BINDING AFFINITY PREDICTED BY RF-SCORE:    0.00 PKD
ROOT
HETATM    1  C   UNL     1     -12.501  12.143  63.490  1.00  0.00    -0.555 C  
HETATM    2  O   UNL     1     -12.437  13.528  63.171  1.00  0.00    -0.759 OA 
ENDROOT
BRANCH   2   3
HETATM    3  C   UNL     1     -11.929  14.305  64.254  1.00  0.00    -0.425 C  
BRANCH   3   4
HETATM    4  C   UNL     1     -12.620  13.882  65.544  1.00  0.00    -0.560 C  
BRANCH   4   5
HETATM    5  C   UNL     1     -11.617  13.617  66.667  1.00  0.00    -0.364 C  
BRANCH   5   6
HETATM    6  O   UNL     1     -12.123  12.563  67.502  1.00  0.00    -0.453 OA 
BRANCH   6   7
HETATM    7  C   UNL     1     -11.349  11.426  67.538  1.00  0.00    -0.292 A  
HETATM    8  C   UNL     1     -11.307  10.703  68.746  1.00  0.00    -0.339 A  
HETATM    9  C   UNL     1     -12.000  11.235  69.969  1.00  0.00    -0.447 C  
HETATM   10  C   UNL     1     -10.640   9.465  68.744  1.00  0.00    -0.208 A  
HETATM   11  C   UNL     1     -10.614  10.984  66.440  1.00  0.00    -0.308 A  
HETATM   12  N   UNL     1      -9.968   9.012  67.648  1.00  0.00    -0.187 NA 
HETATM   13  C   UNL     1      -9.937   9.790  66.547  1.00  0.00    -0.239 A  
BRANCH  10  14
HETATM   14  C   UNL     1     -10.704   8.482  69.897  1.00  0.00    -0.224 C  
BRANCH  14  15
HETATM   15  S   UNL     1      -9.055   8.070  70.517  1.00  0.00    -0.155 S  
HETATM   16  O   UNL     1      -8.494   9.118  71.434  1.00  0.00    -0.317 OA 
BRANCH  15  17
HETATM   17  C   UNL     1      -9.424   6.704  71.521  1.00  0.00    -0.156 A  
HETATM   18  N   UNL     1     -10.597   6.424  72.048  1.00  0.00    -0.208 NA 
HETATM   19  C   UNL     1     -10.435   5.202  72.661  1.00  0.00    -0.212 A  
HETATM   20  H   UNL     1     -11.444   6.991  72.010  1.00  0.00     0.000 HD 
HETATM   21  C   UNL     1     -11.362   4.427  73.376  1.00  0.00    -0.353 A  
HETATM   22  C   UNL     1     -10.964   3.170  73.853  1.00  0.00    -0.276 A  
HETATM   23  C   UNL     1      -9.670   2.694  73.626  1.00  0.00    -0.139 A  
HETATM   24  C   UNL     1      -8.723   3.465  72.939  1.00  0.00    -0.091 A  
HETATM   25  C   UNL     1      -9.143   4.719  72.483  1.00  0.00    -0.128 A  
HETATM   26  N   UNL     1      -8.503   5.725  71.805  1.00  0.00    -0.130 NA 
ENDBRANCH  15  17
ENDBRANCH  14  15
ENDBRANCH  10  14
ENDBRANCH   6   7
ENDBRANCH   5   6
ENDBRANCH   4   5
ENDBRANCH   3   4
ENDBRANCH   2   3
TORSDOF 8
ENDMDL
MODEL       89
REMARK 921   NORMALIZED FREE ENERGY PREDICTED BY IDOCK:   -4.95 KCAL/MOL
REMARK 922        TOTAL FREE ENERGY PREDICTED BY IDOCK:   -8.14 KCAL/MOL
REMARK 923 INTER-LIGAND FREE ENERGY PREDICTED BY IDOCK:   -7.13 KCAL/MOL
REMARK 924 INTRA-LIGAND FREE ENERGY PREDICTED BY IDOCK:   -1.01 KCAL/MOL
REMARK 927      BINDING AFFINITY PREDICTED BY RF-SCORE:    0.00 PKD
ROOT
HETATM    1  C   UNL     1      -8.737   7.867  73.724  1.00  0.00    -0.271 C  
HETATM    2  O   UNL     1      -9.180   6.654  73.129  1.00  0.00    -0.128 OA 
ENDROOT
BRANCH   2   3
HETATM    3  C   UNL     1     -10.586   6.656  72.889  1.00  0.00    -0.245 C  
BRANCH   3   4
HETATM    4  C   UNL     1     -10.858   6.132  71.484  1.00  0.00    -0.313 C  
BRANCH   4   5
HETATM    5  C   UNL     1      -9.564   5.837  70.726  1.00  0.00    -0.171 C  
BRANCH   5   6
HETATM    6  O   UNL     1      -9.656   6.406  69.411  1.00  0.00    -0.142 OA 
BRANCH   6   7
HETATM    7  C   UNL     1      -9.323   7.738  69.327  1.00  0.00    -0.148 A  
HETATM    8  C   UNL     1      -9.934   8.501  68.312  1.00  0.00    -0.211 A  
HETATM    9  C   UNL     1     -10.825   7.836  67.301  1.00  0.00    -0.225 C  
HETATM   10  C   UNL     1      -9.713   9.889  68.315  1.00  0.00    -0.144 A  
HETATM   11  C   UNL     1      -8.413   8.340  70.192  1.00  0.00    -0.126 A  
HETATM   12  N   UNL     1      -8.861  10.480  69.201  1.00  0.00    -0.166 NA 
HETATM   13  C   UNL     1      -8.208   9.697  70.083  1.00  0.00    -0.187 A  
BRANCH  10  14
HETATM   14  C   UNL     1     -10.475  10.857  67.430  1.00  0.00    -0.224 C  
BRANCH  14  15
HETATM   15  S   UNL     1     -10.034  12.575  67.784  1.00  0.00    -0.215 S  
HETATM   16  O   UNL     1     -10.321  13.503  66.639  1.00  0.00    -0.264 OA 
BRANCH  15  17
HETATM   17  C   UNL     1     -11.200  12.956  69.012  1.00  0.00    -0.267 A  
HETATM   18  N   UNL     1     -11.634  12.139  69.948  1.00  0.00    -0.492 NA 
HETATM   19  C   UNL     1     -12.450  12.907  70.747  1.00  0.00    -0.286 A  
HETATM   20  H   UNL     1     -11.413  11.149  70.057  1.00  0.00     0.000 HD 
HETATM   21  C   UNL     1     -13.176  12.551  71.895  1.00  0.00    -0.495 A  
HETATM   22  C   UNL     1     -13.890  13.545  72.577  1.00  0.00    -0.624 A  
HETATM   23  C   UNL     1     -13.885  14.867  72.127  1.00  0.00    -0.576 A  
HETATM   24  C   UNL     1     -13.190  15.237  70.969  1.00  0.00    -0.546 A  
HETATM   25  C   UNL     1     -12.495  14.224  70.301  1.00  0.00    -0.361 A  
HETATM   26  N   UNL     1     -11.736  14.212  69.158  1.00  0.00    -0.304 NA 
ENDBRANCH  15  17
ENDBRANCH  14  15
ENDBRANCH  10  14
ENDBRANCH   6   7
ENDBRANCH   5   6
ENDBRANCH   4   5
ENDBRANCH   3   4
ENDBRANCH   2   3
TORSDOF 8
ENDMDL
MODEL       90
REMARK 921   NORMALIZED FREE ENERGY PREDICTED BY IDOCK:   -4.92 KCAL/MOL
REMARK 922        TOTAL FREE ENERGY PREDICTED BY IDOCK:   -8.09 KCAL/MOL
REMARK 923 INTER-LIGAND FREE ENERGY PREDICTED BY IDOCK:   -7.57 KCAL/MOL
REMARK 924 INTRA-LIGAND FREE ENERGY PREDICTED BY IDOCK:   -0.52 KCAL/MOL
REMARK 927      BINDING AFFINITY PREDICTED BY RF-SCORE:    0.00 PKD
ROOT
HETATM    1  C   UNL     1      -9.505   3.283  70.275  1.00  0.00    -0.164 C  
HETATM    2  O   UNL     1      -8.356   3.521  71.079  1.00  0.00    -0.065 OA 
ENDROOT
BRANCH   2   3
HETATM    3  C   UNL     1      -8.633   3.366  72.469  1.00  0.00    -0.085 C  
BRANCH   3   4
HETATM    4  C   UNL     1     -10.118   3.083  72.658  1.00  0.00    -0.231 C  
BRANCH   4   5
HETATM    5  C   UNL     1     -10.730   3.960  73.751  1.00  0.00    -0.231 C  
BRANCH   5   6
HETATM    6  O   UNL     1     -11.389   5.078  73.136  1.00  0.00    -0.314 OA 
BRANCH   6   7
HETATM    7  C   UNL     1     -10.625   6.217  73.028  1.00  0.00    -0.241 A  
HETATM    8  C   UNL     1     -10.797   7.012  71.879  1.00  0.00    -0.253 A  
HETATM    9  C   UNL     1     -11.705   6.553  70.772  1.00  0.00    -0.427 C  
HETATM   10  C   UNL     1     -10.131   8.249  71.833  1.00  0.00    -0.245 A  
HETATM   11  C   UNL     1      -9.699   6.594  73.998  1.00  0.00    -0.287 A  
HETATM   12  N   UNL     1      -9.266   8.637  72.814  1.00  0.00    -0.306 NA 
HETATM   13  C   UNL     1      -9.043   7.794  73.842  1.00  0.00    -0.239 A  
BRANCH  10  14
HETATM   14  C   UNL     1     -10.395   9.301  70.772  1.00  0.00    -0.281 C  
BRANCH  14  15
HETATM   15  S   UNL     1     -12.137   9.785  70.730  1.00  0.00    -0.257 S  
HETATM   16  O   UNL     1     -12.672  10.170  72.079  1.00  0.00    -0.397 OA 
BRANCH  15  17
HETATM   17  C   UNL     1     -12.037  11.257  69.816  1.00  0.00    -0.325 A  
HETATM   18  N   UNL     1     -11.868  12.465  70.310  1.00  0.00    -0.534 NA 
HETATM   19  C   UNL     1     -11.737  13.288  69.214  1.00  0.00    -0.326 A  
HETATM   20  H   UNL     1     -11.841  12.734  71.294  1.00  0.00     0.000 HD 
HETATM   21  C   UNL     1     -11.533  14.675  69.152  1.00  0.00    -0.320 A  
HETATM   22  C   UNL     1     -11.364  15.277  67.898  1.00  0.00    -0.339 A  
HETATM   23  C   UNL     1     -11.398  14.515  66.727  1.00  0.00    -0.358 A  
HETATM   24  C   UNL     1     -11.628  13.134  66.766  1.00  0.00    -0.414 A  
HETATM   25  C   UNL     1     -11.804  12.561  68.029  1.00  0.00    -0.325 A  
HETATM   26  N   UNL     1     -12.056  11.277  68.443  1.00  0.00    -0.609 NA 
ENDBRANCH  15  17
ENDBRANCH  14  15
ENDBRANCH  10  14
ENDBRANCH   6   7
ENDBRANCH   5   6
ENDBRANCH   4   5
ENDBRANCH   3   4
ENDBRANCH   2   3
TORSDOF 8
ENDMDL
MODEL       91
REMARK 921   NORMALIZED FREE ENERGY PREDICTED BY IDOCK:   -4.92 KCAL/MOL
REMARK 922        TOTAL FREE ENERGY PREDICTED BY IDOCK:   -8.09 KCAL/MOL
REMARK 923 INTER-LIGAND FREE ENERGY PREDICTED BY IDOCK:   -7.22 KCAL/MOL
REMARK 924 INTRA-LIGAND FREE ENERGY PREDICTED BY IDOCK:   -0.87 KCAL/MOL
REMARK 927      BINDING AFFINITY PREDICTED BY RF-SCORE:    0.00 PKD
ROOT
HETATM    1  C   UNL     1      -6.887  17.577  66.423  1.00  0.00    -0.273 C  
HETATM    2  O   UNL     1      -7.528  18.146  67.558  1.00  0.00    -0.209 OA 
ENDROOT
BRANCH   2   3
HETATM    3  C   UNL     1      -8.164  19.385  67.249  1.00  0.00    -0.281 C  
BRANCH   3   4
HETATM    4  C   UNL     1      -9.658  19.149  67.062  1.00  0.00    -0.378 C  
BRANCH   4   5
HETATM    5  C   UNL     1     -10.222  18.201  68.120  1.00  0.00    -0.388 C  
BRANCH   5   6
HETATM    6  O   UNL     1     -10.688  17.006  67.472  1.00  0.00    -0.330 OA 
BRANCH   6   7
HETATM    7  C   UNL     1     -11.092  16.003  68.322  1.00  0.00    -0.351 A  
HETATM    8  C   UNL     1     -11.386  14.747  67.755  1.00  0.00    -0.344 A  
HETATM    9  C   UNL     1     -11.362  14.567  66.263  1.00  0.00    -0.352 C  
HETATM   10  C   UNL     1     -11.655  13.681  68.632  1.00  0.00    -0.329 A  
HETATM   11  C   UNL     1     -11.224  16.191  69.695  1.00  0.00    -0.331 A  
HETATM   12  N   UNL     1     -11.729  13.861  69.981  1.00  0.00    -0.281 NA 
HETATM   13  C   UNL     1     -11.553  15.103  70.474  1.00  0.00    -0.300 A  
BRANCH  10  14
HETATM   14  C   UNL     1     -11.766  12.237  68.180  1.00  0.00    -0.349 C  
BRANCH  14  15
HETATM   15  S   UNL     1     -10.144  11.448  68.058  1.00  0.00    -0.186 S  
HETATM   16  O   UNL     1      -9.030  12.311  68.574  1.00  0.00    -0.161 OA 
BRANCH  15  17
HETATM   17  C   UNL     1     -10.327  10.163  69.210  1.00  0.00    -0.223 A  
HETATM   18  N   UNL     1      -9.656   9.032  69.223  1.00  0.00    -0.160 NA 
HETATM   19  C   UNL     1     -10.057   8.386  70.371  1.00  0.00    -0.187 A  
HETATM   20  H   UNL     1      -8.982   8.703  68.531  1.00  0.00     0.000 HD 
HETATM   21  C   UNL     1      -9.660   7.143  70.887  1.00  0.00    -0.167 A  
HETATM   22  C   UNL     1     -10.173   6.732  72.125  1.00  0.00    -0.213 A  
HETATM   23  C   UNL     1     -11.065   7.540  72.835  1.00  0.00    -0.426 A  
HETATM   24  C   UNL     1     -11.494   8.771  72.324  1.00  0.00    -0.376 A  
HETATM   25  C   UNL     1     -10.975   9.153  71.083  1.00  0.00    -0.320 A  
HETATM   26  N   UNL     1     -11.174  10.253  70.288  1.00  0.00    -0.303 NA 
ENDBRANCH  15  17
ENDBRANCH  14  15
ENDBRANCH  10  14
ENDBRANCH   6   7
ENDBRANCH   5   6
ENDBRANCH   4   5
ENDBRANCH   3   4
ENDBRANCH   2   3
TORSDOF 8
ENDMDL
MODEL       92
REMARK 921   NORMALIZED FREE ENERGY PREDICTED BY IDOCK:   -4.91 KCAL/MOL
REMARK 922        TOTAL FREE ENERGY PREDICTED BY IDOCK:   -8.08 KCAL/MOL
REMARK 923 INTER-LIGAND FREE ENERGY PREDICTED BY IDOCK:   -7.56 KCAL/MOL
REMARK 924 INTRA-LIGAND FREE ENERGY PREDICTED BY IDOCK:   -0.52 KCAL/MOL
REMARK 927      BINDING AFFINITY PREDICTED BY RF-SCORE:    0.00 PKD
ROOT
HETATM    1  C   UNL     1      -9.988   4.437  67.641  1.00  0.00    -0.053 C  
HETATM    2  O   UNL     1     -10.637   5.235  66.659  1.00  0.00    -0.284 OA 
ENDROOT
BRANCH   2   3
HETATM    3  C   UNL     1     -11.134   6.456  67.203  1.00  0.00    -0.341 C  
BRANCH   3   4
HETATM    4  C   UNL     1     -10.196   7.595  66.821  1.00  0.00    -0.333 C  
BRANCH   4   5
HETATM    5  C   UNL     1     -10.620   8.919  67.455  1.00  0.00    -0.237 C  
BRANCH   5   6
HETATM    6  O   UNL     1     -10.484   9.966  66.481  1.00  0.00    -0.209 OA 
BRANCH   6   7
HETATM    7  C   UNL     1     -10.944  11.199  66.883  1.00  0.00    -0.273 A  
HETATM    8  C   UNL     1     -11.404  12.080  65.886  1.00  0.00    -0.391 A  
HETATM    9  C   UNL     1     -11.282  11.709  64.434  1.00  0.00    -0.360 C  
HETATM   10  C   UNL     1     -12.010  13.279  66.301  1.00  0.00    -0.417 A  
HETATM   11  C   UNL     1     -10.958  11.595  68.218  1.00  0.00    -0.273 A  
HETATM   12  N   UNL     1     -12.070  13.636  67.616  1.00  0.00    -0.338 NA 
HETATM   13  C   UNL     1     -11.515  12.815  68.530  1.00  0.00    -0.309 A  
BRANCH  10  14
HETATM   14  C   UNL     1     -12.746  14.212  65.359  1.00  0.00    -0.431 C  
BRANCH  14  15
HETATM   15  S   UNL     1     -11.601  15.172  64.339  1.00  0.00    -0.187 S  
HETATM   16  O   UNL     1     -12.191  16.462  63.849  1.00  0.00    -0.902 OA 
BRANCH  15  17
HETATM   17  C   UNL     1     -10.410  15.609  65.523  1.00  0.00    -0.396 A  
HETATM   18  N   UNL     1     -10.468  16.643  66.335  1.00  0.00    -0.294 NA 
HETATM   19  C   UNL     1      -9.371  16.517  67.158  1.00  0.00    -0.233 A  
HETATM   20  H   UNL     1     -11.173  17.379  66.351  1.00  0.00     0.000 HD 
HETATM   21  C   UNL     1      -8.940  17.339  68.211  1.00  0.00    -0.262 A  
HETATM   22  C   UNL     1      -7.813  16.955  68.949  1.00  0.00    -0.233 A  
HETATM   23  C   UNL     1      -7.125  15.777  68.645  1.00  0.00    -0.129 A  
HETATM   24  C   UNL     1      -7.523  14.958  67.581  1.00  0.00    -0.205 A  
HETATM   25  C   UNL     1      -8.644  15.370  66.854  1.00  0.00    -0.259 A  
HETATM   26  N   UNL     1      -9.296  14.843  65.768  1.00  0.00    -0.208 NA 
ENDBRANCH  15  17
ENDBRANCH  14  15
ENDBRANCH  10  14
ENDBRANCH   6   7
ENDBRANCH   5   6
ENDBRANCH   4   5
ENDBRANCH   3   4
ENDBRANCH   2   3
TORSDOF 8
ENDMDL
MODEL       93
REMARK 921   NORMALIZED FREE ENERGY PREDICTED BY IDOCK:   -4.91 KCAL/MOL
REMARK 922        TOTAL FREE ENERGY PREDICTED BY IDOCK:   -8.07 KCAL/MOL
REMARK 923 INTER-LIGAND FREE ENERGY PREDICTED BY IDOCK:   -7.57 KCAL/MOL
REMARK 924 INTRA-LIGAND FREE ENERGY PREDICTED BY IDOCK:   -0.50 KCAL/MOL
REMARK 927      BINDING AFFINITY PREDICTED BY RF-SCORE:    0.00 PKD
ROOT
HETATM    1  C   UNL     1     -10.960   6.272  69.577  1.00  0.00    -0.379 C  
HETATM    2  O   UNL     1     -11.091   7.172  70.670  1.00  0.00    -0.249 OA 
ENDROOT
BRANCH   2   3
HETATM    3  C   UNL     1     -12.455   7.475  70.955  1.00  0.00    -0.212 C  
BRANCH   3   4
HETATM    4  C   UNL     1     -12.516   8.579  72.004  1.00  0.00    -0.417 C  
BRANCH   4   5
HETATM    5  C   UNL     1     -11.882   9.876  71.503  1.00  0.00    -0.365 C  
BRANCH   5   6
HETATM    6  O   UNL     1     -12.644  10.365  70.387  1.00  0.00    -0.305 OA 
BRANCH   6   7
HETATM    7  C   UNL     1     -11.909  10.998  69.412  1.00  0.00    -0.335 A  
HETATM    8  C   UNL     1     -11.621  12.364  69.596  1.00  0.00    -0.330 A  
HETATM    9  C   UNL     1     -12.202  13.108  70.766  1.00  0.00    -0.375 C  
HETATM   10  C   UNL     1     -10.748  12.978  68.680  1.00  0.00    -0.248 A  
HETATM   11  C   UNL     1     -11.458  10.343  68.269  1.00  0.00    -0.218 A  
HETATM   12  N   UNL     1     -10.266  12.314  67.591  1.00  0.00    -0.200 NA 
HETATM   13  C   UNL     1     -10.659  11.040  67.391  1.00  0.00    -0.237 A  
BRANCH  10  14
HETATM   14  C   UNL     1     -10.175  14.368  68.877  1.00  0.00    -0.213 C  
BRANCH  14  15
HETATM   15  S   UNL     1     -11.260  15.641  68.189  1.00  0.00    -0.335 S  
HETATM   16  O   UNL     1     -12.375  16.027  69.117  1.00  0.00    -0.116 OA 
BRANCH  15  17
HETATM   17  C   UNL     1     -10.177  16.997  68.153  1.00  0.00    -0.322 A  
HETATM   18  N   UNL     1      -9.012  17.074  68.759  1.00  0.00    -0.267 NA 
HETATM   19  C   UNL     1      -8.473  18.275  68.355  1.00  0.00    -0.303 A  
HETATM   20  H   UNL     1      -8.597  16.391  69.394  1.00  0.00     0.000 HD 
HETATM   21  C   UNL     1      -7.245  18.866  68.691  1.00  0.00    -0.333 A  
HETATM   22  C   UNL     1      -6.893  20.081  68.087  1.00  0.00    -0.329 A  
HETATM   23  C   UNL     1      -7.746  20.697  67.168  1.00  0.00    -0.348 A  
HETATM   24  C   UNL     1      -8.987  20.137  66.841  1.00  0.00    -0.448 A  
HETATM   25  C   UNL     1      -9.319  18.931  67.466  1.00  0.00    -0.294 A  
HETATM   26  N   UNL     1     -10.424  18.121  67.403  1.00  0.00    -0.392 NA 
ENDBRANCH  15  17
ENDBRANCH  14  15
ENDBRANCH  10  14
ENDBRANCH   6   7
ENDBRANCH   5   6
ENDBRANCH   4   5
ENDBRANCH   3   4
ENDBRANCH   2   3
TORSDOF 8
ENDMDL
MODEL       94
REMARK 921   NORMALIZED FREE ENERGY PREDICTED BY IDOCK:   -4.89 KCAL/MOL
REMARK 922        TOTAL FREE ENERGY PREDICTED BY IDOCK:   -8.06 KCAL/MOL
REMARK 923 INTER-LIGAND FREE ENERGY PREDICTED BY IDOCK:   -7.34 KCAL/MOL
REMARK 924 INTRA-LIGAND FREE ENERGY PREDICTED BY IDOCK:   -0.72 KCAL/MOL
REMARK 927      BINDING AFFINITY PREDICTED BY RF-SCORE:    0.00 PKD
ROOT
HETATM    1  C   UNL     1      -8.846   9.269  70.634  1.00  0.00    -0.237 C  
HETATM    2  O   UNL     1      -7.465   9.195  70.963  1.00  0.00    -0.114 OA 
ENDROOT
BRANCH   2   3
HETATM    3  C   UNL     1      -6.641   9.091  69.803  1.00  0.00    -0.045 C  
BRANCH   3   4
HETATM    4  C   UNL     1      -7.526   9.005  68.565  1.00  0.00    -0.085 C  
BRANCH   4   5
HETATM    5  C   UNL     1      -6.707   9.069  67.276  1.00  0.00    -0.069 C  
BRANCH   5   6
HETATM    6  O   UNL     1      -6.912  10.350  66.659  1.00  0.00    -0.099 OA 
BRANCH   6   7
HETATM    7  C   UNL     1      -8.197  10.590  66.229  1.00  0.00    -0.147 A  
HETATM    8  C   UNL     1      -8.862  11.714  66.757  1.00  0.00    -0.184 A  
HETATM    9  C   UNL     1      -8.214  12.540  67.832  1.00  0.00    -0.165 C  
HETATM   10  C   UNL     1     -10.115  12.048  66.212  1.00  0.00    -0.222 A  
HETATM   11  C   UNL     1      -8.848   9.767  65.314  1.00  0.00    -0.206 A  
HETATM   12  N   UNL     1     -10.723  11.266  65.276  1.00  0.00    -0.266 NA 
HETATM   13  C   UNL     1     -10.102  10.136  64.881  1.00  0.00    -0.207 A  
BRANCH  10  14
HETATM   14  C   UNL     1     -10.839  13.345  66.520  1.00  0.00    -0.282 C  
BRANCH  14  15
HETATM   15  S   UNL     1     -10.774  14.494  65.125  1.00  0.00    -0.434 S  
HETATM   16  O   UNL     1     -12.064  14.565  64.361  1.00  0.00    -0.472 OA 
BRANCH  15  17
HETATM   17  C   UNL     1     -10.630  16.006  65.965  1.00  0.00    -0.316 A  
HETATM   18  N   UNL     1     -10.495  16.160  67.264  1.00  0.00    -0.306 NA 
HETATM   19  C   UNL     1     -10.308  17.512  67.450  1.00  0.00    -0.351 A  
HETATM   20  H   UNL     1     -10.522  15.435  67.981  1.00  0.00     0.000 HD 
HETATM   21  C   UNL     1     -10.108  18.236  68.635  1.00  0.00    -0.407 A  
HETATM   22  C   UNL     1      -9.874  19.615  68.552  1.00  0.00    -0.519 A  
HETATM   23  C   UNL     1      -9.841  20.263  67.314  1.00  0.00    -0.593 A  
HETATM   24  C   UNL     1     -10.065  19.563  66.123  1.00  0.00    -0.557 A  
HETATM   25  C   UNL     1     -10.307  18.190  66.235  1.00  0.00    -0.397 A  
HETATM   26  N   UNL     1     -10.576  17.212  65.310  1.00  0.00    -0.662 NA 
ENDBRANCH  15  17
ENDBRANCH  14  15
ENDBRANCH  10  14
ENDBRANCH   6   7
ENDBRANCH   5   6
ENDBRANCH   4   5
ENDBRANCH   3   4
ENDBRANCH   2   3
TORSDOF 8
ENDMDL
MODEL       95
REMARK 921   NORMALIZED FREE ENERGY PREDICTED BY IDOCK:   -4.89 KCAL/MOL
REMARK 922        TOTAL FREE ENERGY PREDICTED BY IDOCK:   -8.05 KCAL/MOL
REMARK 923 INTER-LIGAND FREE ENERGY PREDICTED BY IDOCK:   -7.31 KCAL/MOL
REMARK 924 INTRA-LIGAND FREE ENERGY PREDICTED BY IDOCK:   -0.74 KCAL/MOL
REMARK 927      BINDING AFFINITY PREDICTED BY RF-SCORE:    0.00 PKD
ROOT
HETATM    1  C   UNL     1      -9.193   2.614  64.254  1.00  0.00    -0.125 C  
HETATM    2  O   UNL     1     -10.303   3.487  64.423  1.00  0.00    -0.192 OA 
ENDROOT
BRANCH   2   3
HETATM    3  C   UNL     1     -10.061   4.476  65.421  1.00  0.00    -0.192 C  
BRANCH   3   4
HETATM    4  C   UNL     1      -9.680   3.790  66.727  1.00  0.00    -0.149 C  
BRANCH   4   5
HETATM    5  C   UNL     1      -9.590   4.782  67.886  1.00  0.00    -0.154 C  
BRANCH   5   6
HETATM    6  O   UNL     1     -10.652   5.741  67.761  1.00  0.00    -0.231 OA 
BRANCH   6   7
HETATM    7  C   UNL     1     -10.829   6.561  68.851  1.00  0.00    -0.301 A  
HETATM    8  C   UNL     1     -10.317   7.871  68.771  1.00  0.00    -0.220 A  
HETATM    9  C   UNL     1      -9.514   8.297  67.574  1.00  0.00    -0.182 C  
HETATM   10  C   UNL     1     -10.623   8.757  69.819  1.00  0.00    -0.224 A  
HETATM   11  C   UNL     1     -11.476   6.140  70.010  1.00  0.00    -0.369 A  
HETATM   12  N   UNL     1     -11.305   8.352  70.928  1.00  0.00    -0.266 NA 
HETATM   13  C   UNL     1     -11.677   7.059  71.015  1.00  0.00    -0.333 A  
BRANCH  10  14
HETATM   14  C   UNL     1     -10.334  10.245  69.764  1.00  0.00    -0.246 C  
BRANCH  14  15
HETATM   15  S   UNL     1     -11.857  11.221  69.743  1.00  0.00    -0.392 S  
HETATM   16  O   UNL     1     -11.822  12.386  70.689  1.00  0.00    -0.219 OA 
BRANCH  15  17
HETATM   17  C   UNL     1     -11.779  11.898  68.146  1.00  0.00    -0.320 A  
HETATM   18  N   UNL     1     -11.604  11.227  67.028  1.00  0.00    -0.480 NA 
HETATM   19  C   UNL     1     -11.723  12.162  66.024  1.00  0.00    -0.321 A  
HETATM   20  H   UNL     1     -11.420  10.229  66.927  1.00  0.00     0.000 HD 
HETATM   21  C   UNL     1     -11.630  12.001  64.633  1.00  0.00    -0.364 A  
HETATM   22  C   UNL     1     -11.857  13.112  63.809  1.00  0.00    -0.546 A  
HETATM   23  C   UNL     1     -12.170  14.359  64.357  1.00  0.00    -0.481 A  
HETATM   24  C   UNL     1     -12.240  14.545  65.743  1.00  0.00    -0.270 A  
HETATM   25  C   UNL     1     -11.998  13.424  66.543  1.00  0.00    -0.400 A  
HETATM   26  N   UNL     1     -11.968  13.236  67.901  1.00  0.00    -0.338 NA 
ENDBRANCH  15  17
ENDBRANCH  14  15
ENDBRANCH  10  14
ENDBRANCH   6   7
ENDBRANCH   5   6
ENDBRANCH   4   5
ENDBRANCH   3   4
ENDBRANCH   2   3
TORSDOF 8
ENDMDL
MODEL       96
REMARK 921   NORMALIZED FREE ENERGY PREDICTED BY IDOCK:   -4.89 KCAL/MOL
REMARK 922        TOTAL FREE ENERGY PREDICTED BY IDOCK:   -8.04 KCAL/MOL
REMARK 923 INTER-LIGAND FREE ENERGY PREDICTED BY IDOCK:   -7.43 KCAL/MOL
REMARK 924 INTRA-LIGAND FREE ENERGY PREDICTED BY IDOCK:   -0.61 KCAL/MOL
REMARK 927      BINDING AFFINITY PREDICTED BY RF-SCORE:    0.00 PKD
ROOT
HETATM    1  C   UNL     1     -12.752  15.951  73.865  1.00  0.00    -0.600 C  
HETATM    2  O   UNL     1     -13.438  14.814  73.357  1.00  0.00    -0.513 OA 
ENDROOT
BRANCH   2   3
HETATM    3  C   UNL     1     -14.186  15.119  72.182  1.00  0.00    -0.559 C  
BRANCH   3   4
HETATM    4  C   UNL     1     -13.226  15.488  71.056  1.00  0.00    -0.539 C  
BRANCH   4   5
HETATM    5  C   UNL     1     -12.121  14.445  70.887  1.00  0.00    -0.344 C  
BRANCH   5   6
HETATM    6  O   UNL     1     -12.516  13.511  69.870  1.00  0.00    -0.252 OA 
BRANCH   6   7
HETATM    7  C   UNL     1     -12.149  12.206  70.104  1.00  0.00    -0.290 A  
HETATM    8  C   UNL     1     -11.318  11.581  69.154  1.00  0.00    -0.351 A  
HETATM    9  C   UNL     1     -10.951  12.297  67.884  1.00  0.00    -0.265 C  
HETATM   10  C   UNL     1     -10.820  10.302  69.460  1.00  0.00    -0.256 A  
HETATM   11  C   UNL     1     -12.574  11.496  71.225  1.00  0.00    -0.452 A  
HETATM   12  N   UNL     1     -11.199   9.635  70.588  1.00  0.00    -0.294 NA 
HETATM   13  C   UNL     1     -12.086  10.223  71.414  1.00  0.00    -0.362 A  
BRANCH  10  14
HETATM   14  C   UNL     1      -9.746   9.607  68.645  1.00  0.00    -0.155 C  
BRANCH  14  15
HETATM   15  S   UNL     1     -10.451   8.699  67.248  1.00  0.00    -0.250 S  
HETATM   16  O   UNL     1      -9.752   8.984  65.950  1.00  0.00    -0.271 OA 
BRANCH  15  17
HETATM   17  C   UNL     1     -10.020   7.073  67.676  1.00  0.00    -0.154 A  
HETATM   18  N   UNL     1      -9.956   6.584  68.896  1.00  0.00    -0.147 NA 
HETATM   19  C   UNL     1      -9.689   5.243  68.734  1.00  0.00    -0.146 A  
HETATM   20  H   UNL     1     -10.078   7.090  69.773  1.00  0.00     0.000 HD 
HETATM   21  C   UNL     1      -9.520   4.239  69.700  1.00  0.00    -0.258 A  
HETATM   22  C   UNL     1      -9.319   2.919  69.272  1.00  0.00    -0.207 A  
HETATM   23  C   UNL     1      -9.283   2.605  67.911  1.00  0.00    -0.252 A  
HETATM   24  C   UNL     1      -9.422   3.597  66.933  1.00  0.00    -0.213 A  
HETATM   25  C   UNL     1      -9.611   4.906  67.386  1.00  0.00    -0.152 A  
HETATM   26  N   UNL     1      -9.766   6.105  66.736  1.00  0.00    -0.153 NA 
ENDBRANCH  15  17
ENDBRANCH  14  15
ENDBRANCH  10  14
ENDBRANCH   6   7
ENDBRANCH   5   6
ENDBRANCH   4   5
ENDBRANCH   3   4
ENDBRANCH   2   3
TORSDOF 8
ENDMDL
MODEL       97
REMARK 921   NORMALIZED FREE ENERGY PREDICTED BY IDOCK:   -4.88 KCAL/MOL
REMARK 922        TOTAL FREE ENERGY PREDICTED BY IDOCK:   -8.04 KCAL/MOL
REMARK 923 INTER-LIGAND FREE ENERGY PREDICTED BY IDOCK:   -7.13 KCAL/MOL
REMARK 924 INTRA-LIGAND FREE ENERGY PREDICTED BY IDOCK:   -0.91 KCAL/MOL
REMARK 927      BINDING AFFINITY PREDICTED BY RF-SCORE:    0.00 PKD
ROOT
HETATM    1  C   UNL     1      -7.056  17.152  66.472  1.00  0.00    -0.268 C  
HETATM    2  O   UNL     1      -7.282  17.936  67.637  1.00  0.00    -0.195 OA 
ENDROOT
BRANCH   2   3
HETATM    3  C   UNL     1      -7.275  19.334  67.353  1.00  0.00    -0.212 C  
BRANCH   3   4
HETATM    4  C   UNL     1      -8.679  19.893  67.547  1.00  0.00    -0.401 C  
BRANCH   4   5
HETATM    5  C   UNL     1      -9.436  19.159  68.654  1.00  0.00    -0.405 C  
BRANCH   5   6
HETATM    6  O   UNL     1     -10.497  18.394  68.062  1.00  0.00    -0.383 OA 
BRANCH   6   7
HETATM    7  C   UNL     1     -10.553  17.076  68.453  1.00  0.00    -0.375 A  
HETATM    8  C   UNL     1     -10.619  16.097  67.442  1.00  0.00    -0.311 A  
HETATM    9  C   UNL     1     -10.737  16.507  66.001  1.00  0.00    -0.180 C  
HETATM   10  C   UNL     1     -10.527  14.749  67.830  1.00  0.00    -0.254 A  
HETATM   11  C   UNL     1     -10.555  16.690  69.791  1.00  0.00    -0.227 A  
HETATM   12  N   UNL     1     -10.474  14.380  69.142  1.00  0.00    -0.223 NA 
HETATM   13  C   UNL     1     -10.529  15.345  70.082  1.00  0.00    -0.272 A  
BRANCH  10  14
HETATM   14  C   UNL     1     -10.359  13.607  66.846  1.00  0.00    -0.262 C  
BRANCH  14  15
HETATM   15  S   UNL     1     -11.798  12.511  66.842  1.00  0.00    -0.254 S  
HETATM   16  O   UNL     1     -12.560  12.546  65.549  1.00  0.00    -0.642 OA 
BRANCH  15  17
HETATM   17  C   UNL     1     -11.018  10.962  66.897  1.00  0.00    -0.223 A  
HETATM   18  N   UNL     1     -11.385   9.935  67.633  1.00  0.00    -0.494 NA 
HETATM   19  C   UNL     1     -10.548   8.907  67.263  1.00  0.00    -0.234 A  
HETATM   20  H   UNL     1     -12.129   9.907  68.331  1.00  0.00     0.000 HD 
HETATM   21  C   UNL     1     -10.494   7.583  67.724  1.00  0.00    -0.288 A  
HETATM   22  C   UNL     1      -9.581   6.699  67.132  1.00  0.00    -0.168 A  
HETATM   23  C   UNL     1      -8.737   7.123  66.103  1.00  0.00    -0.164 A  
HETATM   24  C   UNL     1      -8.757   8.448  65.648  1.00  0.00    -0.204 A  
HETATM   25  C   UNL     1      -9.669   9.311  66.262  1.00  0.00    -0.271 A  
HETATM   26  N   UNL     1      -9.951  10.643  66.092  1.00  0.00    -0.220 NA 
ENDBRANCH  15  17
ENDBRANCH  14  15
ENDBRANCH  10  14
ENDBRANCH   6   7
ENDBRANCH   5   6
ENDBRANCH   4   5
ENDBRANCH   3   4
ENDBRANCH   2   3
TORSDOF 8
ENDMDL
MODEL       98
REMARK 921   NORMALIZED FREE ENERGY PREDICTED BY IDOCK:   -4.88 KCAL/MOL
REMARK 922        TOTAL FREE ENERGY PREDICTED BY IDOCK:   -8.04 KCAL/MOL
REMARK 923 INTER-LIGAND FREE ENERGY PREDICTED BY IDOCK:   -7.10 KCAL/MOL
REMARK 924 INTRA-LIGAND FREE ENERGY PREDICTED BY IDOCK:   -0.94 KCAL/MOL
REMARK 927      BINDING AFFINITY PREDICTED BY RF-SCORE:    0.00 PKD
ROOT
HETATM    1  C   UNL     1     -12.747   7.873  71.826  1.00  0.00    -0.329 C  
HETATM    2  O   UNL     1     -11.819   8.947  71.919  1.00  0.00    -0.326 OA 
ENDROOT
BRANCH   2   3
HETATM    3  C   UNL     1     -12.430  10.208  71.652  1.00  0.00    -0.409 C  
BRANCH   3   4
HETATM    4  C   UNL     1     -12.623  10.365  70.148  1.00  0.00    -0.197 C  
BRANCH   4   5
HETATM    5  C   UNL     1     -11.916  11.610  69.611  1.00  0.00    -0.324 C  
BRANCH   5   6
HETATM    6  O   UNL     1     -11.413  11.326  68.296  1.00  0.00    -0.266 OA 
BRANCH   6   7
HETATM    7  C   UNL     1     -10.442  12.191  67.845  1.00  0.00    -0.208 A  
HETATM    8  C   UNL     1     -10.798  13.096  66.825  1.00  0.00    -0.289 A  
HETATM    9  C   UNL     1     -12.159  13.024  66.192  1.00  0.00    -0.473 C  
HETATM   10  C   UNL     1      -9.858  14.078  66.465  1.00  0.00    -0.290 A  
HETATM   11  C   UNL     1      -9.145  12.191  68.349  1.00  0.00    -0.151 A  
HETATM   12  N   UNL     1      -8.605  14.105  67.004  1.00  0.00    -0.209 NA 
HETATM   13  C   UNL     1      -8.268  13.150  67.893  1.00  0.00    -0.162 A  
BRANCH  10  14
HETATM   14  C   UNL     1     -10.179  15.246  65.553  1.00  0.00    -0.388 C  
BRANCH  14  15
HETATM   15  S   UNL     1     -10.697  16.703  66.490  1.00  0.00    -0.045 S  
HETATM   16  O   UNL     1     -11.004  16.399  67.928  1.00  0.00    -0.339 OA 
BRANCH  15  17
HETATM   17  C   UNL     1      -9.221  17.616  66.499  1.00  0.00    -0.269 A  
HETATM   18  N   UNL     1      -8.090  17.267  65.923  1.00  0.00    -0.536 NA 
HETATM   19  C   UNL     1      -7.248  18.342  66.099  1.00  0.00    -0.266 A  
HETATM   20  H   UNL     1      -7.883  16.389  65.448  1.00  0.00     0.000 HD 
HETATM   21  C   UNL     1      -5.919  18.518  65.685  1.00  0.00    -0.260 A  
HETATM   22  C   UNL     1      -5.292  19.746  65.933  1.00  0.00    -0.169 A  
HETATM   23  C   UNL     1      -5.972  20.780  66.582  1.00  0.00    -0.272 A  
HETATM   24  C   UNL     1      -7.289  20.614  67.028  1.00  0.00    -0.370 A  
HETATM   25  C   UNL     1      -7.888  19.375  66.777  1.00  0.00    -0.268 A  
HETATM   26  N   UNL     1      -9.125  18.861  67.073  1.00  0.00    -0.287 NA 
ENDBRANCH  15  17
ENDBRANCH  14  15
ENDBRANCH  10  14
ENDBRANCH   6   7
ENDBRANCH   5   6
ENDBRANCH   4   5
ENDBRANCH   3   4
ENDBRANCH   2   3
TORSDOF 8
ENDMDL
MODEL       99
REMARK 921   NORMALIZED FREE ENERGY PREDICTED BY IDOCK:   -4.88 KCAL/MOL
REMARK 922        TOTAL FREE ENERGY PREDICTED BY IDOCK:   -8.03 KCAL/MOL
REMARK 923 INTER-LIGAND FREE ENERGY PREDICTED BY IDOCK:   -7.26 KCAL/MOL
REMARK 924 INTRA-LIGAND FREE ENERGY PREDICTED BY IDOCK:   -0.77 KCAL/MOL
REMARK 927      BINDING AFFINITY PREDICTED BY RF-SCORE:    0.00 PKD
ROOT
HETATM    1  C   UNL     1      -7.172   7.230  69.239  1.00  0.00    -0.081 C  
HETATM    2  O   UNL     1      -8.369   6.594  68.811  1.00  0.00    -0.118 OA 
ENDROOT
BRANCH   2   3
HETATM    3  C   UNL     1      -8.477   6.555  67.389  1.00  0.00    -0.119 C  
BRANCH   3   4
HETATM    4  C   UNL     1      -9.950   6.552  66.996  1.00  0.00    -0.216 C  
BRANCH   4   5
HETATM    5  C   UNL     1     -10.532   7.965  66.961  1.00  0.00    -0.349 C  
BRANCH   5   6
HETATM    6  O   UNL     1      -9.715   8.783  66.109  1.00  0.00    -0.258 OA 
BRANCH   6   7
HETATM    7  C   UNL     1      -9.432  10.036  66.601  1.00  0.00    -0.171 A  
HETATM    8  C   UNL     1      -9.681  11.139  65.761  1.00  0.00    -0.266 A  
HETATM    9  C   UNL     1     -10.132  10.922  64.343  1.00  0.00    -0.402 C  
HETATM   10  C   UNL     1      -9.534  12.425  66.309  1.00  0.00    -0.220 A  
HETATM   11  C   UNL     1      -8.909  10.241  67.875  1.00  0.00    -0.122 A  
HETATM   12  N   UNL     1      -9.072  12.617  67.578  1.00  0.00    -0.183 NA 
HETATM   13  C   UNL     1      -8.737  11.536  68.309  1.00  0.00    -0.162 A  
BRANCH  10  14
HETATM   14  C   UNL     1      -9.978  13.690  65.600  1.00  0.00    -0.243 C  
BRANCH  14  15
HETATM   15  S   UNL     1     -11.736  14.023  65.867  1.00  0.00    -0.381 S  
HETATM   16  O   UNL     1     -12.597  12.805  65.698  1.00  0.00    -0.596 OA 
BRANCH  15  17
HETATM   17  C   UNL     1     -11.738  14.379  67.566  1.00  0.00    -0.387 A  
HETATM   18  N   UNL     1     -11.408  15.527  68.117  1.00  0.00    -0.342 NA 
HETATM   19  C   UNL     1     -11.669  15.371  69.460  1.00  0.00    -0.346 A  
HETATM   20  H   UNL     1     -11.036  16.354  67.650  1.00  0.00     0.000 HD 
HETATM   21  C   UNL     1     -11.506  16.279  70.518  1.00  0.00    -0.282 A  
HETATM   22  C   UNL     1     -11.913  15.897  71.803  1.00  0.00    -0.573 A  
HETATM   23  C   UNL     1     -12.470  14.636  72.034  1.00  0.00    -0.407 A  
HETATM   24  C   UNL     1     -12.616  13.707  70.997  1.00  0.00    -0.441 A  
HETATM   25  C   UNL     1     -12.192  14.109  69.726  1.00  0.00    -0.344 A  
HETATM   26  N   UNL     1     -12.168  13.477  68.509  1.00  0.00    -0.247 NA 
ENDBRANCH  15  17
ENDBRANCH  14  15
ENDBRANCH  10  14
ENDBRANCH   6   7
ENDBRANCH   5   6
ENDBRANCH   4   5
ENDBRANCH   3   4
ENDBRANCH   2   3
TORSDOF 8
ENDMDL
MODEL      100
REMARK 921   NORMALIZED FREE ENERGY PREDICTED BY IDOCK:   -4.87 KCAL/MOL
REMARK 922        TOTAL FREE ENERGY PREDICTED BY IDOCK:   -8.02 KCAL/MOL
REMARK 923 INTER-LIGAND FREE ENERGY PREDICTED BY IDOCK:   -7.26 KCAL/MOL
REMARK 924 INTRA-LIGAND FREE ENERGY PREDICTED BY IDOCK:   -0.76 KCAL/MOL
REMARK 927      BINDING AFFINITY PREDICTED BY RF-SCORE:    0.00 PKD
ROOT
HETATM    1  C   UNL     1     -10.848   6.159  73.051  1.00  0.00    -0.257 C  
HETATM    2  O   UNL     1     -10.880   7.031  71.928  1.00  0.00    -0.220 OA 
ENDROOT
BRANCH   2   3
HETATM    3  C   UNL     1     -11.324   8.340  72.277  1.00  0.00    -0.378 C  
BRANCH   3   4
HETATM    4  C   UNL     1     -12.838   8.416  72.122  1.00  0.00    -0.385 C  
BRANCH   4   5
HETATM    5  C   UNL     1     -13.295   9.801  71.666  1.00  0.00    -0.399 C  
BRANCH   5   6
HETATM    6  O   UNL     1     -12.429  10.252  70.613  1.00  0.00    -0.307 OA 
BRANCH   6   7
HETATM    7  C   UNL     1     -12.366  11.618  70.456  1.00  0.00    -0.321 A  
HETATM    8  C   UNL     1     -12.032  12.113  69.180  1.00  0.00    -0.311 A  
HETATM    9  C   UNL     1     -11.653  11.165  68.077  1.00  0.00    -0.337 C  
HETATM   10  C   UNL     1     -12.111  13.502  68.976  1.00  0.00    -0.291 A  
HETATM   11  C   UNL     1     -12.608  12.505  71.501  1.00  0.00    -0.253 A  
HETATM   12  N   UNL     1     -12.402  14.362  69.993  1.00  0.00    -0.339 NA 
HETATM   13  C   UNL     1     -12.603  13.854  71.226  1.00  0.00    -0.371 A  
BRANCH  10  14
HETATM   14  C   UNL     1     -12.000  14.152  67.611  1.00  0.00    -0.370 C  
BRANCH  14  15
HETATM   15  S   UNL     1     -10.295  14.622  67.230  1.00  0.00    -0.258 S  
HETATM   16  O   UNL     1      -9.373  14.488  68.407  1.00  0.00    -0.196 OA 
BRANCH  15  17
HETATM   17  C   UNL     1      -9.854  13.354  66.130  1.00  0.00    -0.281 A  
HETATM   18  N   UNL     1      -9.046  12.349  66.389  1.00  0.00    -0.358 NA 
HETATM   19  C   UNL     1      -9.089  11.552  65.268  1.00  0.00    -0.017 A  
HETATM   20  H   UNL     1      -8.504  12.194  67.240  1.00  0.00     0.000 HD 
HETATM   21  C   UNL     1      -8.424  10.346  64.997  1.00  0.00    -0.180 A  
HETATM   22  C   UNL     1      -8.690   9.685  63.791  1.00  0.00    -0.241 A  
HETATM   23  C   UNL     1      -9.598  10.212  62.869  1.00  0.00    -0.216 A  
HETATM   24  C   UNL     1     -10.251  11.427  63.109  1.00  0.00    -0.380 A  
HETATM   25  C   UNL     1      -9.960  12.072  64.315  1.00  0.00    -0.240 A  
HETATM   26  N   UNL     1     -10.387  13.253  64.867  1.00  0.00    -0.353 NA 
ENDBRANCH  15  17
ENDBRANCH  14  15
ENDBRANCH  10  14
ENDBRANCH   6   7
ENDBRANCH   5   6
ENDBRANCH   4   5
ENDBRANCH   3   4
ENDBRANCH   2   3
TORSDOF 8
ENDMDL
MODEL      101
REMARK 921   NORMALIZED FREE ENERGY PREDICTED BY IDOCK:   -4.83 KCAL/MOL
REMARK 922        TOTAL FREE ENERGY PREDICTED BY IDOCK:   -7.96 KCAL/MOL
REMARK 923 INTER-LIGAND FREE ENERGY PREDICTED BY IDOCK:   -6.93 KCAL/MOL
REMARK 924 INTRA-LIGAND FREE ENERGY PREDICTED BY IDOCK:   -1.03 KCAL/MOL
REMARK 927      BINDING AFFINITY PREDICTED BY RF-SCORE:    0.00 PKD
ROOT
HETATM    1  C   UNL     1     -10.928   6.123  69.353  1.00  0.00    -0.385 C  
HETATM    2  O   UNL     1     -11.152   6.142  67.949  1.00  0.00    -0.328 OA 
ENDROOT
BRANCH   2   3
HETATM    3  C   UNL     1     -10.373   5.161  67.267  1.00  0.00    -0.168 C  
BRANCH   3   4
HETATM    4  C   UNL     1      -9.602   5.828  66.135  1.00  0.00    -0.126 C  
BRANCH   4   5
HETATM    5  C   UNL     1      -8.324   6.501  66.635  1.00  0.00    -0.113 C  
BRANCH   5   6
HETATM    6  O   UNL     1      -8.311   7.865  66.186  1.00  0.00    -0.113 OA 
BRANCH   6   7
HETATM    7  C   UNL     1      -8.434   8.807  67.182  1.00  0.00    -0.110 A  
HETATM    8  C   UNL     1      -8.705  10.133  66.794  1.00  0.00    -0.133 A  
HETATM    9  C   UNL     1      -8.741  10.503  65.338  1.00  0.00    -0.195 C  
HETATM   10  C   UNL     1      -8.978  11.068  67.809  1.00  0.00    -0.140 A  
HETATM   11  C   UNL     1      -8.293   8.494  68.531  1.00  0.00    -0.123 A  
HETATM   12  N   UNL     1      -8.891  10.741  69.130  1.00  0.00    -0.130 NA 
HETATM   13  C   UNL     1      -8.517   9.488  69.457  1.00  0.00    -0.155 A  
BRANCH  10  14
HETATM   14  C   UNL     1      -9.501  12.466  67.536  1.00  0.00    -0.187 C  
BRANCH  14  15
HETATM   15  S   UNL     1     -11.308  12.500  67.457  1.00  0.00    -0.333 S  
HETATM   16  O   UNL     1     -11.924  11.132  67.505  1.00  0.00    -0.580 OA 
BRANCH  15  17
HETATM   17  C   UNL     1     -11.679  13.245  68.980  1.00  0.00    -0.322 A  
HETATM   18  N   UNL     1     -11.557  14.523  69.267  1.00  0.00    -0.284 NA 
HETATM   19  C   UNL     1     -12.071  14.658  70.538  1.00  0.00    -0.321 A  
HETATM   20  H   UNL     1     -11.165  15.256  68.676  1.00  0.00     0.000 HD 
HETATM   21  C   UNL     1     -12.195  15.804  71.338  1.00  0.00    -0.500 A  
HETATM   22  C   UNL     1     -12.821  15.690  72.587  1.00  0.00    -0.541 A  
HETATM   23  C   UNL     1     -13.313  14.461  73.032  1.00  0.00    -0.484 A  
HETATM   24  C   UNL     1     -13.174  13.301  72.260  1.00  0.00    -0.567 A  
HETATM   25  C   UNL     1     -12.536  13.440  71.023  1.00  0.00    -0.353 A  
HETATM   26  N   UNL     1     -12.217  12.546  70.033  1.00  0.00    -0.240 NA 
ENDBRANCH  15  17
ENDBRANCH  14  15
ENDBRANCH  10  14
ENDBRANCH   6   7
ENDBRANCH   5   6
ENDBRANCH   4   5
ENDBRANCH   3   4
ENDBRANCH   2   3
TORSDOF 8
ENDMDL
MODEL      102
REMARK 921   NORMALIZED FREE ENERGY PREDICTED BY IDOCK:   -4.82 KCAL/MOL
REMARK 922        TOTAL FREE ENERGY PREDICTED BY IDOCK:   -7.95 KCAL/MOL
REMARK 923 INTER-LIGAND FREE ENERGY PREDICTED BY IDOCK:   -6.96 KCAL/MOL
REMARK 924 INTRA-LIGAND FREE ENERGY PREDICTED BY IDOCK:   -1.00 KCAL/MOL
REMARK 927      BINDING AFFINITY PREDICTED BY RF-SCORE:    0.00 PKD
ROOT
HETATM    1  C   UNL     1     -11.977  15.720  72.711  1.00  0.00    -0.492 C  
HETATM    2  O   UNL     1     -11.920  14.898  71.552  1.00  0.00    -0.317 OA 
ENDROOT
BRANCH   2   3
HETATM    3  C   UNL     1     -12.352  15.589  70.381  1.00  0.00    -0.413 C  
BRANCH   3   4
HETATM    4  C   UNL     1     -11.134  16.113  69.629  1.00  0.00    -0.344 C  
BRANCH   4   5
HETATM    5  C   UNL     1     -10.061  15.037  69.463  1.00  0.00    -0.166 C  
BRANCH   5   6
HETATM    6  O   UNL     1     -10.099  14.549  68.113  1.00  0.00    -0.218 OA 
BRANCH   6   7
HETATM    7  C   UNL     1     -10.394  13.211  67.986  1.00  0.00    -0.238 A  
HETATM    8  C   UNL     1      -9.318  12.320  67.805  1.00  0.00    -0.194 A  
HETATM    9  C   UNL     1      -7.919  12.846  67.647  1.00  0.00    -0.167 C  
HETATM   10  C   UNL     1      -9.600  10.942  67.823  1.00  0.00    -0.164 A  
HETATM   11  C   UNL     1     -11.698  12.724  68.020  1.00  0.00    -0.405 A  
HETATM   12  N   UNL     1     -10.877  10.471  67.912  1.00  0.00    -0.260 NA 
HETATM   13  C   UNL     1     -11.887  11.361  67.968  1.00  0.00    -0.202 A  
BRANCH  10  14
HETATM   14  C   UNL     1      -8.527   9.872  67.865  1.00  0.00    -0.121 C  
BRANCH  14  15
HETATM   15  S   UNL     1      -7.990   9.529  69.558  1.00  0.00    -0.125 S  
HETATM   16  O   UNL     1      -7.471  10.746  70.267  1.00  0.00    -0.038 OA 
BRANCH  15  17
HETATM   17  C   UNL     1      -9.512   9.154  70.304  1.00  0.00    -0.219 A  
HETATM   18  N   UNL     1     -10.293  10.001  70.939  1.00  0.00    -0.310 NA 
HETATM   19  C   UNL     1     -11.425   9.282  71.254  1.00  0.00    -0.347 A  
HETATM   20  H   UNL     1     -10.102  10.980  71.152  1.00  0.00     0.000 HD 
HETATM   21  C   UNL     1     -12.586   9.687  71.929  1.00  0.00    -0.481 A  
HETATM   22  C   UNL     1     -13.639   8.773  72.069  1.00  0.00    -0.469 A  
HETATM   23  C   UNL     1     -13.538   7.480  71.548  1.00  0.00    -0.439 A  
HETATM   24  C   UNL     1     -12.377   7.048  70.896  1.00  0.00    -0.361 A  
HETATM   25  C   UNL     1     -11.338   7.977  70.780  1.00  0.00    -0.272 A  
HETATM   26  N   UNL     1     -10.082   7.906  70.232  1.00  0.00    -0.194 NA 
ENDBRANCH  15  17
ENDBRANCH  14  15
ENDBRANCH  10  14
ENDBRANCH   6   7
ENDBRANCH   5   6
ENDBRANCH   4   5
ENDBRANCH   3   4
ENDBRANCH   2   3
TORSDOF 8
ENDMDL
MODEL      103
REMARK 921   NORMALIZED FREE ENERGY PREDICTED BY IDOCK:   -4.82 KCAL/MOL
REMARK 922        TOTAL FREE ENERGY PREDICTED BY IDOCK:   -7.95 KCAL/MOL
REMARK 923 INTER-LIGAND FREE ENERGY PREDICTED BY IDOCK:   -7.16 KCAL/MOL
REMARK 924 INTRA-LIGAND FREE ENERGY PREDICTED BY IDOCK:   -0.79 KCAL/MOL
REMARK 927      BINDING AFFINITY PREDICTED BY RF-SCORE:    0.00 PKD
ROOT
HETATM    1  C   UNL     1     -14.202  14.456  72.152  1.00  0.00    -0.538 C  
HETATM    2  O   UNL     1     -13.931  13.101  72.486  1.00  0.00    -0.676 OA 
ENDROOT
BRANCH   2   3
HETATM    3  C   UNL     1     -12.945  12.524  71.632  1.00  0.00    -0.302 C  
BRANCH   3   4
HETATM    4  C   UNL     1     -13.085  11.007  71.654  1.00  0.00    -0.543 C  
BRANCH   4   5
HETATM    5  C   UNL     1     -11.799  10.310  71.210  1.00  0.00    -0.335 C  
BRANCH   5   6
HETATM    6  O   UNL     1     -11.726  10.339  69.776  1.00  0.00    -0.240 OA 
BRANCH   6   7
HETATM    7  C   UNL     1     -10.542  10.815  69.262  1.00  0.00    -0.229 A  
HETATM    8  C   UNL     1     -10.603  11.948  68.428  1.00  0.00    -0.239 A  
HETATM    9  C   UNL     1     -11.933  12.529  68.038  1.00  0.00    -0.281 C  
HETATM   10  C   UNL     1      -9.387  12.526  68.021  1.00  0.00    -0.205 A  
HETATM   11  C   UNL     1      -9.314  10.217  69.529  1.00  0.00    -0.230 A  
HETATM   12  N   UNL     1      -8.184  11.965  68.333  1.00  0.00    -0.162 NA 
HETATM   13  C   UNL     1      -8.176  10.816  69.037  1.00  0.00    -0.138 A  
BRANCH  10  14
HETATM   14  C   UNL     1      -9.295  13.866  67.315  1.00  0.00    -0.231 C  
BRANCH  14  15
HETATM   15  S   UNL     1      -9.448  15.245  68.475  1.00  0.00    -0.208 S  
HETATM   16  O   UNL     1      -8.533  15.121  69.659  1.00  0.00    -0.204 OA 
BRANCH  15  17
HETATM   17  C   UNL     1      -8.811  16.542  67.513  1.00  0.00    -0.191 A  
HETATM   18  N   UNL     1      -9.332  17.744  67.391  1.00  0.00    -0.250 NA 
HETATM   19  C   UNL     1      -8.431  18.452  66.628  1.00  0.00    -0.269 A  
HETATM   20  H   UNL     1     -10.214  18.079  67.779  1.00  0.00     0.000 HD 
HETATM   21  C   UNL     1      -8.476  19.786  66.192  1.00  0.00    -0.367 A  
HETATM   22  C   UNL     1      -7.388  20.297  65.472  1.00  0.00    -0.193 A  
HETATM   23  C   UNL     1      -6.277  19.499  65.189  1.00  0.00    -0.300 A  
HETATM   24  C   UNL     1      -6.225  18.159  65.591  1.00  0.00    -0.279 A  
HETATM   25  C   UNL     1      -7.328  17.670  66.299  1.00  0.00    -0.310 A  
HETATM   26  N   UNL     1      -7.627  16.439  66.825  1.00  0.00    -0.235 NA 
ENDBRANCH  15  17
ENDBRANCH  14  15
ENDBRANCH  10  14
ENDBRANCH   6   7
ENDBRANCH   5   6
ENDBRANCH   4   5
ENDBRANCH   3   4
ENDBRANCH   2   3
TORSDOF 8
ENDMDL
MODEL      104
REMARK 921   NORMALIZED FREE ENERGY PREDICTED BY IDOCK:   -4.82 KCAL/MOL
REMARK 922        TOTAL FREE ENERGY PREDICTED BY IDOCK:   -7.94 KCAL/MOL
REMARK 923 INTER-LIGAND FREE ENERGY PREDICTED BY IDOCK:   -7.07 KCAL/MOL
REMARK 924 INTRA-LIGAND FREE ENERGY PREDICTED BY IDOCK:   -0.87 KCAL/MOL
REMARK 927      BINDING AFFINITY PREDICTED BY RF-SCORE:    0.00 PKD
ROOT
HETATM    1  C   UNL     1      -8.586   9.089  62.332  1.00  0.00    -0.218 C  
HETATM    2  O   UNL     1      -7.590   9.866  62.985  1.00  0.00    -0.123 OA 
ENDROOT
BRANCH   2   3
HETATM    3  C   UNL     1      -6.537   9.058  63.508  1.00  0.00    -0.089 C  
BRANCH   3   4
HETATM    4  C   UNL     1      -7.135   7.922  64.328  1.00  0.00    -0.074 C  
BRANCH   4   5
HETATM    5  C   UNL     1      -7.457   8.359  65.757  1.00  0.00    -0.077 C  
BRANCH   5   6
HETATM    6  O   UNL     1      -8.872   8.579  65.867  1.00  0.00    -0.162 OA 
BRANCH   6   7
HETATM    7  C   UNL     1      -9.256   9.386  66.914  1.00  0.00    -0.140 A  
HETATM    8  C   UNL     1      -9.897  10.600  66.600  1.00  0.00    -0.245 A  
HETATM    9  C   UNL     1     -10.044  11.029  65.167  1.00  0.00    -0.346 C  
HETATM   10  C   UNL     1     -10.423  11.356  67.663  1.00  0.00    -0.194 A  
HETATM   11  C   UNL     1      -9.026   9.048  68.245  1.00  0.00    -0.133 A  
HETATM   12  N   UNL     1     -10.241  10.990  68.964  1.00  0.00    -0.213 NA 
HETATM   13  C   UNL     1      -9.522   9.880  69.224  1.00  0.00    -0.209 A  
BRANCH  10  14
HETATM   14  C   UNL     1     -11.326  12.558  67.466  1.00  0.00    -0.312 C  
BRANCH  14  15
HETATM   15  S   UNL     1     -10.494  14.100  67.919  1.00  0.00    -0.240 S  
HETATM   16  O   UNL     1     -10.838  15.243  67.009  1.00  0.00    -0.312 OA 
BRANCH  15  17
HETATM   17  C   UNL     1     -11.268  14.445  69.434  1.00  0.00    -0.281 A  
HETATM   18  N   UNL     1     -10.664  14.764  70.558  1.00  0.00    -0.495 NA 
HETATM   19  C   UNL     1     -11.677  15.054  71.444  1.00  0.00    -0.357 A  
HETATM   20  H   UNL     1      -9.659  14.790  70.735  1.00  0.00     0.000 HD 
HETATM   21  C   UNL     1     -11.608  15.455  72.787  1.00  0.00    -0.464 A  
HETATM   22  C   UNL     1     -12.798  15.758  73.463  1.00  0.00    -0.702 A  
HETATM   23  C   UNL     1     -14.033  15.662  72.817  1.00  0.00    -0.563 A  
HETATM   24  C   UNL     1     -14.125  15.237  71.485  1.00  0.00    -0.625 A  
HETATM   25  C   UNL     1     -12.924  14.931  70.838  1.00  0.00    -0.380 A  
HETATM   26  N   UNL     1     -12.634  14.483  69.574  1.00  0.00    -0.118 NA 
ENDBRANCH  15  17
ENDBRANCH  14  15
ENDBRANCH  10  14
ENDBRANCH   6   7
ENDBRANCH   5   6
ENDBRANCH   4   5
ENDBRANCH   3   4
ENDBRANCH   2   3
TORSDOF 8
ENDMDL
MODEL      105
REMARK 921   NORMALIZED FREE ENERGY PREDICTED BY IDOCK:   -4.79 KCAL/MOL
REMARK 922        TOTAL FREE ENERGY PREDICTED BY IDOCK:   -7.91 KCAL/MOL
REMARK 923 INTER-LIGAND FREE ENERGY PREDICTED BY IDOCK:   -7.24 KCAL/MOL
REMARK 924 INTRA-LIGAND FREE ENERGY PREDICTED BY IDOCK:   -0.66 KCAL/MOL
REMARK 927      BINDING AFFINITY PREDICTED BY RF-SCORE:    0.00 PKD
ROOT
HETATM    1  C   UNL     1      -8.127   8.470  66.562  1.00  0.00    -0.103 C  
HETATM    2  O   UNL     1      -9.400   8.852  66.055  1.00  0.00    -0.209 OA 
ENDROOT
BRANCH   2   3
HETATM    3  C   UNL     1     -10.456   8.527  66.956  1.00  0.00    -0.292 C  
BRANCH   3   4
HETATM    4  C   UNL     1     -10.603   9.643  67.984  1.00  0.00    -0.292 C  
BRANCH   4   5
HETATM    5  C   UNL     1     -11.111  10.937  67.350  1.00  0.00    -0.307 C  
BRANCH   5   6
HETATM    6  O   UNL     1     -10.866  12.025  68.255  1.00  0.00    -0.208 OA 
BRANCH   6   7
HETATM    7  C   UNL     1     -10.032  13.008  67.773  1.00  0.00    -0.227 A  
HETATM    8  C   UNL     1     -10.627  14.106  67.121  1.00  0.00    -0.278 A  
HETATM    9  C   UNL     1     -12.109  14.126  66.874  1.00  0.00    -0.466 C  
HETATM   10  C   UNL     1      -9.795  15.180  66.759  1.00  0.00    -0.241 A  
HETATM   11  C   UNL     1      -8.647  12.945  67.899  1.00  0.00    -0.185 A  
HETATM   12  N   UNL     1      -8.444  15.135  66.935  1.00  0.00    -0.234 NA 
HETATM   13  C   UNL     1      -7.903  14.016  67.459  1.00  0.00    -0.184 A  
BRANCH  10  14
HETATM   14  C   UNL     1     -10.322  16.511  66.258  1.00  0.00    -0.320 C  
BRANCH  14  15
HETATM   15  S   UNL     1     -10.528  17.699  67.607  1.00  0.00    -0.361 S  
HETATM   16  O   UNL     1     -10.267  17.102  68.960  1.00  0.00    -0.302 OA 
BRANCH  15  17
HETATM   17  C   UNL     1      -9.199  18.770  67.293  1.00  0.00    -0.287 A  
HETATM   18  N   UNL     1      -8.512  19.438  68.196  1.00  0.00    -0.322 NA 
HETATM   19  C   UNL     1      -7.501  20.056  67.495  1.00  0.00    -0.287 A  
HETATM   20  H   UNL     1      -8.692  19.488  69.199  1.00  0.00     0.000 HD 
HETATM   21  C   UNL     1      -6.472  20.892  67.955  1.00  0.00    -0.382 A  
HETATM   22  C   UNL     1      -5.513  21.347  67.039  1.00  0.00    -0.370 A  
HETATM   23  C   UNL     1      -5.577  20.980  65.693  1.00  0.00    -0.271 A  
HETATM   24  C   UNL     1      -6.611  20.169  65.210  1.00  0.00    -0.330 A  
HETATM   25  C   UNL     1      -7.561  19.738  66.142  1.00  0.00    -0.320 A  
HETATM   26  N   UNL     1      -8.690  18.966  66.033  1.00  0.00    -0.465 NA 
ENDBRANCH  15  17
ENDBRANCH  14  15
ENDBRANCH  10  14
ENDBRANCH   6   7
ENDBRANCH   5   6
ENDBRANCH   4   5
ENDBRANCH   3   4
ENDBRANCH   2   3
TORSDOF 8
ENDMDL
MODEL      106
REMARK 921   NORMALIZED FREE ENERGY PREDICTED BY IDOCK:   -4.79 KCAL/MOL
REMARK 922        TOTAL FREE ENERGY PREDICTED BY IDOCK:   -7.90 KCAL/MOL
REMARK 923 INTER-LIGAND FREE ENERGY PREDICTED BY IDOCK:   -6.91 KCAL/MOL
REMARK 924 INTRA-LIGAND FREE ENERGY PREDICTED BY IDOCK:   -0.99 KCAL/MOL
REMARK 927      BINDING AFFINITY PREDICTED BY RF-SCORE:    0.00 PKD
ROOT
HETATM    1  C   UNL     1     -10.850  11.764  63.934  1.00  0.00    -0.404 C  
HETATM    2  O   UNL     1     -10.202  12.969  64.322  1.00  0.00    -0.389 OA 
ENDROOT
BRANCH   2   3
HETATM    3  C   UNL     1     -11.056  13.814  65.091  1.00  0.00    -0.328 C  
BRANCH   3   4
HETATM    4  C   UNL     1     -11.980  12.953  65.944  1.00  0.00    -0.504 C  
BRANCH   4   5
HETATM    5  C   UNL     1     -11.427  12.748  67.354  1.00  0.00    -0.340 C  
BRANCH   5   6
HETATM    6  O   UNL     1     -12.189  11.721  68.007  1.00  0.00    -0.518 OA 
BRANCH   6   7
HETATM    7  C   UNL     1     -11.449  10.668  68.495  1.00  0.00    -0.265 A  
HETATM    8  C   UNL     1     -11.492  10.429  69.883  1.00  0.00    -0.368 A  
HETATM    9  C   UNL     1     -12.234  11.371  70.789  1.00  0.00    -0.475 C  
HETATM   10  C   UNL     1     -10.860   9.270  70.366  1.00  0.00    -0.254 A  
HETATM   11  C   UNL     1     -10.669   9.856  67.676  1.00  0.00    -0.339 A  
HETATM   12  N   UNL     1     -10.142   8.448  69.549  1.00  0.00    -0.195 NA 
HETATM   13  C   UNL     1     -10.032   8.777  68.246  1.00  0.00    -0.176 A  
BRANCH  10  14
HETATM   14  C   UNL     1     -11.012   8.769  71.790  1.00  0.00    -0.345 C  
BRANCH  14  15
HETATM   15  S   UNL     1     -12.272   7.478  71.913  1.00  0.00    -0.301 S  
HETATM   16  O   UNL     1     -13.196   7.444  70.730  1.00  0.00    -0.074 OA 
BRANCH  15  17
HETATM   17  C   UNL     1     -11.284   6.056  71.789  1.00  0.00    -0.275 A  
HETATM   18  N   UNL     1     -10.777   5.559  70.682  1.00  0.00    -0.260 NA 
HETATM   19  C   UNL     1      -9.983   4.509  71.087  1.00  0.00    -0.187 A  
HETATM   20  H   UNL     1     -10.937   5.883  69.727  1.00  0.00     0.000 HD 
HETATM   21  C   UNL     1      -9.202   3.629  70.324  1.00  0.00    -0.222 A  
HETATM   22  C   UNL     1      -8.422   2.671  70.987  1.00  0.00    -0.092 A  
HETATM   23  C   UNL     1      -8.421   2.589  72.382  1.00  0.00    -0.065 A  
HETATM   24  C   UNL     1      -9.216   3.441  73.159  1.00  0.00    -0.114 A  
HETATM   25  C   UNL     1      -9.992   4.380  72.472  1.00  0.00    -0.169 A  
HETATM   26  N   UNL     1     -10.878   5.341  72.889  1.00  0.00    -0.249 NA 
ENDBRANCH  15  17
ENDBRANCH  14  15
ENDBRANCH  10  14
ENDBRANCH   6   7
ENDBRANCH   5   6
ENDBRANCH   4   5
ENDBRANCH   3   4
ENDBRANCH   2   3
TORSDOF 8
ENDMDL
MODEL      107
REMARK 921   NORMALIZED FREE ENERGY PREDICTED BY IDOCK:   -4.78 KCAL/MOL
REMARK 922        TOTAL FREE ENERGY PREDICTED BY IDOCK:   -7.89 KCAL/MOL
REMARK 923 INTER-LIGAND FREE ENERGY PREDICTED BY IDOCK:   -7.08 KCAL/MOL
REMARK 924 INTRA-LIGAND FREE ENERGY PREDICTED BY IDOCK:   -0.81 KCAL/MOL
REMARK 927      BINDING AFFINITY PREDICTED BY RF-SCORE:    0.00 PKD
ROOT
HETATM    1  C   UNL     1     -10.567  11.337  64.081  1.00  0.00    -0.373 C  
HETATM    2  O   UNL     1     -10.496  12.758  64.090  1.00  0.00    -0.385 OA 
ENDROOT
BRANCH   2   3
HETATM    3  C   UNL     1     -10.935  13.309  65.331  1.00  0.00    -0.284 C  
BRANCH   3   4
HETATM    4  C   UNL     1     -11.438  12.187  66.230  1.00  0.00    -0.433 C  
BRANCH   4   5
HETATM    5  C   UNL     1     -11.604  12.648  67.678  1.00  0.00    -0.357 C  
BRANCH   5   6
HETATM    6  O   UNL     1     -10.732  11.873  68.515  1.00  0.00    -0.208 OA 
BRANCH   6   7
HETATM    7  C   UNL     1     -11.331  11.312  69.619  1.00  0.00    -0.287 A  
HETATM    8  C   UNL     1     -10.852  10.062  70.057  1.00  0.00    -0.352 A  
HETATM    9  C   UNL     1      -9.801   9.336  69.265  1.00  0.00    -0.172 C  
HETATM   10  C   UNL     1     -11.358   9.555  71.267  1.00  0.00    -0.376 A  
HETATM   11  C   UNL     1     -12.382  11.926  70.296  1.00  0.00    -0.287 A  
HETATM   12  N   UNL     1     -12.350  10.190  71.954  1.00  0.00    -0.305 NA 
HETATM   13  C   UNL     1     -12.860  11.327  71.439  1.00  0.00    -0.410 A  
BRANCH  10  14
HETATM   14  C   UNL     1     -10.779   8.342  71.970  1.00  0.00    -0.317 C  
BRANCH  14  15
HETATM   15  S   UNL     1     -11.871   6.906  71.835  1.00  0.00    -0.326 S  
HETATM   16  O   UNL     1     -13.149   7.207  71.107  1.00  0.00    -0.361 OA 
BRANCH  15  17
HETATM   17  C   UNL     1     -10.940   5.898  70.772  1.00  0.00    -0.273 A  
HETATM   18  N   UNL     1     -10.187   4.881  71.131  1.00  0.00    -0.210 NA 
HETATM   19  C   UNL     1      -9.743   4.326  69.952  1.00  0.00    -0.221 A  
HETATM   20  H   UNL     1      -9.975   4.571  72.080  1.00  0.00     0.000 HD 
HETATM   21  C   UNL     1      -8.911   3.216  69.739  1.00  0.00    -0.149 A  
HETATM   22  C   UNL     1      -8.657   2.806  68.424  1.00  0.00    -0.110 A  
HETATM   23  C   UNL     1      -9.218   3.485  67.340  1.00  0.00    -0.226 A  
HETATM   24  C   UNL     1     -10.029   4.611  67.530  1.00  0.00    -0.174 A  
HETATM   25  C   UNL     1     -10.258   5.006  68.852  1.00  0.00    -0.114 A  
HETATM   26  N   UNL     1     -10.968   6.041  69.406  1.00  0.00    -0.367 NA 
ENDBRANCH  15  17
ENDBRANCH  14  15
ENDBRANCH  10  14
ENDBRANCH   6   7
ENDBRANCH   5   6
ENDBRANCH   4   5
ENDBRANCH   3   4
ENDBRANCH   2   3
TORSDOF 8
ENDMDL
MODEL      108
REMARK 921   NORMALIZED FREE ENERGY PREDICTED BY IDOCK:   -4.77 KCAL/MOL
REMARK 922        TOTAL FREE ENERGY PREDICTED BY IDOCK:   -7.87 KCAL/MOL
REMARK 923 INTER-LIGAND FREE ENERGY PREDICTED BY IDOCK:   -6.81 KCAL/MOL
REMARK 924 INTRA-LIGAND FREE ENERGY PREDICTED BY IDOCK:   -1.06 KCAL/MOL
REMARK 927      BINDING AFFINITY PREDICTED BY RF-SCORE:    0.00 PKD
ROOT
HETATM    1  C   UNL     1     -12.400  15.280  74.116  1.00  0.00    -0.625 C  
HETATM    2  O   UNL     1     -12.396  16.365  73.196  1.00  0.00    -0.482 OA 
ENDROOT
BRANCH   2   3
HETATM    3  C   UNL     1     -11.908  15.978  71.913  1.00  0.00    -0.534 C  
BRANCH   3   4
HETATM    4  C   UNL     1     -12.266  14.518  71.658  1.00  0.00    -0.403 C  
BRANCH   4   5
HETATM    5  C   UNL     1     -12.442  14.228  70.168  1.00  0.00    -0.335 C  
BRANCH   5   6
HETATM    6  O   UNL     1     -12.121  12.849  69.922  1.00  0.00    -0.309 OA 
BRANCH   6   7
HETATM    7  C   UNL     1     -11.773  12.555  68.624  1.00  0.00    -0.325 A  
HETATM    8  C   UNL     1     -11.087  11.347  68.391  1.00  0.00    -0.296 A  
HETATM    9  C   UNL     1     -10.664  10.483  69.546  1.00  0.00    -0.291 C  
HETATM   10  C   UNL     1     -10.861  10.970  67.055  1.00  0.00    -0.279 A  
HETATM   11  C   UNL     1     -12.064  13.402  67.558  1.00  0.00    -0.323 A  
HETATM   12  N   UNL     1     -11.199  11.782  66.013  1.00  0.00    -0.318 NA 
HETATM   13  C   UNL     1     -11.750  12.982  66.286  1.00  0.00    -0.387 A  
BRANCH  10  14
HETATM   14  C   UNL     1     -10.341   9.604  66.650  1.00  0.00    -0.208 C  
BRANCH  14  15
HETATM   15  S   UNL     1      -8.735   9.718  65.825  1.00  0.00    -0.149 S  
HETATM   16  O   UNL     1      -8.824  10.300  64.444  1.00  0.00    -0.180 OA 
BRANCH  15  17
HETATM   17  C   UNL     1      -7.960  10.924  66.804  1.00  0.00    -0.143 A  
HETATM   18  N   UNL     1      -7.948  12.219  66.572  1.00  0.00    -0.393 NA 
HETATM   19  C   UNL     1      -7.318  12.775  67.663  1.00  0.00    -0.144 A  
HETATM   20  H   UNL     1      -8.324  12.707  65.759  1.00  0.00     0.000 HD 
HETATM   21  C   UNL     1      -7.033  14.120  67.946  1.00  0.00    -0.173 A  
HETATM   22  C   UNL     1      -6.433  14.439  69.172  1.00  0.00    -0.107 A  
HETATM   23  C   UNL     1      -6.120  13.440  70.098  1.00  0.00    -0.112 A  
HETATM   24  C   UNL     1      -6.371  12.090  69.822  1.00  0.00    -0.110 A  
HETATM   25  C   UNL     1      -6.960  11.799  68.588  1.00  0.00    -0.093 A  
HETATM   26  N   UNL     1      -7.328  10.622  67.985  1.00  0.00    -0.087 NA 
ENDBRANCH  15  17
ENDBRANCH  14  15
ENDBRANCH  10  14
ENDBRANCH   6   7
ENDBRANCH   5   6
ENDBRANCH   4   5
ENDBRANCH   3   4
ENDBRANCH   2   3
TORSDOF 8
ENDMDL
MODEL      109
REMARK 921   NORMALIZED FREE ENERGY PREDICTED BY IDOCK:   -4.75 KCAL/MOL
REMARK 922        TOTAL FREE ENERGY PREDICTED BY IDOCK:   -7.84 KCAL/MOL
REMARK 923 INTER-LIGAND FREE ENERGY PREDICTED BY IDOCK:   -7.01 KCAL/MOL
REMARK 924 INTRA-LIGAND FREE ENERGY PREDICTED BY IDOCK:   -0.83 KCAL/MOL
REMARK 927      BINDING AFFINITY PREDICTED BY RF-SCORE:    0.00 PKD
ROOT
HETATM    1  C   UNL     1     -12.385  15.459  74.312  1.00  0.00    -0.664 C  
HETATM    2  O   UNL     1     -12.158  16.568  73.451  1.00  0.00    -0.498 OA 
ENDROOT
BRANCH   2   3
HETATM    3  C   UNL     1     -11.860  16.159  72.117  1.00  0.00    -0.536 C  
BRANCH   3   4
HETATM    4  C   UNL     1     -12.493  14.797  71.856  1.00  0.00    -0.410 C  
BRANCH   4   5
HETATM    5  C   UNL     1     -12.459  14.429  70.373  1.00  0.00    -0.357 C  
BRANCH   5   6
HETATM    6  O   UNL     1     -12.354  13.001  70.251  1.00  0.00    -0.310 OA 
BRANCH   6   7
HETATM    7  C   UNL     1     -11.860  12.554  69.047  1.00  0.00    -0.296 A  
HETATM    8  C   UNL     1     -11.393  11.227  68.986  1.00  0.00    -0.344 A  
HETATM    9  C   UNL     1     -11.341  10.386  70.231  1.00  0.00    -0.406 C  
HETATM   10  C   UNL     1     -11.027  10.719  67.727  1.00  0.00    -0.297 A  
HETATM   11  C   UNL     1     -11.802  13.361  67.914  1.00  0.00    -0.392 A  
HETATM   12  N   UNL     1     -11.024  11.502  66.610  1.00  0.00    -0.288 NA 
HETATM   13  C   UNL     1     -11.370  12.799  66.734  1.00  0.00    -0.313 A  
BRANCH  10  14
HETATM   14  C   UNL     1     -10.721   9.255  67.474  1.00  0.00    -0.203 C  
BRANCH  14  15
HETATM   15  S   UNL     1      -8.947   8.917  67.567  1.00  0.00    -0.133 S  
HETATM   16  O   UNL     1      -8.147  10.099  68.030  1.00  0.00    -0.110 OA 
BRANCH  15  17
HETATM   17  C   UNL     1      -8.909   7.773  68.872  1.00  0.00    -0.135 A  
HETATM   18  N   UNL     1      -8.481   8.006  70.094  1.00  0.00    -0.126 NA 
HETATM   19  C   UNL     1      -8.747   6.852  70.796  1.00  0.00    -0.145 A  
HETATM   20  H   UNL     1      -8.046   8.859  70.446  1.00  0.00     0.000 HD 
HETATM   21  C   UNL     1      -8.503   6.545  72.144  1.00  0.00    -0.113 A  
HETATM   22  C   UNL     1      -8.932   5.307  72.642  1.00  0.00    -0.135 A  
HETATM   23  C   UNL     1      -9.591   4.392  71.816  1.00  0.00    -0.221 A  
HETATM   24  C   UNL     1      -9.819   4.669  70.463  1.00  0.00    -0.301 A  
HETATM   25  C   UNL     1      -9.371   5.906  69.989  1.00  0.00    -0.148 A  
HETATM   26  N   UNL     1      -9.406   6.498  68.752  1.00  0.00    -0.130 NA 
ENDBRANCH  15  17
ENDBRANCH  14  15
ENDBRANCH  10  14
ENDBRANCH   6   7
ENDBRANCH   5   6
ENDBRANCH   4   5
ENDBRANCH   3   4
ENDBRANCH   2   3
TORSDOF 8
ENDMDL
MODEL      110
REMARK 921   NORMALIZED FREE ENERGY PREDICTED BY IDOCK:   -4.73 KCAL/MOL
REMARK 922        TOTAL FREE ENERGY PREDICTED BY IDOCK:   -7.81 KCAL/MOL
REMARK 923 INTER-LIGAND FREE ENERGY PREDICTED BY IDOCK:   -7.25 KCAL/MOL
REMARK 924 INTRA-LIGAND FREE ENERGY PREDICTED BY IDOCK:   -0.57 KCAL/MOL
REMARK 927      BINDING AFFINITY PREDICTED BY RF-SCORE:    0.00 PKD
ROOT
HETATM    1  C   UNL     1     -12.416  15.782  74.149  1.00  0.00    -0.655 C  
HETATM    2  O   UNL     1     -12.885  14.462  73.906  1.00  0.00    -0.394 OA 
ENDROOT
BRANCH   2   3
HETATM    3  C   UNL     1     -13.440  14.321  72.600  1.00  0.00    -0.525 C  
BRANCH   3   4
HETATM    4  C   UNL     1     -13.658  12.842  72.303  1.00  0.00    -0.611 C  
BRANCH   4   5
HETATM    5  C   UNL     1     -12.651  12.313  71.281  1.00  0.00    -0.234 C  
BRANCH   5   6
HETATM    6  O   UNL     1     -12.583  13.230  70.178  1.00  0.00    -0.184 OA 
BRANCH   6   7
HETATM    7  C   UNL     1     -11.449  13.129  69.406  1.00  0.00    -0.260 A  
HETATM    8  C   UNL     1     -10.963  14.306  68.803  1.00  0.00    -0.271 A  
HETATM    9  C   UNL     1     -11.736  15.590  68.921  1.00  0.00    -0.385 C  
HETATM   10  C   UNL     1      -9.727  14.237  68.137  1.00  0.00    -0.226 A  
HETATM   11  C   UNL     1     -10.787  11.921  69.200  1.00  0.00    -0.196 A  
HETATM   12  N   UNL     1      -9.056  13.059  67.986  1.00  0.00    -0.204 NA 
HETATM   13  C   UNL     1      -9.614  11.936  68.480  1.00  0.00    -0.157 A  
BRANCH  10  14
HETATM   14  C   UNL     1      -8.979  15.458  67.638  1.00  0.00    -0.181 C  
BRANCH  14  15
HETATM   15  S   UNL     1      -8.358  16.466  69.006  1.00  0.00    -0.188 S  
HETATM   16  O   UNL     1      -7.212  15.826  69.735  1.00  0.00    -0.167 OA 
BRANCH  15  17
HETATM   17  C   UNL     1      -7.682  17.805  68.133  1.00  0.00    -0.254 A  
HETATM   18  N   UNL     1      -7.198  18.909  68.661  1.00  0.00    -0.291 NA 
HETATM   19  C   UNL     1      -6.678  19.619  67.602  1.00  0.00    -0.231 A  
HETATM   20  H   UNL     1      -7.206  19.181  69.645  1.00  0.00     0.000 HD 
HETATM   21  C   UNL     1      -6.036  20.867  67.586  1.00  0.00    -0.360 A  
HETATM   22  C   UNL     1      -5.533  21.351  66.371  1.00  0.00    -0.303 A  
HETATM   23  C   UNL     1      -5.665  20.609  65.194  1.00  0.00    -0.252 A  
HETATM   24  C   UNL     1      -6.326  19.375  65.185  1.00  0.00    -0.309 A  
HETATM   25  C   UNL     1      -6.829  18.920  66.408  1.00  0.00    -0.211 A  
HETATM   26  N   UNL     1      -7.526  17.795  66.769  1.00  0.00    -0.197 NA 
ENDBRANCH  15  17
ENDBRANCH  14  15
ENDBRANCH  10  14
ENDBRANCH   6   7
ENDBRANCH   5   6
ENDBRANCH   4   5
ENDBRANCH   3   4
ENDBRANCH   2   3
TORSDOF 8
ENDMDL
MODEL      111
REMARK 921   NORMALIZED FREE ENERGY PREDICTED BY IDOCK:   -4.71 KCAL/MOL
REMARK 922        TOTAL FREE ENERGY PREDICTED BY IDOCK:   -7.79 KCAL/MOL
REMARK 923 INTER-LIGAND FREE ENERGY PREDICTED BY IDOCK:   -7.20 KCAL/MOL
REMARK 924 INTRA-LIGAND FREE ENERGY PREDICTED BY IDOCK:   -0.59 KCAL/MOL
REMARK 927      BINDING AFFINITY PREDICTED BY RF-SCORE:    0.00 PKD
ROOT
HETATM    1  C   UNL     1     -10.984   8.242  71.845  1.00  0.00    -0.287 C  
HETATM    2  O   UNL     1     -10.163   7.861  70.748  1.00  0.00    -0.193 OA 
ENDROOT
BRANCH   2   3
HETATM    3  C   UNL     1     -10.906   7.740  69.537  1.00  0.00    -0.153 C  
BRANCH   3   4
HETATM    4  C   UNL     1      -9.960   7.882  68.350  1.00  0.00    -0.198 C  
BRANCH   4   5
HETATM    5  C   UNL     1     -10.658   8.495  67.136  1.00  0.00    -0.243 C  
BRANCH   5   6
HETATM    6  O   UNL     1      -9.675   9.141  66.312  1.00  0.00    -0.231 OA 
BRANCH   6   7
HETATM    7  C   UNL     1      -9.468  10.473  66.588  1.00  0.00    -0.168 A  
HETATM    8  C   UNL     1      -9.686  11.396  65.547  1.00  0.00    -0.263 A  
HETATM    9  C   UNL     1     -10.022  10.911  64.165  1.00  0.00    -0.403 C  
HETATM   10  C   UNL     1      -9.620  12.765  65.863  1.00  0.00    -0.136 A  
HETATM   11  C   UNL     1      -9.048  10.923  67.837  1.00  0.00    -0.149 A  
HETATM   12  N   UNL     1      -9.261  13.200  67.105  1.00  0.00    -0.219 NA 
HETATM   13  C   UNL     1      -8.949  12.281  68.041  1.00  0.00    -0.190 A  
BRANCH  10  14
HETATM   14  C   UNL     1     -10.048  13.863  64.908  1.00  0.00    -0.263 C  
BRANCH  14  15
HETATM   15  S   UNL     1     -11.648  14.567  65.374  1.00  0.00    -0.353 S  
HETATM   16  O   UNL     1     -12.357  13.767  66.427  1.00  0.00    -0.439 OA 
BRANCH  15  17
HETATM   17  C   UNL     1     -11.137  16.033  66.148  1.00  0.00     0.027 A  
HETATM   18  N   UNL     1     -10.890  16.186  67.432  1.00  0.00    -0.302 NA 
HETATM   19  C   UNL     1     -10.412  17.471  67.557  1.00  0.00    -0.355 A  
HETATM   20  H   UNL     1     -11.025  15.500  68.175  1.00  0.00     0.000 HD 
HETATM   21  C   UNL     1      -9.990  18.164  68.703  1.00  0.00    -0.409 A  
HETATM   22  C   UNL     1      -9.476  19.460  68.556  1.00  0.00    -0.451 A  
HETATM   23  C   UNL     1      -9.386  20.056  67.296  1.00  0.00    -0.496 A  
HETATM   24  C   UNL     1      -9.828  19.392  66.145  1.00  0.00    -0.461 A  
HETATM   25  C   UNL     1     -10.346  18.105  66.320  1.00  0.00    -0.397 A  
HETATM   26  N   UNL     1     -10.871  17.185  65.449  1.00  0.00    -0.465 NA 
ENDBRANCH  15  17
ENDBRANCH  14  15
ENDBRANCH  10  14
ENDBRANCH   6   7
ENDBRANCH   5   6
ENDBRANCH   4   5
ENDBRANCH   3   4
ENDBRANCH   2   3
TORSDOF 8
ENDMDL
MODEL      112
REMARK 921   NORMALIZED FREE ENERGY PREDICTED BY IDOCK:   -4.71 KCAL/MOL
REMARK 922        TOTAL FREE ENERGY PREDICTED BY IDOCK:   -7.78 KCAL/MOL
REMARK 923 INTER-LIGAND FREE ENERGY PREDICTED BY IDOCK:   -7.23 KCAL/MOL
REMARK 924 INTRA-LIGAND FREE ENERGY PREDICTED BY IDOCK:   -0.55 KCAL/MOL
REMARK 927      BINDING AFFINITY PREDICTED BY RF-SCORE:    0.00 PKD
ROOT
HETATM    1  C   UNL     1      -8.015  19.146  66.351  1.00  0.00    -0.294 C  
HETATM    2  O   UNL     1      -9.079  18.328  65.879  1.00  0.00    -0.503 OA 
ENDROOT
BRANCH   2   3
HETATM    3  C   UNL     1     -10.322  18.653  66.498  1.00  0.00    -0.421 C  
BRANCH   3   4
HETATM    4  C   UNL     1     -10.358  18.053  67.899  1.00  0.00    -0.402 C  
BRANCH   4   5
HETATM    5  C   UNL     1     -10.989  16.662  67.905  1.00  0.00    -0.276 C  
BRANCH   5   6
HETATM    6  O   UNL     1     -10.123  15.755  67.205  1.00  0.00    -0.240 OA 
BRANCH   6   7
HETATM    7  C   UNL     1     -10.755  14.690  66.607  1.00  0.00    -0.305 A  
HETATM    8  C   UNL     1     -10.096  13.445  66.626  1.00  0.00    -0.275 A  
HETATM    9  C   UNL     1      -8.705  13.335  67.185  1.00  0.00    -0.215 C  
HETATM   10  C   UNL     1     -10.800  12.325  66.149  1.00  0.00    -0.279 A  
HETATM   11  C   UNL     1     -11.997  14.806  65.988  1.00  0.00    -0.155 A  
HETATM   12  N   UNL     1     -12.040  12.438  65.593  1.00  0.00    -0.584 NA 
HETATM   13  C   UNL     1     -12.587  13.666  65.491  1.00  0.00    -0.496 A  
BRANCH  10  14
HETATM   14  C   UNL     1     -10.309  10.899  66.313  1.00  0.00    -0.250 C  
BRANCH  14  15
HETATM   15  S   UNL     1     -10.491  10.321  68.017  1.00  0.00    -0.212 S  
HETATM   16  O   UNL     1     -11.889  10.470  68.542  1.00  0.00    -0.349 OA 
BRANCH  15  17
HETATM   17  C   UNL     1     -10.238   8.617  67.804  1.00  0.00    -0.225 A  
HETATM   18  N   UNL     1     -11.005   7.801  67.114  1.00  0.00    -0.498 NA 
HETATM   19  C   UNL     1     -10.352   6.588  67.136  1.00  0.00    -0.247 A  
HETATM   20  H   UNL     1     -11.892   8.019  66.661  1.00  0.00     0.000 HD 
HETATM   21  C   UNL     1     -10.717   5.363  66.556  1.00  0.00    -0.309 A  
HETATM   22  C   UNL     1      -9.838   4.277  66.667  1.00  0.00    -0.236 A  
HETATM   23  C   UNL     1      -8.621   4.406  67.342  1.00  0.00    -0.105 A  
HETATM   24  C   UNL     1      -8.252   5.612  67.950  1.00  0.00    -0.101 A  
HETATM   25  C   UNL     1      -9.152   6.676  67.834  1.00  0.00    -0.114 A  
HETATM   26  N   UNL     1      -9.135   7.967  68.301  1.00  0.00    -0.135 NA 
ENDBRANCH  15  17
ENDBRANCH  14  15
ENDBRANCH  10  14
ENDBRANCH   6   7
ENDBRANCH   5   6
ENDBRANCH   4   5
ENDBRANCH   3   4
ENDBRANCH   2   3
TORSDOF 8
ENDMDL
MODEL      113
REMARK 921   NORMALIZED FREE ENERGY PREDICTED BY IDOCK:   -4.69 KCAL/MOL
REMARK 922        TOTAL FREE ENERGY PREDICTED BY IDOCK:   -7.75 KCAL/MOL
REMARK 923 INTER-LIGAND FREE ENERGY PREDICTED BY IDOCK:   -6.94 KCAL/MOL
REMARK 924 INTRA-LIGAND FREE ENERGY PREDICTED BY IDOCK:   -0.81 KCAL/MOL
REMARK 927      BINDING AFFINITY PREDICTED BY RF-SCORE:    0.00 PKD
ROOT
HETATM    1  C   UNL     1      -6.650   5.311  65.379  1.00  0.00    -0.040 C  
HETATM    2  O   UNL     1      -7.436   5.059  66.537  1.00  0.00    -0.084 OA 
ENDROOT
BRANCH   2   3
HETATM    3  C   UNL     1      -7.816   3.688  66.640  1.00  0.00    -0.088 C  
BRANCH   3   4
HETATM    4  C   UNL     1      -8.989   3.563  67.605  1.00  0.00    -0.168 C  
BRANCH   4   5
HETATM    5  C   UNL     1      -9.898   4.791  67.559  1.00  0.00    -0.162 C  
BRANCH   5   6
HETATM    6  O   UNL     1     -10.081   5.283  68.895  1.00  0.00    -0.171 OA 
BRANCH   6   7
HETATM    7  C   UNL     1      -9.895   6.638  69.048  1.00  0.00    -0.144 A  
HETATM    8  C   UNL     1     -10.673   7.298  70.019  1.00  0.00    -0.261 A  
HETATM    9  C   UNL     1     -11.740   6.550  70.769  1.00  0.00    -0.427 C  
HETATM   10  C   UNL     1     -10.383   8.649  70.281  1.00  0.00    -0.198 A  
HETATM   11  C   UNL     1      -8.986   7.361  68.280  1.00  0.00    -0.130 A  
HETATM   12  N   UNL     1      -9.452   9.337  69.561  1.00  0.00    -0.165 NA 
HETATM   13  C   UNL     1      -8.811   8.697  68.563  1.00  0.00    -0.142 A  
BRANCH  10  14
HETATM   14  C   UNL     1     -10.980   9.419  71.444  1.00  0.00    -0.373 C  
BRANCH  14  15
HETATM   15  S   UNL     1     -12.602  10.104  71.030  1.00  0.00    -0.401 S  
HETATM   16  O   UNL     1     -13.186  10.939  72.132  1.00  0.00    -0.474 OA 
BRANCH  15  17
HETATM   17  C   UNL     1     -12.167  11.212  69.767  1.00  0.00    -0.300 A  
HETATM   18  N   UNL     1     -12.131  10.944  68.480  1.00  0.00    -0.812 NA 
HETATM   19  C   UNL     1     -11.847  12.145  67.869  1.00  0.00    -0.269 A  
HETATM   20  H   UNL     1     -12.281  10.041  68.030  1.00  0.00     0.000 HD 
HETATM   21  C   UNL     1     -11.694  12.445  66.506  1.00  0.00    -0.443 A  
HETATM   22  C   UNL     1     -11.468  13.776  66.130  1.00  0.00    -0.350 A  
HETATM   23  C   UNL     1     -11.394  14.789  67.089  1.00  0.00    -0.363 A  
HETATM   24  C   UNL     1     -11.516  14.506  68.455  1.00  0.00    -0.328 A  
HETATM   25  C   UNL     1     -11.730  13.169  68.804  1.00  0.00    -0.324 A  
HETATM   26  N   UNL     1     -11.879  12.533  70.011  1.00  0.00    -0.323 NA 
ENDBRANCH  15  17
ENDBRANCH  14  15
ENDBRANCH  10  14
ENDBRANCH   6   7
ENDBRANCH   5   6
ENDBRANCH   4   5
ENDBRANCH   3   4
ENDBRANCH   2   3
TORSDOF 8
ENDMDL
MODEL      114
REMARK 921   NORMALIZED FREE ENERGY PREDICTED BY IDOCK:   -4.68 KCAL/MOL
REMARK 922        TOTAL FREE ENERGY PREDICTED BY IDOCK:   -7.74 KCAL/MOL
REMARK 923 INTER-LIGAND FREE ENERGY PREDICTED BY IDOCK:   -6.80 KCAL/MOL
REMARK 924 INTRA-LIGAND FREE ENERGY PREDICTED BY IDOCK:   -0.94 KCAL/MOL
REMARK 927      BINDING AFFINITY PREDICTED BY RF-SCORE:    0.00 PKD
ROOT
HETATM    1  C   UNL     1     -10.273   4.805  70.582  1.00  0.00    -0.180 C  
HETATM    2  O   UNL     1      -9.288   4.012  71.232  1.00  0.00    -0.122 OA 
ENDROOT
BRANCH   2   3
HETATM    3  C   UNL     1      -9.692   3.623  72.543  1.00  0.00    -0.146 C  
BRANCH   3   4
HETATM    4  C   UNL     1     -10.809   4.544  73.020  1.00  0.00    -0.315 C  
BRANCH   4   5
HETATM    5  C   UNL     1     -10.400   5.341  74.258  1.00  0.00    -0.277 C  
BRANCH   5   6
HETATM    6  O   UNL     1     -10.766   6.717  74.067  1.00  0.00    -0.272 OA 
BRANCH   6   7
HETATM    7  C   UNL     1      -9.925   7.436  73.249  1.00  0.00    -0.291 A  
HETATM    8  C   UNL     1     -10.494   8.085  72.136  1.00  0.00    -0.329 A  
HETATM    9  C   UNL     1     -11.949   7.892  71.812  1.00  0.00    -0.337 C  
HETATM   10  C   UNL     1      -9.668   8.939  71.384  1.00  0.00    -0.300 A  
HETATM   11  C   UNL     1      -8.555   7.530  73.479  1.00  0.00    -0.227 A  
HETATM   12  N   UNL     1      -8.337   9.069  71.649  1.00  0.00    -0.349 NA 
HETATM   13  C   UNL     1      -7.809   8.340  72.653  1.00  0.00    -0.130 A  
BRANCH  10  14
HETATM   14  C   UNL     1     -10.191   9.868  70.306  1.00  0.00    -0.264 C  
BRANCH  14  15
HETATM   15  S   UNL     1      -8.987  10.092  68.975  1.00  0.00    -0.176 S  
HETATM   16  O   UNL     1      -8.690   8.823  68.231  1.00  0.00    -0.133 OA 
BRANCH  15  17
HETATM   17  C   UNL     1      -9.901  11.085  67.883  1.00  0.00    -0.171 A  
HETATM   18  N   UNL     1     -10.298  10.746  66.675  1.00  0.00    -0.233 NA 
HETATM   19  C   UNL     1     -11.075  11.796  66.242  1.00  0.00    -0.311 A  
HETATM   20  H   UNL     1     -10.077   9.888  66.169  1.00  0.00     0.000 HD 
HETATM   21  C   UNL     1     -11.756  11.967  65.027  1.00  0.00    -0.316 A  
HETATM   22  C   UNL     1     -12.544  13.113  64.850  1.00  0.00    -0.468 A  
HETATM   23  C   UNL     1     -12.651  14.071  65.862  1.00  0.00    -0.484 A  
HETATM   24  C   UNL     1     -11.958  13.931  67.071  1.00  0.00    -0.459 A  
HETATM   25  C   UNL     1     -11.171  12.785  67.216  1.00  0.00    -0.295 A  
HETATM   26  N   UNL     1     -10.362  12.332  68.228  1.00  0.00    -0.216 NA 
ENDBRANCH  15  17
ENDBRANCH  14  15
ENDBRANCH  10  14
ENDBRANCH   6   7
ENDBRANCH   5   6
ENDBRANCH   4   5
ENDBRANCH   3   4
ENDBRANCH   2   3
TORSDOF 8
ENDMDL
MODEL      115
REMARK 921   NORMALIZED FREE ENERGY PREDICTED BY IDOCK:   -4.68 KCAL/MOL
REMARK 922        TOTAL FREE ENERGY PREDICTED BY IDOCK:   -7.73 KCAL/MOL
REMARK 923 INTER-LIGAND FREE ENERGY PREDICTED BY IDOCK:   -7.32 KCAL/MOL
REMARK 924 INTRA-LIGAND FREE ENERGY PREDICTED BY IDOCK:   -0.42 KCAL/MOL
REMARK 927      BINDING AFFINITY PREDICTED BY RF-SCORE:    0.00 PKD
ROOT
HETATM    1  C   UNL     1      -9.772   2.150  64.004  1.00  0.00    -0.131 C  
HETATM    2  O   UNL     1     -10.099   3.533  64.064  1.00  0.00    -0.173 OA 
ENDROOT
BRANCH   2   3
HETATM    3  C   UNL     1      -9.195   4.262  64.893  1.00  0.00    -0.156 C  
BRANCH   3   4
HETATM    4  C   UNL     1      -9.811   4.437  66.276  1.00  0.00    -0.244 C  
BRANCH   4   5
HETATM    5  C   UNL     1      -9.339   5.725  66.950  1.00  0.00    -0.127 C  
BRANCH   5   6
HETATM    6  O   UNL     1     -10.488   6.478  67.370  1.00  0.00    -0.183 OA 
BRANCH   6   7
HETATM    7  C   UNL     1     -10.571   6.708  68.724  1.00  0.00    -0.236 A  
HETATM    8  C   UNL     1     -10.482   8.043  69.165  1.00  0.00    -0.217 A  
HETATM    9  C   UNL     1     -10.196   9.145  68.185  1.00  0.00    -0.249 C  
HETATM   10  C   UNL     1     -10.714   8.297  70.528  1.00  0.00    -0.225 A  
HETATM   11  C   UNL     1     -10.726   5.681  69.651  1.00  0.00    -0.398 A  
HETATM   12  N   UNL     1     -10.920   7.289  71.423  1.00  0.00    -0.231 NA 
HETATM   13  C   UNL     1     -10.883   6.018  70.977  1.00  0.00    -0.282 A  
BRANCH  10  14
HETATM   14  C   UNL     1     -10.872   9.693  71.101  1.00  0.00    -0.334 C  
BRANCH  14  15
HETATM   15  S   UNL     1     -12.528  10.356  70.797  1.00  0.00    -0.385 S  
HETATM   16  O   UNL     1     -13.158  10.948  72.024  1.00  0.00    -0.491 OA 
BRANCH  15  17
HETATM   17  C   UNL     1     -12.149  11.695  69.761  1.00  0.00    -0.289 A  
HETATM   18  N   UNL     1     -11.809  12.905  70.151  1.00  0.00    -0.504 NA 
HETATM   19  C   UNL     1     -11.497  13.584  68.995  1.00  0.00    -0.303 A  
HETATM   20  H   UNL     1     -11.782  13.263  71.106  1.00  0.00     0.000 HD 
HETATM   21  C   UNL     1     -11.068  14.909  68.819  1.00  0.00    -0.274 A  
HETATM   22  C   UNL     1     -10.748  15.348  67.527  1.00  0.00    -0.295 A  
HETATM   23  C   UNL     1     -10.853  14.488  66.431  1.00  0.00    -0.318 A  
HETATM   24  C   UNL     1     -11.304  13.171  66.582  1.00  0.00    -0.361 A  
HETATM   25  C   UNL     1     -11.628  12.762  67.879  1.00  0.00    -0.351 A  
HETATM   26  N   UNL     1     -12.103  11.581  68.393  1.00  0.00    -0.560 NA 
ENDBRANCH  15  17
ENDBRANCH  14  15
ENDBRANCH  10  14
ENDBRANCH   6   7
ENDBRANCH   5   6
ENDBRANCH   4   5
ENDBRANCH   3   4
ENDBRANCH   2   3
TORSDOF 8
ENDMDL
MODEL      116
REMARK 921   NORMALIZED FREE ENERGY PREDICTED BY IDOCK:   -4.64 KCAL/MOL
REMARK 922        TOTAL FREE ENERGY PREDICTED BY IDOCK:   -7.68 KCAL/MOL
REMARK 923 INTER-LIGAND FREE ENERGY PREDICTED BY IDOCK:   -6.74 KCAL/MOL
REMARK 924 INTRA-LIGAND FREE ENERGY PREDICTED BY IDOCK:   -0.94 KCAL/MOL
REMARK 927      BINDING AFFINITY PREDICTED BY RF-SCORE:    0.00 PKD
ROOT
HETATM    1  C   UNL     1     -12.187  14.560  64.498  1.00  0.00    -0.465 C  
HETATM    2  O   UNL     1     -12.808  13.308  64.765  1.00  0.00    -0.690 OA 
ENDROOT
BRANCH   2   3
HETATM    3  C   UNL     1     -11.856  12.253  64.890  1.00  0.00    -0.358 C  
BRANCH   3   4
HETATM    4  C   UNL     1     -11.611  11.969  66.368  1.00  0.00    -0.381 C  
BRANCH   4   5
HETATM    5  C   UNL     1     -10.369  11.105  66.582  1.00  0.00    -0.241 C  
BRANCH   5   6
HETATM    6  O   UNL     1      -9.242  11.750  65.969  1.00  0.00    -0.223 OA 
BRANCH   6   7
HETATM    7  C   UNL     1      -8.155  11.931  66.793  1.00  0.00    -0.108 A  
HETATM    8  C   UNL     1      -8.022  13.179  67.432  1.00  0.00    -0.174 A  
HETATM    9  C   UNL     1      -8.981  14.293  67.123  1.00  0.00    -0.237 C  
HETATM   10  C   UNL     1      -6.999  13.318  68.387  1.00  0.00    -0.105 A  
HETATM   11  C   UNL     1      -7.199  10.941  67.001  1.00  0.00    -0.114 A  
HETATM   12  N   UNL     1      -6.097  12.323  68.625  1.00  0.00    -0.055 NA 
HETATM   13  C   UNL     1      -6.192  11.186  67.908  1.00  0.00    -0.053 A  
BRANCH  10  14
HETATM   14  C   UNL     1      -6.875  14.517  69.308  1.00  0.00    -0.134 C  
BRANCH  14  15
HETATM   15  S   UNL     1      -5.905  15.844  68.552  1.00  0.00    -0.107 S  
HETATM   16  O   UNL     1      -5.293  15.450  67.239  1.00  0.00    -0.338 OA 
BRANCH  15  17
HETATM   17  C   UNL     1      -7.162  16.980  68.173  1.00  0.00    -0.186 A  
HETATM   18  N   UNL     1      -8.166  17.313  68.954  1.00  0.00    -0.227 NA 
HETATM   19  C   UNL     1      -8.829  18.316  68.282  1.00  0.00    -0.287 A  
HETATM   20  H   UNL     1      -8.404  16.914  69.862  1.00  0.00     0.000 HD 
HETATM   21  C   UNL     1      -9.971  19.042  68.653  1.00  0.00    -0.482 A  
HETATM   22  C   UNL     1     -10.418  20.072  67.813  1.00  0.00    -0.459 A  
HETATM   23  C   UNL     1      -9.743  20.374  66.628  1.00  0.00    -0.498 A  
HETATM   24  C   UNL     1      -8.617  19.643  66.228  1.00  0.00    -0.393 A  
HETATM   25  C   UNL     1      -8.199  18.614  67.077  1.00  0.00    -0.253 A  
HETATM   26  N   UNL     1      -7.174  17.704  67.006  1.00  0.00    -0.175 NA 
ENDBRANCH  15  17
ENDBRANCH  14  15
ENDBRANCH  10  14
ENDBRANCH   6   7
ENDBRANCH   5   6
ENDBRANCH   4   5
ENDBRANCH   3   4
ENDBRANCH   2   3
TORSDOF 8
ENDMDL
MODEL      117
REMARK 921   NORMALIZED FREE ENERGY PREDICTED BY IDOCK:   -4.64 KCAL/MOL
REMARK 922        TOTAL FREE ENERGY PREDICTED BY IDOCK:   -7.68 KCAL/MOL
REMARK 923 INTER-LIGAND FREE ENERGY PREDICTED BY IDOCK:   -6.92 KCAL/MOL
REMARK 924 INTRA-LIGAND FREE ENERGY PREDICTED BY IDOCK:   -0.75 KCAL/MOL
REMARK 927      BINDING AFFINITY PREDICTED BY RF-SCORE:    0.00 PKD
ROOT
HETATM    1  C   UNL     1      -8.430   5.554  67.183  1.00  0.00    -0.110 C  
HETATM    2  O   UNL     1      -8.146   6.280  68.373  1.00  0.00    -0.110 OA 
ENDROOT
BRANCH   2   3
HETATM    3  C   UNL     1      -7.851   7.650  68.109  1.00  0.00    -0.121 C  
BRANCH   3   4
HETATM    4  C   UNL     1      -9.017   8.514  68.574  1.00  0.00    -0.139 C  
BRANCH   4   5
HETATM    5  C   UNL     1      -9.168   9.773  67.720  1.00  0.00    -0.130 C  
BRANCH   5   6
HETATM    6  O   UNL     1     -10.528   9.866  67.266  1.00  0.00    -0.231 OA 
BRANCH   6   7
HETATM    7  C   UNL     1     -10.732  10.725  66.211  1.00  0.00    -0.138 A  
HETATM    8  C   UNL     1     -11.340  11.965  66.487  1.00  0.00    -0.403 A  
HETATM    9  C   UNL     1     -11.840  12.270  67.872  1.00  0.00    -0.358 C  
HETATM   10  C   UNL     1     -11.416  12.903  65.443  1.00  0.00    -0.324 A  
HETATM   11  C   UNL     1     -10.372  10.406  64.904  1.00  0.00    -0.238 A  
HETATM   12  N   UNL     1     -11.011  12.603  64.176  1.00  0.00    -0.358 NA 
HETATM   13  C   UNL     1     -10.540  11.364  63.930  1.00  0.00    -0.392 A  
BRANCH  10  14
HETATM   14  C   UNL     1     -11.836  14.346  65.646  1.00  0.00    -0.355 C  
BRANCH  14  15
HETATM   15  S   UNL     1     -10.924  15.467  64.559  1.00  0.00    -0.043 S  
HETATM   16  O   UNL     1     -11.758  16.612  64.062  1.00  0.00    -1.143 OA 
BRANCH  15  17
HETATM   17  C   UNL     1      -9.793  16.152  65.684  1.00  0.00    -0.255 A  
HETATM   18  N   UNL     1      -9.450  17.420  65.763  1.00  0.00    -0.519 NA 
HETATM   19  C   UNL     1      -8.625  17.503  66.862  1.00  0.00    -0.247 A  
HETATM   20  H   UNL     1      -9.735  18.179  65.143  1.00  0.00     0.000 HD 
HETATM   21  C   UNL     1      -7.974  18.617  67.414  1.00  0.00    -0.247 A  
HETATM   22  C   UNL     1      -7.232  18.450  68.592  1.00  0.00    -0.301 A  
HETATM   23  C   UNL     1      -7.138  17.200  69.208  1.00  0.00    -0.162 A  
HETATM   24  C   UNL     1      -7.757  16.071  68.658  1.00  0.00    -0.176 A  
HETATM   25  C   UNL     1      -8.482  16.262  67.477  1.00  0.00    -0.169 A  
HETATM   26  N   UNL     1      -9.189  15.409  66.668  1.00  0.00    -0.253 NA 
ENDBRANCH  15  17
ENDBRANCH  14  15
ENDBRANCH  10  14
ENDBRANCH   6   7
ENDBRANCH   5   6
ENDBRANCH   4   5
ENDBRANCH   3   4
ENDBRANCH   2   3
TORSDOF 8
ENDMDL
MODEL      118
REMARK 921   NORMALIZED FREE ENERGY PREDICTED BY IDOCK:   -4.63 KCAL/MOL
REMARK 922        TOTAL FREE ENERGY PREDICTED BY IDOCK:   -7.66 KCAL/MOL
REMARK 923 INTER-LIGAND FREE ENERGY PREDICTED BY IDOCK:   -7.10 KCAL/MOL
REMARK 924 INTRA-LIGAND FREE ENERGY PREDICTED BY IDOCK:   -0.56 KCAL/MOL
REMARK 927      BINDING AFFINITY PREDICTED BY RF-SCORE:    0.00 PKD
ROOT
HETATM    1  C   UNL     1      -5.869   6.016  65.911  1.00  0.00    -0.024 C  
HETATM    2  O   UNL     1      -5.134   6.522  64.803  1.00  0.00    -0.020 OA 
ENDROOT
BRANCH   2   3
HETATM    3  C   UNL     1      -5.600   7.806  64.391  1.00  0.00    -0.037 C  
BRANCH   3   4
HETATM    4  C   UNL     1      -6.458   7.652  63.141  1.00  0.00    -0.062 C  
BRANCH   4   5
HETATM    5  C   UNL     1      -7.478   8.783  63.008  1.00  0.00    -0.102 C  
BRANCH   5   6
HETATM    6  O   UNL     1      -8.278   8.829  64.200  1.00  0.00    -0.156 OA 
BRANCH   6   7
HETATM    7  C   UNL     1      -9.147   9.893  64.277  1.00  0.00    -0.253 A  
HETATM    8  C   UNL     1      -9.922  10.019  65.446  1.00  0.00    -0.364 A  
HETATM    9  C   UNL     1      -9.868   8.956  66.507  1.00  0.00    -0.344 C  
HETATM   10  C   UNL     1     -10.700  11.181  65.593  1.00  0.00    -0.185 A  
HETATM   11  C   UNL     1      -9.285  10.824  63.251  1.00  0.00    -0.295 A  
HETATM   12  N   UNL     1     -10.788  12.117  64.605  1.00  0.00    -0.292 NA 
HETATM   13  C   UNL     1     -10.118  11.901  63.455  1.00  0.00    -0.441 A  
BRANCH  10  14
HETATM   14  C   UNL     1     -11.404  11.556  66.883  1.00  0.00    -0.253 C  
BRANCH  14  15
HETATM   15  S   UNL     1     -10.232  12.089  68.154  1.00  0.00    -0.206 S  
HETATM   16  O   UNL     1      -9.321  13.188  67.688  1.00  0.00    -0.191 OA 
BRANCH  15  17
HETATM   17  C   UNL     1     -11.314  12.818  69.299  1.00  0.00    -0.247 A  
HETATM   18  N   UNL     1     -11.969  12.192  70.253  1.00  0.00    -0.462 NA 
HETATM   19  C   UNL     1     -12.602  13.184  70.967  1.00  0.00    -0.312 A  
HETATM   20  H   UNL     1     -12.001  11.187  70.426  1.00  0.00     0.000 HD 
HETATM   21  C   UNL     1     -13.434  13.087  72.093  1.00  0.00    -0.638 A  
HETATM   22  C   UNL     1     -13.909  14.266  72.684  1.00  0.00    -0.489 A  
HETATM   23  C   UNL     1     -13.565  15.517  72.165  1.00  0.00    -0.596 A  
HETATM   24  C   UNL     1     -12.759  15.633  71.026  1.00  0.00    -0.517 A  
HETATM   25  C   UNL     1     -12.308  14.441  70.449  1.00  0.00    -0.342 A  
HETATM   26  N   UNL     1     -11.533  14.173  69.349  1.00  0.00    -0.273 NA 
ENDBRANCH  15  17
ENDBRANCH  14  15
ENDBRANCH  10  14
ENDBRANCH   6   7
ENDBRANCH   5   6
ENDBRANCH   4   5
ENDBRANCH   3   4
ENDBRANCH   2   3
TORSDOF 8
ENDMDL
MODEL      119
REMARK 921   NORMALIZED FREE ENERGY PREDICTED BY IDOCK:   -4.62 KCAL/MOL
REMARK 922        TOTAL FREE ENERGY PREDICTED BY IDOCK:   -7.65 KCAL/MOL
REMARK 923 INTER-LIGAND FREE ENERGY PREDICTED BY IDOCK:   -6.88 KCAL/MOL
REMARK 924 INTRA-LIGAND FREE ENERGY PREDICTED BY IDOCK:   -0.78 KCAL/MOL
REMARK 927      BINDING AFFINITY PREDICTED BY RF-SCORE:    0.00 PKD
ROOT
HETATM    1  C   UNL     1      -8.739   5.396  73.812  1.00  0.00    -0.115 C  
HETATM    2  O   UNL     1      -8.455   5.911  72.517  1.00  0.00    -0.117 OA 
ENDROOT
BRANCH   2   3
HETATM    3  C   UNL     1      -9.358   6.950  72.143  1.00  0.00    -0.138 C  
BRANCH   3   4
HETATM    4  C   UNL     1     -10.424   7.103  73.221  1.00  0.00    -0.391 C  
BRANCH   4   5
HETATM    5  C   UNL     1     -11.654   7.847  72.704  1.00  0.00    -0.377 C  
BRANCH   5   6
HETATM    6  O   UNL     1     -11.585   7.920  71.271  1.00  0.00    -0.267 OA 
BRANCH   6   7
HETATM    7  C   UNL     1     -11.657   9.190  70.748  1.00  0.00    -0.276 A  
HETATM    8  C   UNL     1     -11.052   9.415  69.496  1.00  0.00    -0.134 A  
HETATM    9  C   UNL     1     -10.267   8.321  68.828  1.00  0.00    -0.226 C  
HETATM   10  C   UNL     1     -11.250  10.669  68.890  1.00  0.00    -0.275 A  
HETATM   11  C   UNL     1     -12.288  10.239  71.411  1.00  0.00    -0.502 A  
HETATM   12  N   UNL     1     -11.917  11.676  69.523  1.00  0.00    -0.320 NA 
HETATM   13  C   UNL     1     -12.381  11.454  70.769  1.00  0.00    -0.386 A  
BRANCH  10  14
HETATM   14  C   UNL     1     -10.853  10.975  67.459  1.00  0.00    -0.263 C  
BRANCH  14  15
HETATM   15  S   UNL     1      -9.137  11.534  67.346  1.00  0.00    -0.170 S  
HETATM   16  O   UNL     1      -8.471  11.132  66.061  1.00  0.00    -0.172 OA 
BRANCH  15  17
HETATM   17  C   UNL     1      -9.366  13.251  67.249  1.00  0.00    -0.226 A  
HETATM   18  N   UNL     1      -9.403  13.967  66.146  1.00  0.00    -0.494 NA 
HETATM   19  C   UNL     1      -9.716  15.244  66.554  1.00  0.00    -0.268 A  
HETATM   20  H   UNL     1      -9.236  13.645  65.192  1.00  0.00     0.000 HD 
HETATM   21  C   UNL     1      -9.887  16.412  65.795  1.00  0.00    -0.303 A  
HETATM   22  C   UNL     1     -10.274  17.591  66.449  1.00  0.00    -0.354 A  
HETATM   23  C   UNL     1     -10.484  17.608  67.830  1.00  0.00    -0.392 A  
HETATM   24  C   UNL     1     -10.291  16.460  68.608  1.00  0.00    -0.273 A  
HETATM   25  C   UNL     1      -9.895  15.301  67.933  1.00  0.00    -0.216 A  
HETATM   26  N   UNL     1      -9.606  14.028  68.356  1.00  0.00    -0.220 NA 
ENDBRANCH  15  17
ENDBRANCH  14  15
ENDBRANCH  10  14
ENDBRANCH   6   7
ENDBRANCH   5   6
ENDBRANCH   4   5
ENDBRANCH   3   4
ENDBRANCH   2   3
TORSDOF 8
ENDMDL
MODEL      120
REMARK 921   NORMALIZED FREE ENERGY PREDICTED BY IDOCK:   -4.62 KCAL/MOL
REMARK 922        TOTAL FREE ENERGY PREDICTED BY IDOCK:   -7.65 KCAL/MOL
REMARK 923 INTER-LIGAND FREE ENERGY PREDICTED BY IDOCK:   -6.99 KCAL/MOL
REMARK 924 INTRA-LIGAND FREE ENERGY PREDICTED BY IDOCK:   -0.66 KCAL/MOL
REMARK 927      BINDING AFFINITY PREDICTED BY RF-SCORE:    0.00 PKD
ROOT
HETATM    1  C   UNL     1     -12.042  14.638  64.224  1.00  0.00    -0.415 C  
HETATM    2  O   UNL     1     -12.548  13.609  63.383  1.00  0.00    -0.799 OA 
ENDROOT
BRANCH   2   3
HETATM    3  C   UNL     1     -11.733  12.439  63.416  1.00  0.00    -0.472 C  
BRANCH   3   4
HETATM    4  C   UNL     1     -10.624  12.628  64.445  1.00  0.00    -0.388 C  
BRANCH   4   5
HETATM    5  C   UNL     1     -10.752  11.642  65.606  1.00  0.00    -0.278 C  
BRANCH   5   6
HETATM    6  O   UNL     1      -9.466  11.052  65.857  1.00  0.00    -0.198 OA 
BRANCH   6   7
HETATM    7  C   UNL     1      -9.491   9.900  66.608  1.00  0.00    -0.173 A  
HETATM    8  C   UNL     1      -8.292   9.499  67.228  1.00  0.00    -0.125 A  
HETATM    9  C   UNL     1      -7.019  10.257  66.973  1.00  0.00    -0.089 C  
HETATM   10  C   UNL     1      -8.347   8.408  68.114  1.00  0.00    -0.128 A  
HETATM   11  C   UNL     1     -10.641   9.129  66.761  1.00  0.00    -0.207 A  
HETATM   12  N   UNL     1      -9.491   7.690  68.301  1.00  0.00    -0.145 NA 
HETATM   13  C   UNL     1     -10.588   8.038  67.599  1.00  0.00    -0.194 A  
BRANCH  10  14
HETATM   14  C   UNL     1      -7.195   8.008  69.017  1.00  0.00    -0.078 C  
BRANCH  14  15
HETATM   15  S   UNL     1      -7.104   9.057  70.488  1.00  0.00    -0.085 S  
HETATM   16  O   UNL     1      -6.662  10.459  70.183  1.00  0.00    -0.127 OA 
BRANCH  15  17
HETATM   17  C   UNL     1      -8.785   9.164  70.906  1.00  0.00    -0.221 A  
HETATM   18  N   UNL     1      -9.640  10.056  70.455  1.00  0.00    -0.366 NA 
HETATM   19  C   UNL     1     -10.860   9.680  70.970  1.00  0.00    -0.342 A  
HETATM   20  H   UNL     1      -9.441  10.856  69.853  1.00  0.00     0.000 HD 
HETATM   21  C   UNL     1     -12.123  10.272  70.810  1.00  0.00    -0.451 A  
HETATM   22  C   UNL     1     -13.237   9.651  71.391  1.00  0.00    -0.469 A  
HETATM   23  C   UNL     1     -13.098   8.467  72.120  1.00  0.00    -0.357 A  
HETATM   24  C   UNL     1     -11.844   7.876  72.313  1.00  0.00    -0.404 A  
HETATM   25  C   UNL     1     -10.747   8.522  71.732  1.00  0.00    -0.303 A  
HETATM   26  N   UNL     1      -9.403   8.250  71.724  1.00  0.00    -0.181 NA 
ENDBRANCH  15  17
ENDBRANCH  14  15
ENDBRANCH  10  14
ENDBRANCH   6   7
ENDBRANCH   5   6
ENDBRANCH   4   5
ENDBRANCH   3   4
ENDBRANCH   2   3
TORSDOF 8
ENDMDL
MODEL      121
REMARK 921   NORMALIZED FREE ENERGY PREDICTED BY IDOCK:   -4.61 KCAL/MOL
REMARK 922        TOTAL FREE ENERGY PREDICTED BY IDOCK:   -7.64 KCAL/MOL
REMARK 923 INTER-LIGAND FREE ENERGY PREDICTED BY IDOCK:   -6.81 KCAL/MOL
REMARK 924 INTRA-LIGAND FREE ENERGY PREDICTED BY IDOCK:   -0.82 KCAL/MOL
REMARK 927      BINDING AFFINITY PREDICTED BY RF-SCORE:    0.00 PKD
ROOT
HETATM    1  C   UNL     1      -7.121  10.201  62.334  1.00  0.00    -0.130 C  
HETATM    2  O   UNL     1      -7.477  10.147  63.710  1.00  0.00    -0.144 OA 
ENDROOT
BRANCH   2   3
HETATM    3  C   UNL     1      -8.420   9.112  63.980  1.00  0.00    -0.184 C  
BRANCH   3   4
HETATM    4  C   UNL     1      -9.247   9.491  65.202  1.00  0.00    -0.305 C  
BRANCH   4   5
HETATM    5  C   UNL     1      -9.686  10.954  65.161  1.00  0.00    -0.262 C  
BRANCH   5   6
HETATM    6  O   UNL     1      -9.132  11.637  66.296  1.00  0.00    -0.210 OA 
BRANCH   6   7
HETATM    7  C   UNL     1     -10.051  12.056  67.230  1.00  0.00    -0.194 A  
HETATM    8  C   UNL     1     -10.299  13.439  67.327  1.00  0.00    -0.244 A  
HETATM    9  C   UNL     1      -9.496  14.410  66.509  1.00  0.00    -0.309 C  
HETATM   10  C   UNL     1     -11.341  13.858  68.173  1.00  0.00    -0.295 A  
HETATM   11  C   UNL     1     -10.721  11.171  68.071  1.00  0.00    -0.254 A  
HETATM   12  N   UNL     1     -12.031  12.979  68.954  1.00  0.00    -0.296 NA 
HETATM   13  C   UNL     1     -11.684  11.677  68.916  1.00  0.00    -0.334 A  
BRANCH  10  14
HETATM   14  C   UNL     1     -11.866  15.281  68.207  1.00  0.00    -0.228 C  
BRANCH  14  15
HETATM   15  S   UNL     1     -11.222  16.197  69.628  1.00  0.00    -0.315 S  
HETATM   16  O   UNL     1     -10.341  15.365  70.513  1.00  0.00    -0.246 OA 
BRANCH  15  17
HETATM   17  C   UNL     1     -10.171  17.324  68.829  1.00  0.00    -0.353 A  
HETATM   18  N   UNL     1     -10.531  18.466  68.283  1.00  0.00    -0.342 NA 
HETATM   19  C   UNL     1      -9.356  19.059  67.879  1.00  0.00    -0.308 A  
HETATM   20  H   UNL     1     -11.477  18.832  68.180  1.00  0.00     0.000 HD 
HETATM   21  C   UNL     1      -9.146  20.291  67.240  1.00  0.00    -0.504 A  
HETATM   22  C   UNL     1      -7.831  20.705  66.990  1.00  0.00    -0.307 A  
HETATM   23  C   UNL     1      -6.745  19.910  67.366  1.00  0.00    -0.244 A  
HETATM   24  C   UNL     1      -6.935  18.666  67.979  1.00  0.00    -0.247 A  
HETATM   25  C   UNL     1      -8.257  18.271  68.207  1.00  0.00    -0.298 A  
HETATM   26  N   UNL     1      -8.811  17.143  68.758  1.00  0.00    -0.260 NA 
ENDBRANCH  15  17
ENDBRANCH  14  15
ENDBRANCH  10  14
ENDBRANCH   6   7
ENDBRANCH   5   6
ENDBRANCH   4   5
ENDBRANCH   3   4
ENDBRANCH   2   3
TORSDOF 8
ENDMDL
MODEL      122
REMARK 921   NORMALIZED FREE ENERGY PREDICTED BY IDOCK:   -4.61 KCAL/MOL
REMARK 922        TOTAL FREE ENERGY PREDICTED BY IDOCK:   -7.64 KCAL/MOL
REMARK 923 INTER-LIGAND FREE ENERGY PREDICTED BY IDOCK:   -6.70 KCAL/MOL
REMARK 924 INTRA-LIGAND FREE ENERGY PREDICTED BY IDOCK:   -0.94 KCAL/MOL
REMARK 927      BINDING AFFINITY PREDICTED BY RF-SCORE:    0.00 PKD
ROOT
HETATM    1  C   UNL     1      -8.497   9.305  63.957  1.00  0.00    -0.193 C  
HETATM    2  O   UNL     1      -7.770  10.323  64.635  1.00  0.00    -0.149 OA 
ENDROOT
BRANCH   2   3
HETATM    3  C   UNL     1      -7.089   9.822  65.783  1.00  0.00    -0.104 C  
BRANCH   3   4
HETATM    4  C   UNL     1      -7.442  10.681  66.992  1.00  0.00    -0.106 C  
BRANCH   4   5
HETATM    5  C   UNL     1      -8.780  10.273  67.608  1.00  0.00    -0.121 C  
BRANCH   5   6
HETATM    6  O   UNL     1      -9.449  11.451  68.086  1.00  0.00    -0.168 OA 
BRANCH   6   7
HETATM    7  C   UNL     1      -9.886  12.311  67.105  1.00  0.00    -0.203 A  
HETATM    8  C   UNL     1      -9.446  13.648  67.167  1.00  0.00    -0.244 A  
HETATM    9  C   UNL     1      -8.622  14.119  68.332  1.00  0.00    -0.176 C  
HETATM   10  C   UNL     1      -9.768  14.492  66.089  1.00  0.00    -0.316 A  
HETATM   11  C   UNL     1     -10.741  11.910  66.081  1.00  0.00    -0.318 A  
HETATM   12  N   UNL     1     -10.561  14.076  65.061  1.00  0.00    -0.386 NA 
HETATM   13  C   UNL     1     -11.055  12.822  65.100  1.00  0.00    -0.291 A  
BRANCH  10  14
HETATM   14  C   UNL     1      -9.179  15.878  65.911  1.00  0.00    -0.297 C  
BRANCH  14  15
HETATM   15  S   UNL     1     -10.247  17.155  66.619  1.00  0.00    -0.310 S  
HETATM   16  O   UNL     1     -11.024  16.676  67.811  1.00  0.00    -0.320 OA 
BRANCH  15  17
HETATM   17  C   UNL     1      -9.058  18.259  67.236  1.00  0.00    -0.256 A  
HETATM   18  N   UNL     1      -8.506  18.216  68.430  1.00  0.00    -0.294 NA 
HETATM   19  C   UNL     1      -7.554  19.210  68.424  1.00  0.00    -0.312 A  
HETATM   20  H   UNL     1      -8.736  17.582  69.196  1.00  0.00     0.000 HD 
HETATM   21  C   UNL     1      -6.666  19.608  69.435  1.00  0.00    -0.389 A  
HETATM   22  C   UNL     1      -5.735  20.618  69.156  1.00  0.00    -0.402 A  
HETATM   23  C   UNL     1      -5.690  21.223  67.896  1.00  0.00    -0.394 A  
HETATM   24  C   UNL     1      -6.586  20.858  66.884  1.00  0.00    -0.380 A  
HETATM   25  C   UNL     1      -7.511  19.856  67.192  1.00  0.00    -0.257 A  
HETATM   26  N   UNL     1      -8.522  19.268  66.475  1.00  0.00    -0.312 NA 
ENDBRANCH  15  17
ENDBRANCH  14  15
ENDBRANCH  10  14
ENDBRANCH   6   7
ENDBRANCH   5   6
ENDBRANCH   4   5
ENDBRANCH   3   4
ENDBRANCH   2   3
TORSDOF 8
ENDMDL
MODEL      123
REMARK 921   NORMALIZED FREE ENERGY PREDICTED BY IDOCK:   -4.60 KCAL/MOL
REMARK 922        TOTAL FREE ENERGY PREDICTED BY IDOCK:   -7.63 KCAL/MOL
REMARK 923 INTER-LIGAND FREE ENERGY PREDICTED BY IDOCK:   -6.51 KCAL/MOL
REMARK 924 INTRA-LIGAND FREE ENERGY PREDICTED BY IDOCK:   -1.11 KCAL/MOL
REMARK 927      BINDING AFFINITY PREDICTED BY RF-SCORE:    0.00 PKD
ROOT
HETATM    1  C   UNL     1     -12.397  11.227  70.688  1.00  0.00    -0.383 C  
HETATM    2  O   UNL     1     -13.208  10.059  70.678  1.00  0.00    -0.298 OA 
ENDROOT
BRANCH   2   3
HETATM    3  C   UNL     1     -13.029   9.270  71.852  1.00  0.00    -0.411 C  
BRANCH   3   4
HETATM    4  C   UNL     1     -13.572   7.868  71.604  1.00  0.00    -0.397 C  
BRANCH   4   5
HETATM    5  C   UNL     1     -12.533   6.792  71.919  1.00  0.00    -0.312 C  
BRANCH   5   6
HETATM    6  O   UNL     1     -11.857   6.430  70.704  1.00  0.00    -0.367 OA 
BRANCH   6   7
HETATM    7  C   UNL     1     -10.635   7.033  70.516  1.00  0.00    -0.224 A  
HETATM    8  C   UNL     1     -10.194   7.213  69.191  1.00  0.00    -0.196 A  
HETATM    9  C   UNL     1     -10.994   6.658  68.046  1.00  0.00    -0.332 C  
HETATM   10  C   UNL     1      -9.020   7.960  68.988  1.00  0.00    -0.145 A  
HETATM   11  C   UNL     1      -9.835   7.453  71.575  1.00  0.00    -0.185 A  
HETATM   12  N   UNL     1      -8.269   8.415  70.031  1.00  0.00    -0.118 NA 
HETATM   13  C   UNL     1      -8.667   8.122  71.285  1.00  0.00    -0.145 A  
BRANCH  10  14
HETATM   14  C   UNL     1      -8.550   8.422  67.622  1.00  0.00    -0.130 C  
BRANCH  14  15
HETATM   15  S   UNL     1      -7.615   9.967  67.724  1.00  0.00    -0.090 S  
HETATM   16  O   UNL     1      -6.794  10.238  66.497  1.00  0.00    -0.090 OA 
BRANCH  15  17
HETATM   17  C   UNL     1      -8.909  11.124  67.699  1.00  0.00    -0.136 A  
HETATM   18  N   UNL     1      -9.085  12.108  68.554  1.00  0.00    -0.345 NA 
HETATM   19  C   UNL     1     -10.162  12.817  68.072  1.00  0.00    -0.228 A  
HETATM   20  H   UNL     1      -8.540  12.303  69.395  1.00  0.00     0.000 HD 
HETATM   21  C   UNL     1     -10.782  13.966  68.586  1.00  0.00    -0.272 A  
HETATM   22  C   UNL     1     -11.836  14.544  67.864  1.00  0.00    -0.370 A  
HETATM   23  C   UNL     1     -12.266  13.990  66.656  1.00  0.00    -0.463 A  
HETATM   24  C   UNL     1     -11.677  12.828  66.141  1.00  0.00    -0.458 A  
HETATM   25  C   UNL     1     -10.636  12.265  66.886  1.00  0.00    -0.224 A  
HETATM   26  N   UNL     1      -9.856  11.151  66.704  1.00  0.00    -0.194 NA 
ENDBRANCH  15  17
ENDBRANCH  14  15
ENDBRANCH  10  14
ENDBRANCH   6   7
ENDBRANCH   5   6
ENDBRANCH   4   5
ENDBRANCH   3   4
ENDBRANCH   2   3
TORSDOF 8
ENDMDL
MODEL      124
REMARK 921   NORMALIZED FREE ENERGY PREDICTED BY IDOCK:   -4.59 KCAL/MOL
REMARK 922        TOTAL FREE ENERGY PREDICTED BY IDOCK:   -7.62 KCAL/MOL
REMARK 923 INTER-LIGAND FREE ENERGY PREDICTED BY IDOCK:   -6.77 KCAL/MOL
REMARK 924 INTRA-LIGAND FREE ENERGY PREDICTED BY IDOCK:   -0.84 KCAL/MOL
REMARK 927      BINDING AFFINITY PREDICTED BY RF-SCORE:    0.00 PKD
ROOT
HETATM    1  C   UNL     1      -5.836  15.605  68.142  1.00  0.00    -0.129 C  
HETATM    2  O   UNL     1      -6.657  15.096  67.098  1.00  0.00    -0.285 OA 
ENDROOT
BRANCH   2   3
HETATM    3  C   UNL     1      -8.011  14.929  67.514  1.00  0.00    -0.178 C  
BRANCH   3   4
HETATM    4  C   UNL     1      -8.917  15.777  66.628  1.00  0.00    -0.313 C  
BRANCH   4   5
HETATM    5  C   UNL     1     -10.218  16.151  67.337  1.00  0.00    -0.272 C  
BRANCH   5   6
HETATM    6  O   UNL     1     -11.195  15.128  67.085  1.00  0.00    -0.335 OA 
BRANCH   6   7
HETATM    7  C   UNL     1     -11.591  14.415  68.193  1.00  0.00    -0.329 A  
HETATM    8  C   UNL     1     -11.753  13.023  68.048  1.00  0.00    -0.397 A  
HETATM    9  C   UNL     1     -11.603  12.381  66.697  1.00  0.00    -0.447 C  
HETATM   10  C   UNL     1     -12.011  12.271  69.208  1.00  0.00    -0.253 A  
HETATM   11  C   UNL     1     -11.839  15.017  69.423  1.00  0.00    -0.358 A  
HETATM   12  N   UNL     1     -12.200  12.863  70.422  1.00  0.00    -0.345 NA 
HETATM   13  C   UNL     1     -12.149  14.208  70.494  1.00  0.00    -0.350 A  
BRANCH  10  14
HETATM   14  C   UNL     1     -11.987  10.755  69.242  1.00  0.00    -0.263 C  
BRANCH  14  15
HETATM   15  S   UNL     1     -10.460  10.127  69.979  1.00  0.00    -0.246 S  
HETATM   16  O   UNL     1     -10.661   9.564  71.356  1.00  0.00    -0.336 OA 
BRANCH  15  17
HETATM   17  C   UNL     1     -10.143   8.768  68.948  1.00  0.00    -0.198 A  
HETATM   18  N   UNL     1     -10.979   7.788  68.678  1.00  0.00    -0.419 NA 
HETATM   19  C   UNL     1     -10.337   7.013  67.739  1.00  0.00    -0.202 A  
HETATM   20  H   UNL     1     -11.904   7.635  69.081  1.00  0.00     0.000 HD 
HETATM   21  C   UNL     1     -10.767   5.842  67.096  1.00  0.00    -0.387 A  
HETATM   22  C   UNL     1      -9.945   5.270  66.115  1.00  0.00    -0.191 A  
HETATM   23  C   UNL     1      -8.718   5.850  65.782  1.00  0.00    -0.153 A  
HETATM   24  C   UNL     1      -8.259   7.003  66.432  1.00  0.00    -0.117 A  
HETATM   25  C   UNL     1      -9.094   7.547  67.413  1.00  0.00    -0.126 A  
HETATM   26  N   UNL     1      -8.971   8.632  68.244  1.00  0.00    -0.142 NA 
ENDBRANCH  15  17
ENDBRANCH  14  15
ENDBRANCH  10  14
ENDBRANCH   6   7
ENDBRANCH   5   6
ENDBRANCH   4   5
ENDBRANCH   3   4
ENDBRANCH   2   3
TORSDOF 8
ENDMDL
MODEL      125
REMARK 921   NORMALIZED FREE ENERGY PREDICTED BY IDOCK:   -4.59 KCAL/MOL
REMARK 922        TOTAL FREE ENERGY PREDICTED BY IDOCK:   -7.61 KCAL/MOL
REMARK 923 INTER-LIGAND FREE ENERGY PREDICTED BY IDOCK:   -6.79 KCAL/MOL
REMARK 924 INTRA-LIGAND FREE ENERGY PREDICTED BY IDOCK:   -0.82 KCAL/MOL
REMARK 927      BINDING AFFINITY PREDICTED BY RF-SCORE:    0.00 PKD
ROOT
HETATM    1  C   UNL     1      -6.468   8.227  65.688  1.00  0.00    -0.052 C  
HETATM    2  O   UNL     1      -7.735   7.637  65.952  1.00  0.00    -0.090 OA 
ENDROOT
BRANCH   2   3
HETATM    3  C   UNL     1      -8.813   8.491  65.574  1.00  0.00    -0.154 C  
BRANCH   3   4
HETATM    4  C   UNL     1      -9.947   8.345  66.583  1.00  0.00    -0.354 C  
BRANCH   4   5
HETATM    5  C   UNL     1      -9.427   8.286  68.019  1.00  0.00    -0.140 C  
BRANCH   5   6
HETATM    6  O   UNL     1      -9.075   9.614  68.440  1.00  0.00    -0.123 OA 
BRANCH   6   7
HETATM    7  C   UNL     1     -10.108  10.349  68.972  1.00  0.00    -0.213 A  
HETATM    8  C   UNL     1     -10.277  11.668  68.508  1.00  0.00    -0.216 A  
HETATM    9  C   UNL     1      -9.285  12.265  67.549  1.00  0.00    -0.181 C  
HETATM   10  C   UNL     1     -11.417  12.371  68.936  1.00  0.00    -0.307 A  
HETATM   11  C   UNL     1     -10.968   9.842  69.943  1.00  0.00    -0.299 A  
HETATM   12  N   UNL     1     -12.285  11.846  69.847  1.00  0.00    -0.238 NA 
HETATM   13  C   UNL     1     -12.023  10.625  70.353  1.00  0.00    -0.346 A  
BRANCH  10  14
HETATM   14  C   UNL     1     -11.845  13.703  68.350  1.00  0.00    -0.372 C  
BRANCH  14  15
HETATM   15  S   UNL     1     -11.927  14.995  69.614  1.00  0.00    -0.315 S  
HETATM   16  O   UNL     1     -11.073  14.698  70.812  1.00  0.00    -0.118 OA 
BRANCH  15  17
HETATM   17  C   UNL     1     -11.146  16.303  68.782  1.00  0.00    -0.355 A  
HETATM   18  N   UNL     1     -11.050  16.444  67.478  1.00  0.00    -0.183 NA 
HETATM   19  C   UNL     1     -10.456  17.672  67.290  1.00  0.00    -0.338 A  
HETATM   20  H   UNL     1     -11.350  15.785  66.759  1.00  0.00     0.000 HD 
HETATM   21  C   UNL     1     -10.116  18.332  66.099  1.00  0.00    -0.354 A  
HETATM   22  C   UNL     1      -9.573  19.622  66.174  1.00  0.00    -0.464 A  
HETATM   23  C   UNL     1      -9.370  20.243  67.409  1.00  0.00    -0.531 A  
HETATM   24  C   UNL     1      -9.678  19.591  68.609  1.00  0.00    -0.514 A  
HETATM   25  C   UNL     1     -10.208  18.300  68.506  1.00  0.00    -0.379 A  
HETATM   26  N   UNL     1     -10.603  17.378  69.442  1.00  0.00    -0.157 NA 
ENDBRANCH  15  17
ENDBRANCH  14  15
ENDBRANCH  10  14
ENDBRANCH   6   7
ENDBRANCH   5   6
ENDBRANCH   4   5
ENDBRANCH   3   4
ENDBRANCH   2   3
TORSDOF 8
ENDMDL
MODEL      126
REMARK 921   NORMALIZED FREE ENERGY PREDICTED BY IDOCK:   -4.59 KCAL/MOL
REMARK 922        TOTAL FREE ENERGY PREDICTED BY IDOCK:   -7.61 KCAL/MOL
REMARK 923 INTER-LIGAND FREE ENERGY PREDICTED BY IDOCK:   -6.61 KCAL/MOL
REMARK 924 INTRA-LIGAND FREE ENERGY PREDICTED BY IDOCK:   -1.01 KCAL/MOL
REMARK 927      BINDING AFFINITY PREDICTED BY RF-SCORE:    0.00 PKD
ROOT
HETATM    1  C   UNL     1      -7.400   8.199  63.914  1.00  0.00    -0.101 C  
HETATM    2  O   UNL     1      -8.218   7.680  64.955  1.00  0.00    -0.137 OA 
ENDROOT
BRANCH   2   3
HETATM    3  C   UNL     1      -8.873   8.712  65.689  1.00  0.00    -0.187 C  
BRANCH   3   4
HETATM    4  C   UNL     1      -8.307  10.064  65.270  1.00  0.00    -0.157 C  
BRANCH   4   5
HETATM    5  C   UNL     1      -9.398  11.002  64.755  1.00  0.00    -0.209 C  
BRANCH   5   6
HETATM    6  O   UNL     1     -10.599  10.777  65.510  1.00  0.00    -0.223 OA 
BRANCH   6   7
HETATM    7  C   UNL     1     -11.217  11.915  65.974  1.00  0.00    -0.324 A  
HETATM    8  C   UNL     1     -11.278  12.101  67.369  1.00  0.00    -0.362 A  
HETATM    9  C   UNL     1     -10.779  11.029  68.297  1.00  0.00    -0.235 C  
HETATM   10  C   UNL     1     -11.774  13.328  67.844  1.00  0.00    -0.357 A  
HETATM   11  C   UNL     1     -11.781  12.862  65.124  1.00  0.00    -0.385 A  
HETATM   12  N   UNL     1     -12.275  14.276  67.001  1.00  0.00    -0.390 NA 
HETATM   13  C   UNL     1     -12.303  14.009  65.680  1.00  0.00    -0.479 A  
BRANCH  10  14
HETATM   14  C   UNL     1     -11.691  13.755  69.297  1.00  0.00    -0.327 C  
BRANCH  14  15
HETATM   15  S   UNL     1     -11.618  15.555  69.461  1.00  0.00    -0.375 S  
HETATM   16  O   UNL     1     -11.487  16.011  70.885  1.00  0.00    -0.378 OA 
BRANCH  15  17
HETATM   17  C   UNL     1     -10.086  15.881  68.712  1.00  0.00    -0.221 A  
HETATM   18  N   UNL     1      -9.899  16.281  67.473  1.00  0.00    -0.236 NA 
HETATM   19  C   UNL     1      -8.546  16.514  67.369  1.00  0.00    -0.178 A  
HETATM   20  H   UNL     1     -10.605  16.395  66.745  1.00  0.00     0.000 HD 
HETATM   21  C   UNL     1      -7.793  16.959  66.271  1.00  0.00    -0.346 A  
HETATM   22  C   UNL     1      -6.420  17.182  66.441  1.00  0.00    -0.236 A  
HETATM   23  C   UNL     1      -5.806  16.966  67.677  1.00  0.00    -0.159 A  
HETATM   24  C   UNL     1      -6.535  16.496  68.777  1.00  0.00    -0.152 A  
HETATM   25  C   UNL     1      -7.900  16.271  68.578  1.00  0.00    -0.192 A  
HETATM   26  N   UNL     1      -8.898  15.810  69.399  1.00  0.00    -0.260 NA 
ENDBRANCH  15  17
ENDBRANCH  14  15
ENDBRANCH  10  14
ENDBRANCH   6   7
ENDBRANCH   5   6
ENDBRANCH   4   5
ENDBRANCH   3   4
ENDBRANCH   2   3
TORSDOF 8
ENDMDL
MODEL      127
REMARK 921   NORMALIZED FREE ENERGY PREDICTED BY IDOCK:   -4.59 KCAL/MOL
REMARK 922        TOTAL FREE ENERGY PREDICTED BY IDOCK:   -7.61 KCAL/MOL
REMARK 923 INTER-LIGAND FREE ENERGY PREDICTED BY IDOCK:   -6.47 KCAL/MOL
REMARK 924 INTRA-LIGAND FREE ENERGY PREDICTED BY IDOCK:   -1.14 KCAL/MOL
REMARK 927      BINDING AFFINITY PREDICTED BY RF-SCORE:    0.00 PKD
ROOT
HETATM    1  C   UNL     1      -9.609   3.200  72.391  1.00  0.00    -0.130 C  
HETATM    2  O   UNL     1     -10.619   4.198  72.317  1.00  0.00    -0.122 OA 
ENDROOT
BRANCH   2   3
HETATM    3  C   UNL     1     -10.186   5.348  71.592  1.00  0.00    -0.209 C  
BRANCH   3   4
HETATM    4  C   UNL     1     -11.403   6.127  71.110  1.00  0.00    -0.340 C  
BRANCH   4   5
HETATM    5  C   UNL     1     -12.103   6.856  72.258  1.00  0.00    -0.176 C  
BRANCH   5   6
HETATM    6  O   UNL     1     -11.357   8.040  72.580  1.00  0.00    -0.353 OA 
BRANCH   6   7
HETATM    7  C   UNL     1     -11.649   9.141  71.808  1.00  0.00    -0.387 A  
HETATM    8  C   UNL     1     -10.658   9.593  70.915  1.00  0.00    -0.386 A  
HETATM    9  C   UNL     1      -9.299   8.950  70.905  1.00  0.00    -0.295 C  
HETATM   10  C   UNL     1     -11.003  10.622  70.021  1.00  0.00    -0.259 A  
HETATM   11  C   UNL     1     -12.866   9.812  71.889  1.00  0.00    -0.520 A  
HETATM   12  N   UNL     1     -12.219  11.238  70.069  1.00  0.00    -0.318 NA 
HETATM   13  C   UNL     1     -13.097  10.851  71.016  1.00  0.00    -0.206 A  
BRANCH  10  14
HETATM   14  C   UNL     1     -10.122  11.053  68.864  1.00  0.00    -0.199 C  
BRANCH  14  15
HETATM   15  S   UNL     1     -10.872  10.654  67.267  1.00  0.00    -0.269 S  
HETATM   16  O   UNL     1     -10.244  11.394  66.122  1.00  0.00    -0.224 OA 
BRANCH  15  17
HETATM   17  C   UNL     1     -10.383   8.997  67.092  1.00  0.00    -0.272 A  
HETATM   18  N   UNL     1     -11.129   7.940  67.329  1.00  0.00    -0.423 NA 
HETATM   19  C   UNL     1     -10.362   6.863  66.946  1.00  0.00    -0.262 A  
HETATM   20  H   UNL     1     -12.074   7.922  67.715  1.00  0.00     0.000 HD 
HETATM   21  C   UNL     1     -10.661   5.492  66.978  1.00  0.00    -0.332 A  
HETATM   22  C   UNL     1      -9.724   4.586  66.463  1.00  0.00    -0.220 A  
HETATM   23  C   UNL     1      -8.512   5.033  65.929  1.00  0.00    -0.121 A  
HETATM   24  C   UNL     1      -8.185   6.394  65.914  1.00  0.00    -0.130 A  
HETATM   25  C   UNL     1      -9.132   7.276  66.444  1.00  0.00    -0.158 A  
HETATM   26  N   UNL     1      -9.150   8.639  66.605  1.00  0.00    -0.155 NA 
ENDBRANCH  15  17
ENDBRANCH  14  15
ENDBRANCH  10  14
ENDBRANCH   6   7
ENDBRANCH   5   6
ENDBRANCH   4   5
ENDBRANCH   3   4
ENDBRANCH   2   3
TORSDOF 8
ENDMDL
MODEL      128
REMARK 921   NORMALIZED FREE ENERGY PREDICTED BY IDOCK:   -4.57 KCAL/MOL
REMARK 922        TOTAL FREE ENERGY PREDICTED BY IDOCK:   -7.59 KCAL/MOL
REMARK 923 INTER-LIGAND FREE ENERGY PREDICTED BY IDOCK:   -6.91 KCAL/MOL
REMARK 924 INTRA-LIGAND FREE ENERGY PREDICTED BY IDOCK:   -0.67 KCAL/MOL
REMARK 927      BINDING AFFINITY PREDICTED BY RF-SCORE:    0.00 PKD
ROOT
HETATM    1  C   UNL     1     -12.332  13.913  66.705  1.00  0.00    -0.330 C  
HETATM    2  O   UNL     1     -11.882  14.888  65.773  1.00  0.00    -0.257 OA 
ENDROOT
BRANCH   2   3
HETATM    3  C   UNL     1     -12.143  14.502  64.425  1.00  0.00    -0.472 C  
BRANCH   3   4
HETATM    4  C   UNL     1     -12.365  12.995  64.366  1.00  0.00    -0.442 C  
BRANCH   4   5
HETATM    5  C   UNL     1     -11.415  12.318  63.379  1.00  0.00    -0.430 C  
BRANCH   5   6
HETATM    6  O   UNL     1     -10.072  12.432  63.875  1.00  0.00    -0.376 OA 
BRANCH   6   7
HETATM    7  C   UNL     1      -9.670  11.414  64.708  1.00  0.00    -0.244 A  
HETATM    8  C   UNL     1      -9.322  11.752  66.030  1.00  0.00    -0.231 A  
HETATM    9  C   UNL     1      -9.290  13.193  66.459  1.00  0.00    -0.222 C  
HETATM   10  C   UNL     1      -9.054  10.701  66.925  1.00  0.00    -0.155 A  
HETATM   11  C   UNL     1      -9.590  10.088  64.289  1.00  0.00    -0.301 A  
HETATM   12  N   UNL     1      -9.031   9.400  66.520  1.00  0.00    -0.144 NA 
HETATM   13  C   UNL     1      -9.258   9.129  65.219  1.00  0.00    -0.179 A  
BRANCH  10  14
HETATM   14  C   UNL     1      -8.887  10.900  68.420  1.00  0.00    -0.147 C  
BRANCH  14  15
HETATM   15  S   UNL     1     -10.484  11.025  69.260  1.00  0.00    -0.133 S  
HETATM   16  O   UNL     1     -11.651  10.833  68.335  1.00  0.00    -0.350 OA 
BRANCH  15  17
HETATM   17  C   UNL     1     -10.429   9.608  70.261  1.00  0.00    -0.283 A  
HETATM   18  N   UNL     1     -10.850   9.521  71.504  1.00  0.00    -0.330 NA 
HETATM   19  C   UNL     1     -10.708   8.194  71.842  1.00  0.00    -0.265 A  
HETATM   20  H   UNL     1     -11.204  10.276  72.093  1.00  0.00     0.000 HD 
HETATM   21  C   UNL     1     -11.006   7.537  73.045  1.00  0.00    -0.443 A  
HETATM   22  C   UNL     1     -10.832   6.148  73.117  1.00  0.00    -0.279 A  
HETATM   23  C   UNL     1     -10.369   5.426  72.014  1.00  0.00    -0.268 A  
HETATM   24  C   UNL     1     -10.041   6.067  70.813  1.00  0.00    -0.248 A  
HETATM   25  C   UNL     1     -10.213   7.454  70.772  1.00  0.00    -0.197 A  
HETATM   26  N   UNL     1      -9.987   8.393  69.797  1.00  0.00    -0.188 NA 
ENDBRANCH  15  17
ENDBRANCH  14  15
ENDBRANCH  10  14
ENDBRANCH   6   7
ENDBRANCH   5   6
ENDBRANCH   4   5
ENDBRANCH   3   4
ENDBRANCH   2   3
TORSDOF 8
ENDMDL
MODEL      129
REMARK 921   NORMALIZED FREE ENERGY PREDICTED BY IDOCK:   -4.57 KCAL/MOL
REMARK 922        TOTAL FREE ENERGY PREDICTED BY IDOCK:   -7.59 KCAL/MOL
REMARK 923 INTER-LIGAND FREE ENERGY PREDICTED BY IDOCK:   -7.03 KCAL/MOL
REMARK 924 INTRA-LIGAND FREE ENERGY PREDICTED BY IDOCK:   -0.55 KCAL/MOL
REMARK 927      BINDING AFFINITY PREDICTED BY RF-SCORE:    0.00 PKD
ROOT
HETATM    1  C   UNL     1     -11.772   8.196  72.379  1.00  0.00    -0.399 C  
HETATM    2  O   UNL     1     -11.115   7.051  72.908  1.00  0.00    -0.282 OA 
ENDROOT
BRANCH   2   3
HETATM    3  C   UNL     1     -11.622   5.838  72.354  1.00  0.00    -0.264 C  
BRANCH   3   4
HETATM    4  C   UNL     1     -10.457   4.938  71.962  1.00  0.00    -0.245 C  
BRANCH   4   5
HETATM    5  C   UNL     1     -10.192   4.971  70.457  1.00  0.00    -0.246 C  
BRANCH   5   6
HETATM    6  O   UNL     1      -8.829   5.363  70.233  1.00  0.00    -0.124 OA 
BRANCH   6   7
HETATM    7  C   UNL     1      -8.523   6.650  70.610  1.00  0.00    -0.138 A  
HETATM    8  C   UNL     1      -8.824   7.684  69.702  1.00  0.00    -0.140 A  
HETATM    9  C   UNL     1      -9.355   7.359  68.334  1.00  0.00    -0.144 C  
HETATM   10  C   UNL     1      -8.652   9.010  70.140  1.00  0.00    -0.160 A  
HETATM   11  C   UNL     1      -7.929   6.953  71.832  1.00  0.00    -0.099 A  
HETATM   12  N   UNL     1      -8.120   9.300  71.362  1.00  0.00    -0.313 NA 
HETATM   13  C   UNL     1      -7.739   8.278  72.154  1.00  0.00    -0.124 A  
BRANCH  10  14
HETATM   14  C   UNL     1      -9.142  10.216  69.362  1.00  0.00    -0.203 C  
BRANCH  14  15
HETATM   15  S   UNL     1     -10.948  10.317  69.353  1.00  0.00    -0.261 S  
HETATM   16  O   UNL     1     -11.486  11.315  70.337  1.00  0.00    -0.271 OA 
BRANCH  15  17
HETATM   17  C   UNL     1     -11.221  11.000  67.781  1.00  0.00    -0.308 A  
HETATM   18  N   UNL     1     -11.987  12.034  67.507  1.00  0.00    -0.578 NA 
HETATM   19  C   UNL     1     -11.804  12.274  66.164  1.00  0.00    -0.329 A  
HETATM   20  H   UNL     1     -12.589  12.547  68.152  1.00  0.00     0.000 HD 
HETATM   21  C   UNL     1     -12.373  13.260  65.343  1.00  0.00    -0.528 A  
HETATM   22  C   UNL     1     -11.969  13.337  64.003  1.00  0.00    -0.525 A  
HETATM   23  C   UNL     1     -11.019  12.451  63.489  1.00  0.00    -0.506 A  
HETATM   24  C   UNL     1     -10.461  11.443  64.285  1.00  0.00    -0.401 A  
HETATM   25  C   UNL     1     -10.889  11.381  65.615  1.00  0.00    -0.218 A  
HETATM   26  N   UNL     1     -10.580  10.542  66.655  1.00  0.00    -0.226 NA 
ENDBRANCH  15  17
ENDBRANCH  14  15
ENDBRANCH  10  14
ENDBRANCH   6   7
ENDBRANCH   5   6
ENDBRANCH   4   5
ENDBRANCH   3   4
ENDBRANCH   2   3
TORSDOF 8
ENDMDL
MODEL      130
REMARK 921   NORMALIZED FREE ENERGY PREDICTED BY IDOCK:   -4.56 KCAL/MOL
REMARK 922        TOTAL FREE ENERGY PREDICTED BY IDOCK:   -7.56 KCAL/MOL
REMARK 923 INTER-LIGAND FREE ENERGY PREDICTED BY IDOCK:   -6.34 KCAL/MOL
REMARK 924 INTRA-LIGAND FREE ENERGY PREDICTED BY IDOCK:   -1.22 KCAL/MOL
REMARK 927      BINDING AFFINITY PREDICTED BY RF-SCORE:    0.00 PKD
ROOT
HETATM    1  C   UNL     1     -12.034  13.325  68.556  1.00  0.00    -0.304 C  
HETATM    2  O   UNL     1     -11.832  14.419  67.670  1.00  0.00    -0.369 OA 
ENDROOT
BRANCH   2   3
HETATM    3  C   UNL     1     -12.175  14.090  66.325  1.00  0.00    -0.462 C  
BRANCH   3   4
HETATM    4  C   UNL     1     -12.104  12.579  66.143  1.00  0.00    -0.357 C  
BRANCH   4   5
HETATM    5  C   UNL     1     -11.051  12.179  65.110  1.00  0.00    -0.322 C  
BRANCH   5   6
HETATM    6  O   UNL     1      -9.805  11.941  65.783  1.00  0.00    -0.230 OA 
BRANCH   6   7
HETATM    7  C   UNL     1      -9.721  10.738  66.446  1.00  0.00    -0.199 A  
HETATM    8  C   UNL     1      -9.200  10.749  67.754  1.00  0.00    -0.155 A  
HETATM    9  C   UNL     1      -8.658  12.022  68.341  1.00  0.00    -0.147 C  
HETATM   10  C   UNL     1      -9.249   9.551  68.488  1.00  0.00    -0.131 A  
HETATM   11  C   UNL     1     -10.119   9.535  65.869  1.00  0.00    -0.284 A  
HETATM   12  N   UNL     1      -9.691   8.386  67.933  1.00  0.00    -0.153 NA 
HETATM   13  C   UNL     1     -10.074   8.396  66.641  1.00  0.00    -0.288 A  
BRANCH  10  14
HETATM   14  C   UNL     1      -8.935   9.466  69.969  1.00  0.00    -0.212 C  
BRANCH  14  15
HETATM   15  S   UNL     1     -10.439   9.321  70.964  1.00  0.00    -0.329 S  
HETATM   16  O   UNL     1     -11.689   9.609  70.185  1.00  0.00    -0.202 OA 
BRANCH  15  17
HETATM   17  C   UNL     1     -10.451   7.613  71.274  1.00  0.00    -0.206 A  
HETATM   18  N   UNL     1      -9.913   6.683  70.514  1.00  0.00    -0.179 NA 
HETATM   19  C   UNL     1     -10.074   5.508  71.212  1.00  0.00    -0.207 A  
HETATM   20  H   UNL     1      -9.473   6.807  69.602  1.00  0.00     0.000 HD 
HETATM   21  C   UNL     1      -9.685   4.202  70.874  1.00  0.00    -0.259 A  
HETATM   22  C   UNL     1      -9.907   3.172  71.797  1.00  0.00    -0.229 A  
HETATM   23  C   UNL     1     -10.506   3.433  73.032  1.00  0.00    -0.253 A  
HETATM   24  C   UNL     1     -10.926   4.723  73.377  1.00  0.00    -0.396 A  
HETATM   25  C   UNL     1     -10.703   5.731  72.433  1.00  0.00    -0.235 A  
HETATM   26  N   UNL     1     -10.986   7.074  72.419  1.00  0.00    -0.237 NA 
ENDBRANCH  15  17
ENDBRANCH  14  15
ENDBRANCH  10  14
ENDBRANCH   6   7
ENDBRANCH   5   6
ENDBRANCH   4   5
ENDBRANCH   3   4
ENDBRANCH   2   3
TORSDOF 8
ENDMDL
MODEL      131
REMARK 921   NORMALIZED FREE ENERGY PREDICTED BY IDOCK:   -4.55 KCAL/MOL
REMARK 922        TOTAL FREE ENERGY PREDICTED BY IDOCK:   -7.55 KCAL/MOL
REMARK 923 INTER-LIGAND FREE ENERGY PREDICTED BY IDOCK:   -6.21 KCAL/MOL
REMARK 924 INTRA-LIGAND FREE ENERGY PREDICTED BY IDOCK:   -1.34 KCAL/MOL
REMARK 927      BINDING AFFINITY PREDICTED BY RF-SCORE:    0.00 PKD
ROOT
HETATM    1  C   UNL     1     -13.487  13.704  71.456  1.00  0.00    -0.260 C  
HETATM    2  O   UNL     1     -12.240  14.312  71.143  1.00  0.00    -0.328 OA 
ENDROOT
BRANCH   2   3
HETATM    3  C   UNL     1     -11.492  13.549  70.198  1.00  0.00    -0.013 C  
BRANCH   3   4
HETATM    4  C   UNL     1     -12.371  13.242  68.992  1.00  0.00     0.020 C  
BRANCH   4   5
HETATM    5  C   UNL     1     -11.582  13.297  67.684  1.00  0.00    -0.346 C  
BRANCH   5   6
HETATM    6  O   UNL     1     -10.539  14.276  67.812  1.00  0.00    -0.249 OA 
BRANCH   6   7
HETATM    7  C   UNL     1     -10.655  15.364  66.977  1.00  0.00    -0.309 A  
HETATM    8  C   UNL     1     -10.545  16.644  67.555  1.00  0.00    -0.311 A  
HETATM    9  C   UNL     1     -10.419  16.792  69.045  1.00  0.00    -0.336 C  
HETATM   10  C   UNL     1     -10.515  17.751  66.689  1.00  0.00    -0.300 A  
HETATM   11  C   UNL     1     -10.883  15.239  65.609  1.00  0.00    -0.371 A  
HETATM   12  N   UNL     1     -10.684  17.616  65.343  1.00  0.00    -0.579 NA 
HETATM   13  C   UNL     1     -10.901  16.383  64.844  1.00  0.00    -0.250 A  
BRANCH  10  14
HETATM   14  C   UNL     1     -10.178  19.158  67.145  1.00  0.00    -0.401 C  
BRANCH  14  15
HETATM   15  S   UNL     1      -8.512  19.646  66.637  1.00  0.00    -0.340 S  
HETATM   16  O   UNL     1      -8.073  20.950  67.236  1.00  0.00    -0.285 OA 
BRANCH  15  17
HETATM   17  C   UNL     1      -7.569  18.417  67.419  1.00  0.00    -0.218 A  
HETATM   18  N   UNL     1      -7.224  18.396  68.689  1.00  0.00    -0.279 NA 
HETATM   19  C   UNL     1      -6.587  17.189  68.870  1.00  0.00    -0.199 A  
HETATM   20  H   UNL     1      -7.392  19.119  69.388  1.00  0.00     0.000 HD 
HETATM   21  C   UNL     1      -6.017  16.640  70.029  1.00  0.00    -0.187 A  
HETATM   22  C   UNL     1      -5.479  15.347  69.969  1.00  0.00    -0.123 A  
HETATM   23  C   UNL     1      -5.505  14.615  68.779  1.00  0.00    -0.088 A  
HETATM   24  C   UNL     1      -6.044  15.156  67.606  1.00  0.00    -0.127 A  
HETATM   25  C   UNL     1      -6.564  16.451  67.690  1.00  0.00    -0.148 A  
HETATM   26  N   UNL     1      -7.144  17.285  66.767  1.00  0.00    -0.188 NA 
ENDBRANCH  15  17
ENDBRANCH  14  15
ENDBRANCH  10  14
ENDBRANCH   6   7
ENDBRANCH   5   6
ENDBRANCH   4   5
ENDBRANCH   3   4
ENDBRANCH   2   3
TORSDOF 8
ENDMDL
MODEL      132
REMARK 921   NORMALIZED FREE ENERGY PREDICTED BY IDOCK:   -4.54 KCAL/MOL
REMARK 922        TOTAL FREE ENERGY PREDICTED BY IDOCK:   -7.54 KCAL/MOL
REMARK 923 INTER-LIGAND FREE ENERGY PREDICTED BY IDOCK:   -6.52 KCAL/MOL
REMARK 924 INTRA-LIGAND FREE ENERGY PREDICTED BY IDOCK:   -1.01 KCAL/MOL
REMARK 927      BINDING AFFINITY PREDICTED BY RF-SCORE:    0.00 PKD
ROOT
HETATM    1  C   UNL     1     -13.694   9.243  72.363  1.00  0.00    -0.452 C  
HETATM    2  O   UNL     1     -14.183   8.118  71.643  1.00  0.00    -0.409 OA 
ENDROOT
BRANCH   2   3
HETATM    3  C   UNL     1     -13.191   7.104  71.493  1.00  0.00    -0.360 C  
BRANCH   3   4
HETATM    4  C   UNL     1     -11.931   7.518  72.244  1.00  0.00    -0.303 C  
BRANCH   4   5
HETATM    5  C   UNL     1     -10.733   6.645  71.871  1.00  0.00    -0.223 C  
BRANCH   5   6
HETATM    6  O   UNL     1     -10.796   6.347  70.467  1.00  0.00    -0.241 OA 
BRANCH   6   7
HETATM    7  C   UNL     1      -9.631   6.574  69.771  1.00  0.00    -0.152 A  
HETATM    8  C   UNL     1      -9.559   7.738  68.982  1.00  0.00    -0.155 A  
HETATM    9  C   UNL     1     -10.763   8.626  68.833  1.00  0.00    -0.109 C  
HETATM   10  C   UNL     1      -8.323   8.051  68.389  1.00  0.00    -0.127 A  
HETATM   11  C   UNL     1      -8.548   5.699  69.815  1.00  0.00    -0.121 A  
HETATM   12  N   UNL     1      -7.249   7.215  68.482  1.00  0.00    -0.091 NA 
HETATM   13  C   UNL     1      -7.396   6.055  69.151  1.00  0.00    -0.084 A  
BRANCH  10  14
HETATM   14  C   UNL     1      -8.037   9.374  67.704  1.00  0.00    -0.106 C  
BRANCH  14  15
HETATM   15  S   UNL     1      -8.192   9.244  65.907  1.00  0.00    -0.119 S  
HETATM   16  O   UNL     1      -8.692   7.903  65.456  1.00  0.00    -0.148 OA 
BRANCH  15  17
HETATM   17  C   UNL     1      -9.490  10.360  65.619  1.00  0.00    -0.211 A  
HETATM   18  N   UNL     1     -10.049  11.147  66.513  1.00  0.00    -0.216 NA 
HETATM   19  C   UNL     1     -10.942  11.921  65.807  1.00  0.00    -0.311 A  
HETATM   20  H   UNL     1      -9.860  11.177  67.516  1.00  0.00     0.000 HD 
HETATM   21  C   UNL     1     -11.806  12.931  66.256  1.00  0.00    -0.477 A  
HETATM   22  C   UNL     1     -12.579  13.625  65.316  1.00  0.00    -0.512 A  
HETATM   23  C   UNL     1     -12.497  13.320  63.955  1.00  0.00    -0.331 A  
HETATM   24  C   UNL     1     -11.661  12.297  63.490  1.00  0.00    -0.584 A  
HETATM   25  C   UNL     1     -10.909  11.613  64.450  1.00  0.00    -0.339 A  
HETATM   26  N   UNL     1     -10.018  10.572  64.369  1.00  0.00    -0.342 NA 
ENDBRANCH  15  17
ENDBRANCH  14  15
ENDBRANCH  10  14
ENDBRANCH   6   7
ENDBRANCH   5   6
ENDBRANCH   4   5
ENDBRANCH   3   4
ENDBRANCH   2   3
TORSDOF 8
ENDMDL
MODEL      133
REMARK 921   NORMALIZED FREE ENERGY PREDICTED BY IDOCK:   -4.52 KCAL/MOL
REMARK 922        TOTAL FREE ENERGY PREDICTED BY IDOCK:   -7.51 KCAL/MOL
REMARK 923 INTER-LIGAND FREE ENERGY PREDICTED BY IDOCK:   -6.49 KCAL/MOL
REMARK 924 INTRA-LIGAND FREE ENERGY PREDICTED BY IDOCK:   -1.03 KCAL/MOL
REMARK 927      BINDING AFFINITY PREDICTED BY RF-SCORE:    0.00 PKD
ROOT
HETATM    1  C   UNL     1     -11.967  14.957  64.303  1.00  0.00    -0.338 C  
HETATM    2  O   UNL     1     -11.701  13.836  65.137  1.00  0.00    -0.323 OA 
ENDROOT
BRANCH   2   3
HETATM    3  C   UNL     1     -12.586  12.749  64.873  1.00  0.00    -0.470 C  
BRANCH   3   4
HETATM    4  C   UNL     1     -12.223  12.118  63.535  1.00  0.00    -0.670 C  
BRANCH   4   5
HETATM    5  C   UNL     1     -10.791  11.585  63.527  1.00  0.00    -0.398 C  
BRANCH   5   6
HETATM    6  O   UNL     1     -10.595  10.762  64.688  1.00  0.00    -0.328 OA 
BRANCH   6   7
HETATM    7  C   UNL     1      -9.301  10.710  65.153  1.00  0.00    -0.212 A  
HETATM    8  C   UNL     1      -9.054  11.201  66.449  1.00  0.00    -0.198 A  
HETATM    9  C   UNL     1     -10.156  11.857  67.232  1.00  0.00    -0.213 C  
HETATM   10  C   UNL     1      -7.767  11.015  66.985  1.00  0.00    -0.134 A  
HETATM   11  C   UNL     1      -8.250  10.204  64.392  1.00  0.00    -0.165 A  
HETATM   12  N   UNL     1      -6.755  10.468  66.252  1.00  0.00    -0.114 NA 
HETATM   13  C   UNL     1      -7.006  10.116  64.975  1.00  0.00    -0.135 A  
BRANCH  10  14
HETATM   14  C   UNL     1      -7.420  11.287  68.436  1.00  0.00    -0.108 C  
BRANCH  14  15
HETATM   15  S   UNL     1      -6.457  12.808  68.619  1.00  0.00    -0.086 S  
HETATM   16  O   UNL     1      -5.449  13.000  67.524  1.00  0.00    -0.237 OA 
BRANCH  15  17
HETATM   17  C   UNL     1      -7.690  13.999  68.349  1.00  0.00    -0.138 A  
HETATM   18  N   UNL     1      -8.453  14.548  69.270  1.00  0.00    -0.370 NA 
HETATM   19  C   UNL     1      -9.190  15.503  68.607  1.00  0.00    -0.202 A  
HETATM   20  H   UNL     1      -8.491  14.314  70.262  1.00  0.00     0.000 HD 
HETATM   21  C   UNL     1     -10.159  16.391  69.100  1.00  0.00    -0.278 A  
HETATM   22  C   UNL     1     -10.725  17.326  68.223  1.00  0.00    -0.349 A  
HETATM   23  C   UNL     1     -10.337  17.377  66.881  1.00  0.00    -0.317 A  
HETATM   24  C   UNL     1      -9.391  16.482  66.365  1.00  0.00    -0.316 A  
HETATM   25  C   UNL     1      -8.850  15.552  67.258  1.00  0.00    -0.201 A  
HETATM   26  N   UNL     1      -7.935  14.541  67.110  1.00  0.00    -0.184 NA 
ENDBRANCH  15  17
ENDBRANCH  14  15
ENDBRANCH  10  14
ENDBRANCH   6   7
ENDBRANCH   5   6
ENDBRANCH   4   5
ENDBRANCH   3   4
ENDBRANCH   2   3
TORSDOF 8
ENDMDL
MODEL      134
REMARK 921   NORMALIZED FREE ENERGY PREDICTED BY IDOCK:   -4.49 KCAL/MOL
REMARK 922        TOTAL FREE ENERGY PREDICTED BY IDOCK:   -7.47 KCAL/MOL
REMARK 923 INTER-LIGAND FREE ENERGY PREDICTED BY IDOCK:   -6.54 KCAL/MOL
REMARK 924 INTRA-LIGAND FREE ENERGY PREDICTED BY IDOCK:   -0.93 KCAL/MOL
REMARK 927      BINDING AFFINITY PREDICTED BY RF-SCORE:    0.00 PKD
ROOT
HETATM    1  C   UNL     1     -10.651  17.161  65.375  1.00  0.00    -0.104 C  
HETATM    2  O   UNL     1     -11.231  16.710  64.157  1.00  0.00    -1.103 OA 
ENDROOT
BRANCH   2   3
HETATM    3  C   UNL     1     -12.030  15.543  64.343  1.00  0.00    -0.183 C  
BRANCH   3   4
HETATM    4  C   UNL     1     -11.158  14.417  64.884  1.00  0.00    -0.404 C  
BRANCH   4   5
HETATM    5  C   UNL     1     -11.778  13.760  66.117  1.00  0.00    -0.370 C  
BRANCH   5   6
HETATM    6  O   UNL     1     -10.791  13.702  67.159  1.00  0.00    -0.281 OA 
BRANCH   6   7
HETATM    7  C   UNL     1     -10.884  12.610  67.990  1.00  0.00    -0.225 A  
HETATM    8  C   UNL     1      -9.906  11.604  67.857  1.00  0.00    -0.189 A  
HETATM    9  C   UNL     1      -8.876  11.690  66.766  1.00  0.00    -0.184 C  
HETATM   10  C   UNL     1      -9.910  10.561  68.800  1.00  0.00    -0.186 A  
HETATM   11  C   UNL     1     -11.900  12.468  68.931  1.00  0.00    -0.346 A  
HETATM   12  N   UNL     1     -10.878  10.457  69.755  1.00  0.00    -0.274 NA 
HETATM   13  C   UNL     1     -11.861  11.380  69.774  1.00  0.00    -0.364 A  
BRANCH  10  14
HETATM   14  C   UNL     1      -8.794   9.539  68.918  1.00  0.00    -0.137 C  
BRANCH  14  15
HETATM   15  S   UNL     1      -9.361   7.878  68.481  1.00  0.00    -0.141 S  
HETATM   16  O   UNL     1      -8.316   7.071  67.766  1.00  0.00    -0.116 OA 
BRANCH  15  17
HETATM   17  C   UNL     1      -9.516   7.170  70.058  1.00  0.00    -0.164 A  
HETATM   18  N   UNL     1      -9.580   7.824  71.198  1.00  0.00    -0.158 NA 
HETATM   19  C   UNL     1      -9.811   6.861  72.154  1.00  0.00    -0.147 A  
HETATM   20  H   UNL     1      -9.479   8.829  71.342  1.00  0.00     0.000 HD 
HETATM   21  C   UNL     1      -9.970   6.994  73.542  1.00  0.00    -0.321 A  
HETATM   22  C   UNL     1     -10.266   5.853  74.300  1.00  0.00    -0.299 A  
HETATM   23  C   UNL     1     -10.400   4.602  73.690  1.00  0.00    -0.249 A  
HETATM   24  C   UNL     1     -10.218   4.445  72.311  1.00  0.00    -0.255 A  
HETATM   25  C   UNL     1      -9.913   5.597  71.580  1.00  0.00    -0.180 A  
HETATM   26  N   UNL     1      -9.660   5.817  70.249  1.00  0.00    -0.160 NA 
ENDBRANCH  15  17
ENDBRANCH  14  15
ENDBRANCH  10  14
ENDBRANCH   6   7
ENDBRANCH   5   6
ENDBRANCH   4   5
ENDBRANCH   3   4
ENDBRANCH   2   3
TORSDOF 8
ENDMDL
MODEL      135
REMARK 921   NORMALIZED FREE ENERGY PREDICTED BY IDOCK:   -4.48 KCAL/MOL
REMARK 922        TOTAL FREE ENERGY PREDICTED BY IDOCK:   -7.45 KCAL/MOL
REMARK 923 INTER-LIGAND FREE ENERGY PREDICTED BY IDOCK:   -6.76 KCAL/MOL
REMARK 924 INTRA-LIGAND FREE ENERGY PREDICTED BY IDOCK:   -0.70 KCAL/MOL
REMARK 927      BINDING AFFINITY PREDICTED BY RF-SCORE:    0.00 PKD
ROOT
HETATM    1  C   UNL     1      -8.950  19.056  68.431  1.00  0.00    -0.338 C  
HETATM    2  O   UNL     1      -8.407  17.864  67.877  1.00  0.00    -0.237 OA 
ENDROOT
BRANCH   2   3
HETATM    3  C   UNL     1      -7.444  17.261  68.738  1.00  0.00    -0.260 C  
BRANCH   3   4
HETATM    4  C   UNL     1      -7.766  15.780  68.895  1.00  0.00    -0.186 C  
BRANCH   4   5
HETATM    5  C   UNL     1      -9.211  15.556  69.339  1.00  0.00    -0.280 C  
BRANCH   5   6
HETATM    6  O   UNL     1      -9.906  14.833  68.312  1.00  0.00    -0.211 OA 
BRANCH   6   7
HETATM    7  C   UNL     1      -9.946  13.468  68.485  1.00  0.00    -0.202 A  
HETATM    8  C   UNL     1     -11.064  12.928  69.152  1.00  0.00    -0.245 A  
HETATM    9  C   UNL     1     -12.105  13.838  69.741  1.00  0.00    -0.400 C  
HETATM   10  C   UNL     1     -11.182  11.528  69.201  1.00  0.00    -0.274 A  
HETATM   11  C   UNL     1      -8.932  12.625  68.039  1.00  0.00    -0.200 A  
HETATM   12  N   UNL     1     -10.209  10.707  68.713  1.00  0.00    -0.181 NA 
HETATM   13  C   UNL     1      -9.102  11.267  68.185  1.00  0.00    -0.166 A  
BRANCH  10  14
HETATM   14  C   UNL     1     -12.430  10.813  69.682  1.00  0.00    -0.097 C  
BRANCH  14  15
HETATM   15  S   UNL     1     -12.320  10.386  71.437  1.00  0.00    -0.387 S  
HETATM   16  O   UNL     1     -13.653  10.395  72.128  1.00  0.00    -0.324 OA 
BRANCH  15  17
HETATM   17  C   UNL     1     -11.849   8.719  71.330  1.00  0.00    -0.303 A  
HETATM   18  N   UNL     1     -11.549   8.068  70.226  1.00  0.00    -0.471 NA 
HETATM   19  C   UNL     1     -11.132   6.823  70.643  1.00  0.00    -0.291 A  
HETATM   20  H   UNL     1     -11.613   8.411  69.267  1.00  0.00     0.000 HD 
HETATM   21  C   UNL     1     -10.692   5.725  69.888  1.00  0.00    -0.412 A  
HETATM   22  C   UNL     1     -10.253   4.576  70.561  1.00  0.00    -0.152 A  
HETATM   23  C   UNL     1     -10.254   4.520  71.957  1.00  0.00    -0.251 A  
HETATM   24  C   UNL     1     -10.715   5.595  72.727  1.00  0.00    -0.283 A  
HETATM   25  C   UNL     1     -11.157   6.724  72.030  1.00  0.00    -0.250 A  
HETATM   26  N   UNL     1     -11.676   7.927  72.439  1.00  0.00    -0.355 NA 
ENDBRANCH  15  17
ENDBRANCH  14  15
ENDBRANCH  10  14
ENDBRANCH   6   7
ENDBRANCH   5   6
ENDBRANCH   4   5
ENDBRANCH   3   4
ENDBRANCH   2   3
TORSDOF 8
ENDMDL
MODEL      136
REMARK 921   NORMALIZED FREE ENERGY PREDICTED BY IDOCK:   -4.48 KCAL/MOL
REMARK 922        TOTAL FREE ENERGY PREDICTED BY IDOCK:   -7.45 KCAL/MOL
REMARK 923 INTER-LIGAND FREE ENERGY PREDICTED BY IDOCK:   -6.79 KCAL/MOL
REMARK 924 INTRA-LIGAND FREE ENERGY PREDICTED BY IDOCK:   -0.66 KCAL/MOL
REMARK 927      BINDING AFFINITY PREDICTED BY RF-SCORE:    0.00 PKD
ROOT
HETATM    1  C   UNL     1     -12.618  15.350  74.040  1.00  0.00    -0.598 C  
HETATM    2  O   UNL     1     -12.229  16.057  72.868  1.00  0.00    -0.433 OA 
ENDROOT
BRANCH   2   3
HETATM    3  C   UNL     1     -11.726  15.185  71.858  1.00  0.00    -0.415 C  
BRANCH   3   4
HETATM    4  C   UNL     1     -12.389  13.820  71.995  1.00  0.00    -0.034 C  
BRANCH   4   5
HETATM    5  C   UNL     1     -12.440  13.075  70.661  1.00  0.00    -0.268 C  
BRANCH   5   6
HETATM    6  O   UNL     1     -12.055  11.709  70.877  1.00  0.00    -0.341 OA 
BRANCH   6   7
HETATM    7  C   UNL     1     -11.437  11.102  69.807  1.00  0.00    -0.312 A  
HETATM    8  C   UNL     1     -10.773   9.883  70.043  1.00  0.00    -0.338 A  
HETATM    9  C   UNL     1     -10.661   9.341  71.441  1.00  0.00    -0.432 C  
HETATM   10  C   UNL     1     -10.269   9.186  68.931  1.00  0.00    -0.207 A  
HETATM   11  C   UNL     1     -11.441  11.652  68.528  1.00  0.00    -0.358 A  
HETATM   12  N   UNL     1     -10.326   9.707  67.671  1.00  0.00    -0.221 NA 
HETATM   13  C   UNL     1     -10.868  10.930  67.506  1.00  0.00    -0.272 A  
BRANCH  10  14
HETATM   14  C   UNL     1      -9.735   7.769  69.005  1.00  0.00    -0.157 C  
BRANCH  14  15
HETATM   15  S   UNL     1     -11.059   6.546  68.852  1.00  0.00    -0.271 S  
HETATM   16  O   UNL     1     -10.874   5.622  67.684  1.00  0.00    -0.225 OA 
BRANCH  15  17
HETATM   17  C   UNL     1     -10.773   5.588  70.271  1.00  0.00    -0.263 A  
HETATM   18  N   UNL     1     -10.150   4.429  70.310  1.00  0.00    -0.181 NA 
HETATM   19  C   UNL     1     -10.065   4.109  71.646  1.00  0.00    -0.128 A  
HETATM   20  H   UNL     1      -9.805   3.884  69.519  1.00  0.00     0.000 HD 
HETATM   21  C   UNL     1      -9.497   2.986  72.266  1.00  0.00    -0.187 A  
HETATM   22  C   UNL     1      -9.479   2.925  73.666  1.00  0.00    -0.116 A  
HETATM   23  C   UNL     1     -10.018   3.959  74.435  1.00  0.00    -0.197 A  
HETATM   24  C   UNL     1     -10.614   5.075  73.835  1.00  0.00    -0.340 A  
HETATM   25  C   UNL     1     -10.628   5.106  72.437  1.00  0.00    -0.221 A  
HETATM   26  N   UNL     1     -11.125   6.007  71.530  1.00  0.00    -0.278 NA 
ENDBRANCH  15  17
ENDBRANCH  14  15
ENDBRANCH  10  14
ENDBRANCH   6   7
ENDBRANCH   5   6
ENDBRANCH   4   5
ENDBRANCH   3   4
ENDBRANCH   2   3
TORSDOF 8
ENDMDL
MODEL      137
REMARK 921   NORMALIZED FREE ENERGY PREDICTED BY IDOCK:   -4.46 KCAL/MOL
REMARK 922        TOTAL FREE ENERGY PREDICTED BY IDOCK:   -7.42 KCAL/MOL
REMARK 923 INTER-LIGAND FREE ENERGY PREDICTED BY IDOCK:   -6.73 KCAL/MOL
REMARK 924 INTRA-LIGAND FREE ENERGY PREDICTED BY IDOCK:   -0.70 KCAL/MOL
REMARK 927      BINDING AFFINITY PREDICTED BY RF-SCORE:    0.00 PKD
ROOT
HETATM    1  C   UNL     1     -12.444  15.345  74.236  1.00  0.00    -0.612 C  
HETATM    2  O   UNL     1     -12.235  16.532  73.480  1.00  0.00    -0.488 OA 
ENDROOT
BRANCH   2   3
HETATM    3  C   UNL     1     -11.706  16.256  72.184  1.00  0.00    -0.441 C  
BRANCH   3   4
HETATM    4  C   UNL     1     -12.605  15.249  71.478  1.00  0.00    -0.442 C  
BRANCH   4   5
HETATM    5  C   UNL     1     -12.508  15.368  69.957  1.00  0.00    -0.283 C  
BRANCH   5   6
HETATM    6  O   UNL     1     -12.402  14.050  69.394  1.00  0.00    -0.333 OA 
BRANCH   6   7
HETATM    7  C   UNL     1     -11.200  13.772  68.785  1.00  0.00    -0.271 A  
HETATM    8  C   UNL     1     -10.799  12.424  68.720  1.00  0.00    -0.263 A  
HETATM    9  C   UNL     1     -11.615  11.359  69.397  1.00  0.00    -0.391 C  
HETATM   10  C   UNL     1      -9.649  12.119  67.970  1.00  0.00    -0.204 A  
HETATM   11  C   UNL     1     -10.383  14.765  68.251  1.00  0.00    -0.238 A  
HETATM   12  N   UNL     1      -8.881  13.094  67.403  1.00  0.00    -0.194 NA 
HETATM   13  C   UNL     1      -9.239  14.380  67.587  1.00  0.00    -0.196 A  
BRANCH  10  14
HETATM   14  C   UNL     1      -9.226  10.703  67.628  1.00  0.00    -0.146 C  
BRANCH  14  15
HETATM   15  S   UNL     1      -9.886  10.178  66.027  1.00  0.00    -0.260 S  
HETATM   16  O   UNL     1      -9.011  10.574  64.873  1.00  0.00    -0.182 OA 
BRANCH  15  17
HETATM   17  C   UNL     1      -9.736   8.455  66.172  1.00  0.00    -0.153 A  
HETATM   18  N   UNL     1      -8.807   7.708  65.615  1.00  0.00    -0.341 NA 
HETATM   19  C   UNL     1      -9.026   6.438  66.098  1.00  0.00    -0.150 A  
HETATM   20  H   UNL     1      -8.080   8.007  64.963  1.00  0.00     0.000 HD 
HETATM   21  C   UNL     1      -8.330   5.247  65.840  1.00  0.00    -0.120 A  
HETATM   22  C   UNL     1      -8.714   4.081  66.516  1.00  0.00    -0.116 A  
HETATM   23  C   UNL     1      -9.770   4.098  67.432  1.00  0.00    -0.202 A  
HETATM   24  C   UNL     1     -10.493   5.271  67.683  1.00  0.00    -0.176 A  
HETATM   25  C   UNL     1     -10.097   6.417  66.986  1.00  0.00    -0.174 A  
HETATM   26  N   UNL     1     -10.568   7.705  66.967  1.00  0.00    -0.351 NA 
ENDBRANCH  15  17
ENDBRANCH  14  15
ENDBRANCH  10  14
ENDBRANCH   6   7
ENDBRANCH   5   6
ENDBRANCH   4   5
ENDBRANCH   3   4
ENDBRANCH   2   3
TORSDOF 8
ENDMDL
MODEL      138
REMARK 921   NORMALIZED FREE ENERGY PREDICTED BY IDOCK:   -4.44 KCAL/MOL
REMARK 922        TOTAL FREE ENERGY PREDICTED BY IDOCK:   -7.40 KCAL/MOL
REMARK 923 INTER-LIGAND FREE ENERGY PREDICTED BY IDOCK:   -6.44 KCAL/MOL
REMARK 924 INTRA-LIGAND FREE ENERGY PREDICTED BY IDOCK:   -0.96 KCAL/MOL
REMARK 927      BINDING AFFINITY PREDICTED BY RF-SCORE:    0.00 PKD
ROOT
HETATM    1  C   UNL     1      -9.817   5.025  68.391  1.00  0.00    -0.147 C  
HETATM    2  O   UNL     1      -8.735   4.254  67.882  1.00  0.00    -0.101 OA 
ENDROOT
BRANCH   2   3
HETATM    3  C   UNL     1      -8.633   2.984  68.522  1.00  0.00    -0.086 C  
BRANCH   3   4
HETATM    4  C   UNL     1      -9.090   3.112  69.970  1.00  0.00    -0.197 C  
BRANCH   4   5
HETATM    5  C   UNL     1      -7.909   3.278  70.927  1.00  0.00    -0.046 C  
BRANCH   5   6
HETATM    6  O   UNL     1      -8.344   4.022  72.076  1.00  0.00    -0.095 OA 
BRANCH   6   7
HETATM    7  C   UNL     1      -8.568   5.361  71.854  1.00  0.00    -0.131 A  
HETATM    8  C   UNL     1      -9.827   5.880  72.213  1.00  0.00    -0.182 A  
HETATM    9  C   UNL     1     -10.907   4.963  72.714  1.00  0.00    -0.293 C  
HETATM   10  C   UNL     1     -10.009   7.271  72.127  1.00  0.00    -0.165 A  
HETATM   11  C   UNL     1      -7.610   6.197  71.287  1.00  0.00    -0.094 A  
HETATM   12  N   UNL     1      -9.045   8.093  71.621  1.00  0.00    -0.149 NA 
HETATM   13  C   UNL     1      -7.897   7.540  71.182  1.00  0.00    -0.091 A  
BRANCH  10  14
HETATM   14  C   UNL     1     -11.222   7.990  72.686  1.00  0.00    -0.397 C  
BRANCH  14  15
HETATM   15  S   UNL     1     -12.480   8.265  71.416  1.00  0.00    -0.261 S  
HETATM   16  O   UNL     1     -13.858   7.866  71.858  1.00  0.00    -0.352 OA 
BRANCH  15  17
HETATM   17  C   UNL     1     -12.485   9.999  71.343  1.00  0.00    -0.411 A  
HETATM   18  N   UNL     1     -11.859  10.739  70.453  1.00  0.00    -0.329 NA 
HETATM   19  C   UNL     1     -12.243  12.033  70.725  1.00  0.00    -0.286 A  
HETATM   20  H   UNL     1     -11.225  10.422  69.719  1.00  0.00     0.000 HD 
HETATM   21  C   UNL     1     -11.881  13.229  70.086  1.00  0.00    -0.333 A  
HETATM   22  C   UNL     1     -12.467  14.428  70.516  1.00  0.00    -0.416 A  
HETATM   23  C   UNL     1     -13.393  14.437  71.562  1.00  0.00    -0.430 A  
HETATM   24  C   UNL     1     -13.746  13.258  72.230  1.00  0.00    -0.686 A  
HETATM   25  C   UNL     1     -13.138  12.078  71.789  1.00  0.00    -0.355 A  
HETATM   26  N   UNL     1     -13.227  10.773  72.202  1.00  0.00    -0.402 NA 
ENDBRANCH  15  17
ENDBRANCH  14  15
ENDBRANCH  10  14
ENDBRANCH   6   7
ENDBRANCH   5   6
ENDBRANCH   4   5
ENDBRANCH   3   4
ENDBRANCH   2   3
TORSDOF 8
ENDMDL
MODEL      139
REMARK 921   NORMALIZED FREE ENERGY PREDICTED BY IDOCK:   -4.44 KCAL/MOL
REMARK 922        TOTAL FREE ENERGY PREDICTED BY IDOCK:   -7.39 KCAL/MOL
REMARK 923 INTER-LIGAND FREE ENERGY PREDICTED BY IDOCK:   -7.05 KCAL/MOL
REMARK 924 INTRA-LIGAND FREE ENERGY PREDICTED BY IDOCK:   -0.35 KCAL/MOL
REMARK 927      BINDING AFFINITY PREDICTED BY RF-SCORE:    0.00 PKD
ROOT
HETATM    1  C   UNL     1      -6.321   9.494  66.559  1.00  0.00    -0.066 C  
HETATM    2  O   UNL     1      -6.160   8.236  67.203  1.00  0.00    -0.052 OA 
ENDROOT
BRANCH   2   3
HETATM    3  C   UNL     1      -7.304   7.877  67.974  1.00  0.00    -0.096 C  
BRANCH   3   4
HETATM    4  C   UNL     1      -8.128   9.127  68.263  1.00  0.00    -0.104 C  
BRANCH   4   5
HETATM    5  C   UNL     1      -9.473   8.787  68.905  1.00  0.00    -0.145 C  
BRANCH   5   6
HETATM    6  O   UNL     1     -10.495   8.843  67.897  1.00  0.00    -0.228 OA 
BRANCH   6   7
HETATM    7  C   UNL     1     -10.533  10.010  67.170  1.00  0.00    -0.244 A  
HETATM    8  C   UNL     1     -11.180  11.119  67.750  1.00  0.00    -0.359 A  
HETATM    9  C   UNL     1     -11.893  10.976  69.065  1.00  0.00    -0.399 C  
HETATM   10  C   UNL     1     -11.093  12.352  67.079  1.00  0.00    -0.278 A  
HETATM   11  C   UNL     1      -9.970  10.122  65.901  1.00  0.00    -0.334 A  
HETATM   12  N   UNL     1     -10.492  12.465  65.860  1.00  0.00    -0.250 NA 
HETATM   13  C   UNL     1      -9.985  11.355  65.288  1.00  0.00    -0.258 A  
BRANCH  10  14
HETATM   14  C   UNL     1     -11.543  13.666  67.686  1.00  0.00    -0.346 C  
BRANCH  14  15
HETATM   15  S   UNL     1     -10.295  14.347  68.805  1.00  0.00    -0.232 S  
HETATM   16  O   UNL     1      -8.950  13.701  68.648  1.00  0.00    -0.137 OA 
BRANCH  15  17
HETATM   17  C   UNL     1     -10.133  15.951  68.163  1.00  0.00    -0.229 A  
HETATM   18  N   UNL     1     -10.506  16.347  66.965  1.00  0.00    -0.301 NA 
HETATM   19  C   UNL     1     -10.285  17.706  66.948  1.00  0.00    -0.334 A  
HETATM   20  H   UNL     1     -10.878  15.771  66.209  1.00  0.00     0.000 HD 
HETATM   21  C   UNL     1     -10.508  18.639  65.924  1.00  0.00    -0.395 A  
HETATM   22  C   UNL     1     -10.260  19.995  66.181  1.00  0.00    -0.589 A  
HETATM   23  C   UNL     1      -9.799  20.415  67.431  1.00  0.00    -0.587 A  
HETATM   24  C   UNL     1      -9.545  19.496  68.457  1.00  0.00    -0.476 A  
HETATM   25  C   UNL     1      -9.790  18.149  68.171  1.00  0.00    -0.343 A  
HETATM   26  N   UNL     1      -9.646  16.999  68.905  1.00  0.00    -0.266 NA 
ENDBRANCH  15  17
ENDBRANCH  14  15
ENDBRANCH  10  14
ENDBRANCH   6   7
ENDBRANCH   5   6
ENDBRANCH   4   5
ENDBRANCH   3   4
ENDBRANCH   2   3
TORSDOF 8
ENDMDL
MODEL      140
REMARK 921   NORMALIZED FREE ENERGY PREDICTED BY IDOCK:   -4.43 KCAL/MOL
REMARK 922        TOTAL FREE ENERGY PREDICTED BY IDOCK:   -7.38 KCAL/MOL
REMARK 923 INTER-LIGAND FREE ENERGY PREDICTED BY IDOCK:   -6.25 KCAL/MOL
REMARK 924 INTRA-LIGAND FREE ENERGY PREDICTED BY IDOCK:   -1.13 KCAL/MOL
REMARK 927      BINDING AFFINITY PREDICTED BY RF-SCORE:    0.00 PKD
ROOT
HETATM    1  C   UNL     1     -13.802  15.684  72.855  1.00  0.00    -0.491 C  
HETATM    2  O   UNL     1     -13.851  15.523  71.443  1.00  0.00    -0.500 OA 
ENDROOT
BRANCH   2   3
HETATM    3  C   UNL     1     -13.261  14.295  71.022  1.00  0.00    -0.303 C  
BRANCH   3   4
HETATM    4  C   UNL     1     -13.589  13.205  72.036  1.00  0.00    -0.554 C  
BRANCH   4   5
HETATM    5  C   UNL     1     -12.937  11.872  71.671  1.00  0.00    -0.342 C  
BRANCH   5   6
HETATM    6  O   UNL     1     -11.942  12.103  70.661  1.00  0.00    -0.322 OA 
BRANCH   6   7
HETATM    7  C   UNL     1     -11.523  10.979  69.988  1.00  0.00    -0.314 A  
HETATM    8  C   UNL     1     -11.357  11.078  68.593  1.00  0.00    -0.346 A  
HETATM    9  C   UNL     1     -11.737  12.342  67.874  1.00  0.00    -0.421 C  
HETATM   10  C   UNL     1     -10.789   9.980  67.922  1.00  0.00    -0.271 A  
HETATM   11  C   UNL     1     -11.274   9.769  70.631  1.00  0.00    -0.402 A  
HETATM   12  N   UNL     1     -10.496   8.816  68.569  1.00  0.00    -0.199 NA 
HETATM   13  C   UNL     1     -10.778   8.724  69.884  1.00  0.00    -0.223 A  
BRANCH  10  14
HETATM   14  C   UNL     1     -10.347  10.026  66.472  1.00  0.00    -0.198 C  
BRANCH  14  15
HETATM   15  S   UNL     1      -8.565   9.762  66.308  1.00  0.00    -0.129 S  
HETATM   16  O   UNL     1      -8.037  10.138  64.955  1.00  0.00    -0.145 OA 
BRANCH  15  17
HETATM   17  C   UNL     1      -7.962  10.962  67.408  1.00  0.00    -0.113 A  
HETATM   18  N   UNL     1      -7.250  10.734  68.490  1.00  0.00    -0.083 NA 
HETATM   19  C   UNL     1      -6.913  11.979  68.970  1.00  0.00    -0.094 A  
HETATM   20  H   UNL     1      -7.002   9.828  68.889  1.00  0.00     0.000 HD 
HETATM   21  C   UNL     1      -6.157  12.331  70.099  1.00  0.00    -0.111 A  
HETATM   22  C   UNL     1      -5.895  13.687  70.339  1.00  0.00    -0.161 A  
HETATM   23  C   UNL     1      -6.376  14.674  69.475  1.00  0.00    -0.127 A  
HETATM   24  C   UNL     1      -7.155  14.344  68.359  1.00  0.00    -0.106 A  
HETATM   25  C   UNL     1      -7.411  12.986  68.148  1.00  0.00    -0.118 A  
HETATM   26  N   UNL     1      -8.127  12.309  67.194  1.00  0.00    -0.179 NA 
ENDBRANCH  15  17
ENDBRANCH  14  15
ENDBRANCH  10  14
ENDBRANCH   6   7
ENDBRANCH   5   6
ENDBRANCH   4   5
ENDBRANCH   3   4
ENDBRANCH   2   3
TORSDOF 8
ENDMDL
MODEL      141
REMARK 921   NORMALIZED FREE ENERGY PREDICTED BY IDOCK:   -4.41 KCAL/MOL
REMARK 922        TOTAL FREE ENERGY PREDICTED BY IDOCK:   -7.34 KCAL/MOL
REMARK 923 INTER-LIGAND FREE ENERGY PREDICTED BY IDOCK:   -6.56 KCAL/MOL
REMARK 924 INTRA-LIGAND FREE ENERGY PREDICTED BY IDOCK:   -0.78 KCAL/MOL
REMARK 927      BINDING AFFINITY PREDICTED BY RF-SCORE:    0.00 PKD
ROOT
HETATM    1  C   UNL     1      -5.588  17.983  67.924  1.00  0.00    -0.154 C  
HETATM    2  O   UNL     1      -5.125  18.210  66.599  1.00  0.00    -0.126 OA 
ENDROOT
BRANCH   2   3
HETATM    3  C   UNL     1      -6.144  17.981  65.628  1.00  0.00    -0.209 C  
BRANCH   3   4
HETATM    4  C   UNL     1      -6.810  19.305  65.273  1.00  0.00    -0.184 C  
BRANCH   4   5
HETATM    5  C   UNL     1      -7.903  19.679  66.274  1.00  0.00    -0.321 C  
BRANCH   5   6
HETATM    6  O   UNL     1      -9.083  18.916  65.979  1.00  0.00    -0.470 OA 
BRANCH   6   7
HETATM    7  C   UNL     1      -9.650  18.277  67.057  1.00  0.00    -0.291 A  
HETATM    8  C   UNL     1     -10.461  17.155  66.799  1.00  0.00    -0.263 A  
HETATM    9  C   UNL     1     -10.773  16.758  65.383  1.00  0.00    -0.201 C  
HETATM   10  C   UNL     1     -10.920  16.413  67.901  1.00  0.00    -0.298 A  
HETATM   11  C   UNL     1      -9.456  18.705  68.368  1.00  0.00    -0.377 A  
HETATM   12  N   UNL     1     -10.680  16.807  69.184  1.00  0.00    -0.339 NA 
HETATM   13  C   UNL     1      -9.996  17.951  69.386  1.00  0.00     0.031 A  
BRANCH  10  14
HETATM   14  C   UNL     1     -11.608  15.067  67.772  1.00  0.00    -0.319 C  
BRANCH  14  15
HETATM   15  S   UNL     1     -10.614  13.737  68.490  1.00  0.00    -0.255 S  
HETATM   16  O   UNL     1     -11.416  12.800  69.345  1.00  0.00    -0.271 OA 
BRANCH  15  17
HETATM   17  C   UNL     1     -10.200  12.843  67.061  1.00  0.00    -0.243 A  
HETATM   18  N   UNL     1      -9.447  11.765  67.012  1.00  0.00    -0.182 NA 
HETATM   19  C   UNL     1      -9.493  11.350  65.700  1.00  0.00    -0.230 A  
HETATM   20  H   UNL     1      -8.937  11.330  67.782  1.00  0.00     0.000 HD 
HETATM   21  C   UNL     1      -8.876  10.251  65.084  1.00  0.00    -0.205 A  
HETATM   22  C   UNL     1      -9.136  10.003  63.729  1.00  0.00    -0.302 A  
HETATM   23  C   UNL     1      -9.992  10.834  63.000  1.00  0.00    -0.291 A  
HETATM   24  C   UNL     1     -10.595  11.951  63.591  1.00  0.00    -0.500 A  
HETATM   25  C   UNL     1     -10.310  12.182  64.940  1.00  0.00    -0.289 A  
HETATM   26  N   UNL     1     -10.698  13.160  65.821  1.00  0.00    -0.276 NA 
ENDBRANCH  15  17
ENDBRANCH  14  15
ENDBRANCH  10  14
ENDBRANCH   6   7
ENDBRANCH   5   6
ENDBRANCH   4   5
ENDBRANCH   3   4
ENDBRANCH   2   3
TORSDOF 8
ENDMDL
MODEL      142
REMARK 921   NORMALIZED FREE ENERGY PREDICTED BY IDOCK:   -4.40 KCAL/MOL
REMARK 922        TOTAL FREE ENERGY PREDICTED BY IDOCK:   -7.34 KCAL/MOL
REMARK 923 INTER-LIGAND FREE ENERGY PREDICTED BY IDOCK:   -6.53 KCAL/MOL
REMARK 924 INTRA-LIGAND FREE ENERGY PREDICTED BY IDOCK:   -0.81 KCAL/MOL
REMARK 927      BINDING AFFINITY PREDICTED BY RF-SCORE:    0.00 PKD
ROOT
HETATM    1  C   UNL     1      -7.997  16.859  67.634  1.00  0.00    -0.174 C  
HETATM    2  O   UNL     1      -7.684  15.535  67.221  1.00  0.00    -0.174 OA 
ENDROOT
BRANCH   2   3
HETATM    3  C   UNL     1      -8.772  14.637  67.428  1.00  0.00    -0.197 C  
BRANCH   3   4
HETATM    4  C   UNL     1      -9.241  14.096  66.082  1.00  0.00    -0.088 C  
BRANCH   4   5
HETATM    5  C   UNL     1     -10.731  14.349  65.855  1.00  0.00    -0.306 C  
BRANCH   5   6
HETATM    6  O   UNL     1     -11.385  13.091  65.621  1.00  0.00    -0.291 OA 
BRANCH   6   7
HETATM    7  C   UNL     1     -11.289  12.184  66.651  1.00  0.00    -0.350 A  
HETATM    8  C   UNL     1     -10.681  10.945  66.374  1.00  0.00    -0.257 A  
HETATM    9  C   UNL     1     -10.262  10.605  64.971  1.00  0.00    -0.380 C  
HETATM   10  C   UNL     1     -10.447  10.075  67.454  1.00  0.00    -0.260 A  
HETATM   11  C   UNL     1     -11.775  12.447  67.930  1.00  0.00    -0.421 A  
HETATM   12  N   UNL     1     -10.877  10.363  68.716  1.00  0.00    -0.218 NA 
HETATM   13  C   UNL     1     -11.557  11.510  68.915  1.00  0.00    -0.320 A  
BRANCH  10  14
HETATM   14  C   UNL     1      -9.608   8.816  67.345  1.00  0.00    -0.161 C  
BRANCH  14  15
HETATM   15  S   UNL     1     -10.637   7.332  67.257  1.00  0.00    -0.327 S  
HETATM   16  O   UNL     1     -10.005   6.225  66.465  1.00  0.00    -0.166 OA 
BRANCH  15  17
HETATM   17  C   UNL     1     -10.596   6.818  68.915  1.00  0.00    -0.228 A  
HETATM   18  N   UNL     1     -11.481   7.119  69.841  1.00  0.00    -0.504 NA 
HETATM   19  C   UNL     1     -11.097   6.403  70.953  1.00  0.00    -0.298 A  
HETATM   20  H   UNL     1     -12.279   7.748  69.754  1.00  0.00     0.000 HD 
HETATM   21  C   UNL     1     -11.682   6.342  72.227  1.00  0.00    -0.344 A  
HETATM   22  C   UNL     1     -11.132   5.475  73.181  1.00  0.00    -0.337 A  
HETATM   23  C   UNL     1     -10.021   4.685  72.875  1.00  0.00    -0.194 A  
HETATM   24  C   UNL     1      -9.407   4.752  71.618  1.00  0.00    -0.194 A  
HETATM   25  C   UNL     1      -9.969   5.633  70.689  1.00  0.00    -0.200 A  
HETATM   26  N   UNL     1      -9.636   5.964  69.400  1.00  0.00    -0.135 NA 
ENDBRANCH  15  17
ENDBRANCH  14  15
ENDBRANCH  10  14
ENDBRANCH   6   7
ENDBRANCH   5   6
ENDBRANCH   4   5
ENDBRANCH   3   4
ENDBRANCH   2   3
TORSDOF 8
ENDMDL
MODEL      143
REMARK 921   NORMALIZED FREE ENERGY PREDICTED BY IDOCK:   -4.38 KCAL/MOL
REMARK 922        TOTAL FREE ENERGY PREDICTED BY IDOCK:   -7.31 KCAL/MOL
REMARK 923 INTER-LIGAND FREE ENERGY PREDICTED BY IDOCK:   -6.91 KCAL/MOL
REMARK 924 INTRA-LIGAND FREE ENERGY PREDICTED BY IDOCK:   -0.40 KCAL/MOL
REMARK 927      BINDING AFFINITY PREDICTED BY RF-SCORE:    0.00 PKD
ROOT
HETATM    1  C   UNL     1     -12.421   9.398  72.045  1.00  0.00    -0.365 C  
HETATM    2  O   UNL     1     -13.470   8.454  72.219  1.00  0.00    -0.316 OA 
ENDROOT
BRANCH   2   3
HETATM    3  C   UNL     1     -13.266   7.275  71.443  1.00  0.00    -0.346 C  
BRANCH   3   4
HETATM    4  C   UNL     1     -11.771   7.007  71.319  1.00  0.00    -0.356 C  
BRANCH   4   5
HETATM    5  C   UNL     1     -11.418   6.359  69.980  1.00  0.00    -0.428 C  
BRANCH   5   6
HETATM    6  O   UNL     1     -10.001   6.466  69.771  1.00  0.00    -0.162 OA 
BRANCH   6   7
HETATM    7  C   UNL     1      -9.535   7.747  69.586  1.00  0.00    -0.156 A  
HETATM    8  C   UNL     1      -9.872   8.397  68.383  1.00  0.00    -0.192 A  
HETATM    9  C   UNL     1     -10.619   7.657  67.308  1.00  0.00    -0.388 C  
HETATM   10  C   UNL     1      -9.526   9.753  68.252  1.00  0.00    -0.139 A  
HETATM   11  C   UNL     1      -8.748   8.403  70.530  1.00  0.00    -0.152 A  
HETATM   12  N   UNL     1      -8.801  10.405  69.206  1.00  0.00    -0.169 NA 
HETATM   13  C   UNL     1      -8.400   9.713  70.292  1.00  0.00    -0.186 A  
BRANCH  10  14
HETATM   14  C   UNL     1     -10.016  10.635  67.119  1.00  0.00    -0.195 C  
BRANCH  14  15
HETATM   15  S   UNL     1     -11.691  11.244  67.424  1.00  0.00     0.145 S  
HETATM   16  O   UNL     1     -12.179  10.954  68.814  1.00  0.00    -0.518 OA 
BRANCH  15  17
HETATM   17  C   UNL     1     -11.423  12.958  67.358  1.00  0.00    -0.336 A  
HETATM   18  N   UNL     1     -11.571  13.804  68.355  1.00  0.00    -0.312 NA 
HETATM   19  C   UNL     1     -11.141  15.017  67.866  1.00  0.00    -0.307 A  
HETATM   20  H   UNL     1     -11.928  13.604  69.290  1.00  0.00     0.000 HD 
HETATM   21  C   UNL     1     -11.075  16.267  68.500  1.00  0.00    -0.368 A  
HETATM   22  C   UNL     1     -10.530  17.351  67.798  1.00  0.00    -0.376 A  
HETATM   23  C   UNL     1     -10.061  17.196  66.491  1.00  0.00    -0.313 A  
HETATM   24  C   UNL     1     -10.144  15.963  65.832  1.00  0.00    -0.376 A  
HETATM   25  C   UNL     1     -10.702  14.901  66.551  1.00  0.00    -0.309 A  
HETATM   26  N   UNL     1     -10.950  13.589  66.234  1.00  0.00    -0.288 NA 
ENDBRANCH  15  17
ENDBRANCH  14  15
ENDBRANCH  10  14
ENDBRANCH   6   7
ENDBRANCH   5   6
ENDBRANCH   4   5
ENDBRANCH   3   4
ENDBRANCH   2   3
TORSDOF 8
ENDMDL
MODEL      144
REMARK 921   NORMALIZED FREE ENERGY PREDICTED BY IDOCK:   -4.38 KCAL/MOL
REMARK 922        TOTAL FREE ENERGY PREDICTED BY IDOCK:   -7.30 KCAL/MOL
REMARK 923 INTER-LIGAND FREE ENERGY PREDICTED BY IDOCK:   -6.09 KCAL/MOL
REMARK 924 INTRA-LIGAND FREE ENERGY PREDICTED BY IDOCK:   -1.22 KCAL/MOL
REMARK 927      BINDING AFFINITY PREDICTED BY RF-SCORE:    0.00 PKD
ROOT
HETATM    1  C   UNL     1     -12.107  10.915  69.373  1.00  0.00    -0.290 C  
HETATM    2  O   UNL     1     -10.978  10.617  70.185  1.00  0.00    -0.282 OA 
ENDROOT
BRANCH   2   3
HETATM    3  C   UNL     1     -10.940   9.244  70.569  1.00  0.00    -0.265 C  
BRANCH   3   4
HETATM    4  C   UNL     1      -9.973   9.074  71.735  1.00  0.00    -0.359 C  
BRANCH   4   5
HETATM    5  C   UNL     1      -8.798   8.167  71.373  1.00  0.00    -0.149 C  
BRANCH   5   6
HETATM    6  O   UNL     1      -8.419   8.419  70.011  1.00  0.00    -0.120 OA 
BRANCH   6   7
HETATM    7  C   UNL     1      -7.453   9.385  69.845  1.00  0.00    -0.100 A  
HETATM    8  C   UNL     1      -7.450  10.103  68.633  1.00  0.00    -0.084 A  
HETATM    9  C   UNL     1      -8.406   9.733  67.533  1.00  0.00    -0.114 C  
HETATM   10  C   UNL     1      -6.563  11.187  68.517  1.00  0.00    -0.060 A  
HETATM   11  C   UNL     1      -6.493   9.660  70.815  1.00  0.00    -0.104 A  
HETATM   12  N   UNL     1      -5.661  11.485  69.495  1.00  0.00    -0.055 NA 
HETATM   13  C   UNL     1      -5.620  10.701  70.591  1.00  0.00    -0.105 A  
BRANCH  10  14
HETATM   14  C   UNL     1      -6.604  12.180  67.372  1.00  0.00    -0.147 C  
BRANCH  14  15
HETATM   15  S   UNL     1      -7.125  13.821  67.927  1.00  0.00    -0.176 S  
HETATM   16  O   UNL     1      -6.253  14.924  67.402  1.00  0.00    -0.329 OA 
BRANCH  15  17
HETATM   17  C   UNL     1      -8.641  13.972  67.095  1.00  0.00    -0.205 A  
HETATM   18  N   UNL     1      -8.917  14.831  66.138  1.00  0.00    -0.495 NA 
HETATM   19  C   UNL     1     -10.185  14.504  65.713  1.00  0.00    -0.335 A  
HETATM   20  H   UNL     1      -8.320  15.579  65.786  1.00  0.00     0.000 HD 
HETATM   21  C   UNL     1     -10.975  15.088  64.712  1.00  0.00    -0.389 A  
HETATM   22  C   UNL     1     -12.224  14.522  64.421  1.00  0.00    -0.480 A  
HETATM   23  C   UNL     1     -12.680  13.398  65.114  1.00  0.00    -0.459 A  
HETATM   24  C   UNL     1     -11.918  12.817  66.136  1.00  0.00    -0.476 A  
HETATM   25  C   UNL     1     -10.682  13.408  66.413  1.00  0.00    -0.286 A  
HETATM   26  N   UNL     1      -9.699  13.128  67.329  1.00  0.00    -0.225 NA 
ENDBRANCH  15  17
ENDBRANCH  14  15
ENDBRANCH  10  14
ENDBRANCH   6   7
ENDBRANCH   5   6
ENDBRANCH   4   5
ENDBRANCH   3   4
ENDBRANCH   2   3
TORSDOF 8
ENDMDL
MODEL      145
REMARK 921   NORMALIZED FREE ENERGY PREDICTED BY IDOCK:   -4.38 KCAL/MOL
REMARK 922        TOTAL FREE ENERGY PREDICTED BY IDOCK:   -7.30 KCAL/MOL
REMARK 923 INTER-LIGAND FREE ENERGY PREDICTED BY IDOCK:   -6.46 KCAL/MOL
REMARK 924 INTRA-LIGAND FREE ENERGY PREDICTED BY IDOCK:   -0.84 KCAL/MOL
REMARK 927      BINDING AFFINITY PREDICTED BY RF-SCORE:    0.00 PKD
ROOT
HETATM    1  C   UNL     1     -10.726  17.380  65.479  1.00  0.00    -0.078 C  
HETATM    2  O   UNL     1     -11.261  16.872  64.263  1.00  0.00    -1.204 OA 
ENDROOT
BRANCH   2   3
HETATM    3  C   UNL     1     -11.594  15.489  64.360  1.00  0.00    -0.258 C  
BRANCH   3   4
HETATM    4  C   UNL     1     -10.416  14.728  64.956  1.00  0.00    -0.443 C  
BRANCH   4   5
HETATM    5  C   UNL     1     -10.869  13.477  65.709  1.00  0.00    -0.275 C  
BRANCH   5   6
HETATM    6  O   UNL     1     -10.623  13.666  67.112  1.00  0.00    -0.269 OA 
BRANCH   6   7
HETATM    7  C   UNL     1     -10.041  12.596  67.751  1.00  0.00    -0.220 A  
HETATM    8  C   UNL     1     -10.799  11.933  68.736  1.00  0.00    -0.270 A  
HETATM    9  C   UNL     1     -12.148  12.464  69.136  1.00  0.00    -0.195 C  
HETATM   10  C   UNL     1     -10.269  10.752  69.285  1.00  0.00    -0.194 A  
HETATM   11  C   UNL     1      -8.749  12.163  67.464  1.00  0.00    -0.173 A  
HETATM   12  N   UNL     1      -9.023  10.304  68.958  1.00  0.00    -0.162 NA 
HETATM   13  C   UNL     1      -8.285  11.032  68.096  1.00  0.00    -0.124 A  
BRANCH  10  14
HETATM   14  C   UNL     1     -11.061   9.820  70.181  1.00  0.00    -0.285 C  
BRANCH  14  15
HETATM   15  S   UNL     1      -9.977   8.802  71.211  1.00  0.00    -0.291 S  
HETATM   16  O   UNL     1     -10.570   8.483  72.552  1.00  0.00    -0.331 OA 
BRANCH  15  17
HETATM   17  C   UNL     1      -9.992   7.315  70.316  1.00  0.00    -0.187 A  
HETATM   18  N   UNL     1     -10.158   7.195  69.016  1.00  0.00    -0.178 NA 
HETATM   19  C   UNL     1      -9.983   5.855  68.752  1.00  0.00    -0.152 A  
HETATM   20  H   UNL     1     -10.371   7.935  68.348  1.00  0.00     0.000 HD 
HETATM   21  C   UNL     1     -10.045   5.165  67.531  1.00  0.00    -0.213 A  
HETATM   22  C   UNL     1      -9.761   3.793  67.517  1.00  0.00    -0.138 A  
HETATM   23  C   UNL     1      -9.423   3.118  68.693  1.00  0.00    -0.195 A  
HETATM   24  C   UNL     1      -9.384   3.783  69.925  1.00  0.00    -0.248 A  
HETATM   25  C   UNL     1      -9.682   5.149  69.913  1.00  0.00    -0.199 A  
HETATM   26  N   UNL     1      -9.754   6.096  70.903  1.00  0.00    -0.175 NA 
ENDBRANCH  15  17
ENDBRANCH  14  15
ENDBRANCH  10  14
ENDBRANCH   6   7
ENDBRANCH   5   6
ENDBRANCH   4   5
ENDBRANCH   3   4
ENDBRANCH   2   3
TORSDOF 8
ENDMDL
MODEL      146
REMARK 921   NORMALIZED FREE ENERGY PREDICTED BY IDOCK:   -4.38 KCAL/MOL
REMARK 922        TOTAL FREE ENERGY PREDICTED BY IDOCK:   -7.30 KCAL/MOL
REMARK 923 INTER-LIGAND FREE ENERGY PREDICTED BY IDOCK:   -6.15 KCAL/MOL
REMARK 924 INTRA-LIGAND FREE ENERGY PREDICTED BY IDOCK:   -1.15 KCAL/MOL
REMARK 927      BINDING AFFINITY PREDICTED BY RF-SCORE:    0.00 PKD
ROOT
HETATM    1  C   UNL     1     -10.192   9.357  71.077  1.00  0.00    -0.299 C  
HETATM    2  O   UNL     1      -9.773   8.794  69.840  1.00  0.00    -0.172 OA 
ENDROOT
BRANCH   2   3
HETATM    3  C   UNL     1     -10.631   9.166  68.763  1.00  0.00    -0.181 C  
BRANCH   3   4
HETATM    4  C   UNL     1     -10.631  10.683  68.621  1.00  0.00    -0.229 C  
BRANCH   4   5
HETATM    5  C   UNL     1     -11.001  11.122  67.204  1.00  0.00    -0.291 C  
BRANCH   5   6
HETATM    6  O   UNL     1     -12.027  12.124  67.281  1.00  0.00    -0.573 OA 
BRANCH   6   7
HETATM    7  C   UNL     1     -11.689  13.346  66.745  1.00  0.00    -0.385 A  
HETATM    8  C   UNL     1     -11.713  14.463  67.602  1.00  0.00    -0.421 A  
HETATM    9  C   UNL     1     -12.201  14.320  69.017  1.00  0.00    -0.255 C  
HETATM   10  C   UNL     1     -11.228  15.683  67.100  1.00  0.00    -0.152 A  
HETATM   11  C   UNL     1     -11.342  13.507  65.406  1.00  0.00    -0.302 A  
HETATM   12  N   UNL     1     -10.837  15.821  65.801  1.00  0.00    -0.308 NA 
HETATM   13  C   UNL     1     -10.939  14.754  64.983  1.00  0.00    -0.414 A  
BRANCH  10  14
HETATM   14  C   UNL     1     -10.984  16.904  67.966  1.00  0.00    -0.271 C  
BRANCH  14  15
HETATM   15  S   UNL     1      -9.376  17.658  67.622  1.00  0.00    -0.248 S  
HETATM   16  O   UNL     1      -9.042  18.782  68.559  1.00  0.00    -0.324 OA 
BRANCH  15  17
HETATM   17  C   UNL     1      -8.316  16.350  68.045  1.00  0.00    -0.178 A  
HETATM   18  N   UNL     1      -7.937  15.372  67.251  1.00  0.00    -0.184 NA 
HETATM   19  C   UNL     1      -7.020  14.649  67.981  1.00  0.00    -0.139 A  
HETATM   20  H   UNL     1      -8.255  15.188  66.299  1.00  0.00     0.000 HD 
HETATM   21  C   UNL     1      -6.294  13.502  67.625  1.00  0.00    -0.156 A  
HETATM   22  C   UNL     1      -5.360  12.986  68.534  1.00  0.00    -0.063 A  
HETATM   23  C   UNL     1      -5.154  13.597  69.773  1.00  0.00    -0.085 A  
HETATM   24  C   UNL     1      -5.888  14.726  70.157  1.00  0.00    -0.138 A  
HETATM   25  C   UNL     1      -6.821  15.214  69.237  1.00  0.00    -0.153 A  
HETATM   26  N   UNL     1      -7.705  16.262  69.272  1.00  0.00    -0.225 NA 
ENDBRANCH  15  17
ENDBRANCH  14  15
ENDBRANCH  10  14
ENDBRANCH   6   7
ENDBRANCH   5   6
ENDBRANCH   4   5
ENDBRANCH   3   4
ENDBRANCH   2   3
TORSDOF 8
ENDMDL
MODEL      147
REMARK 921   NORMALIZED FREE ENERGY PREDICTED BY IDOCK:   -4.36 KCAL/MOL
REMARK 922        TOTAL FREE ENERGY PREDICTED BY IDOCK:   -7.28 KCAL/MOL
REMARK 923 INTER-LIGAND FREE ENERGY PREDICTED BY IDOCK:   -5.57 KCAL/MOL
REMARK 924 INTRA-LIGAND FREE ENERGY PREDICTED BY IDOCK:   -1.71 KCAL/MOL
REMARK 927      BINDING AFFINITY PREDICTED BY RF-SCORE:    0.00 PKD
ROOT
HETATM    1  C   UNL     1      -8.755   3.923  72.452  1.00  0.00    -0.105 C  
HETATM    2  O   UNL     1      -9.889   4.192  71.637  1.00  0.00    -0.170 OA 
ENDROOT
BRANCH   2   3
HETATM    3  C   UNL     1      -9.561   5.006  70.512  1.00  0.00    -0.185 C  
BRANCH   3   4
HETATM    4  C   UNL     1      -8.054   5.225  70.473  1.00  0.00    -0.104 C  
BRANCH   4   5
HETATM    5  C   UNL     1      -7.509   5.178  69.046  1.00  0.00    -0.069 C  
BRANCH   5   6
HETATM    6  O   UNL     1      -8.547   5.581  68.139  1.00  0.00    -0.101 OA 
BRANCH   6   7
HETATM    7  C   UNL     1      -8.484   6.892  67.726  1.00  0.00    -0.123 A  
HETATM    8  C   UNL     1      -9.700   7.555  67.474  1.00  0.00    -0.190 A  
HETATM    9  C   UNL     1     -11.001   6.805  67.551  1.00  0.00    -0.375 C  
HETATM   10  C   UNL     1      -9.649   8.933  67.197  1.00  0.00    -0.172 A  
HETATM   11  C   UNL     1      -7.278   7.564  67.546  1.00  0.00    -0.090 A  
HETATM   12  N   UNL     1      -8.464   9.598  67.076  1.00  0.00    -0.124 NA 
HETATM   13  C   UNL     1      -7.319   8.899  67.212  1.00  0.00    -0.080 A  
BRANCH  10  14
HETATM   14  C   UNL     1     -10.879   9.817  67.128  1.00  0.00    -0.136 C  
BRANCH  14  15
HETATM   15  S   UNL     1     -10.939  10.989  68.504  1.00  0.00    -0.252 S  
HETATM   16  O   UNL     1     -12.321  11.512  68.771  1.00  0.00    -0.425 OA 
BRANCH  15  17
HETATM   17  C   UNL     1     -10.560   9.939  69.833  1.00  0.00    -0.273 A  
HETATM   18  N   UNL     1      -9.376   9.786  70.386  1.00  0.00    -0.358 NA 
HETATM   19  C   UNL     1      -9.584   8.950  71.460  1.00  0.00    -0.292 A  
HETATM   20  H   UNL     1      -8.493  10.198  70.084  1.00  0.00     0.000 HD 
HETATM   21  C   UNL     1      -8.670   8.455  72.403  1.00  0.00    -0.280 A  
HETATM   22  C   UNL     1      -9.148   7.662  73.454  1.00  0.00    -0.296 A  
HETATM   23  C   UNL     1     -10.509   7.364  73.566  1.00  0.00    -0.396 A  
HETATM   24  C   UNL     1     -11.433   7.826  72.620  1.00  0.00    -0.430 A  
HETATM   25  C   UNL     1     -10.928   8.606  71.575  1.00  0.00    -0.290 A  
HETATM   26  N   UNL     1     -11.516   9.202  70.488  1.00  0.00    -0.255 NA 
ENDBRANCH  15  17
ENDBRANCH  14  15
ENDBRANCH  10  14
ENDBRANCH   6   7
ENDBRANCH   5   6
ENDBRANCH   4   5
ENDBRANCH   3   4
ENDBRANCH   2   3
TORSDOF 8
ENDMDL
MODEL      148
REMARK 921   NORMALIZED FREE ENERGY PREDICTED BY IDOCK:   -4.35 KCAL/MOL
REMARK 922        TOTAL FREE ENERGY PREDICTED BY IDOCK:   -7.26 KCAL/MOL
REMARK 923 INTER-LIGAND FREE ENERGY PREDICTED BY IDOCK:   -6.20 KCAL/MOL
REMARK 924 INTRA-LIGAND FREE ENERGY PREDICTED BY IDOCK:   -1.05 KCAL/MOL
REMARK 927      BINDING AFFINITY PREDICTED BY RF-SCORE:    0.00 PKD
ROOT
HETATM    1  C   UNL     1     -13.028  10.375  71.732  1.00  0.00    -0.475 C  
HETATM    2  O   UNL     1     -13.857   9.327  72.217  1.00  0.00    -0.453 OA 
ENDROOT
BRANCH   2   3
HETATM    3  C   UNL     1     -13.367   8.039  71.849  1.00  0.00    -0.306 C  
BRANCH   3   4
HETATM    4  C   UNL     1     -11.934   7.886  72.344  1.00  0.00    -0.373 C  
BRANCH   4   5
HETATM    5  C   UNL     1     -11.092   7.035  71.394  1.00  0.00    -0.245 C  
BRANCH   5   6
HETATM    6  O   UNL     1     -11.562   7.234  70.051  1.00  0.00    -0.176 OA 
BRANCH   6   7
HETATM    7  C   UNL     1     -10.595   7.148  69.077  1.00  0.00    -0.210 A  
HETATM    8  C   UNL     1     -10.056   8.353  68.584  1.00  0.00    -0.210 A  
HETATM    9  C   UNL     1     -10.613   9.672  69.041  1.00  0.00    -0.237 C  
HETATM   10  C   UNL     1      -8.967   8.268  67.699  1.00  0.00    -0.135 A  
HETATM   11  C   UNL     1     -10.149   5.931  68.567  1.00  0.00    -0.210 A  
HETATM   12  N   UNL     1      -8.500   7.070  67.246  1.00  0.00    -0.121 NA 
HETATM   13  C   UNL     1      -9.119   5.944  67.654  1.00  0.00    -0.106 A  
BRANCH  10  14
HETATM   14  C   UNL     1      -8.149   9.470  67.267  1.00  0.00    -0.110 C  
BRANCH  14  15
HETATM   15  S   UNL     1      -8.618  10.039  65.615  1.00  0.00    -0.163 S  
HETATM   16  O   UNL     1      -9.850   9.362  65.088  1.00  0.00    -0.182 OA 
BRANCH  15  17
HETATM   17  C   UNL     1      -9.082  11.675  65.962  1.00  0.00    -0.182 A  
HETATM   18  N   UNL     1      -9.595  12.533  65.107  1.00  0.00    -0.468 NA 
HETATM   19  C   UNL     1      -9.903  13.648  65.854  1.00  0.00    -0.246 A  
HETATM   20  H   UNL     1      -9.733  12.401  64.104  1.00  0.00     0.000 HD 
HETATM   21  C   UNL     1     -10.476  14.865  65.455  1.00  0.00    -0.406 A  
HETATM   22  C   UNL     1     -10.755  15.832  66.431  1.00  0.00    -0.277 A  
HETATM   23  C   UNL     1     -10.467  15.594  67.777  1.00  0.00    -0.273 A  
HETATM   24  C   UNL     1      -9.870  14.397  68.191  1.00  0.00    -0.223 A  
HETATM   25  C   UNL     1      -9.593  13.454  67.196  1.00  0.00    -0.241 A  
HETATM   26  N   UNL     1      -9.015  12.210  67.226  1.00  0.00    -0.177 NA 
ENDBRANCH  15  17
ENDBRANCH  14  15
ENDBRANCH  10  14
ENDBRANCH   6   7
ENDBRANCH   5   6
ENDBRANCH   4   5
ENDBRANCH   3   4
ENDBRANCH   2   3
TORSDOF 8
ENDMDL
MODEL      149
REMARK 921   NORMALIZED FREE ENERGY PREDICTED BY IDOCK:   -4.35 KCAL/MOL
REMARK 922        TOTAL FREE ENERGY PREDICTED BY IDOCK:   -7.25 KCAL/MOL
REMARK 923 INTER-LIGAND FREE ENERGY PREDICTED BY IDOCK:   -6.40 KCAL/MOL
REMARK 924 INTRA-LIGAND FREE ENERGY PREDICTED BY IDOCK:   -0.85 KCAL/MOL
REMARK 927      BINDING AFFINITY PREDICTED BY RF-SCORE:    0.00 PKD
ROOT
HETATM    1  C   UNL     1      -8.109   8.029  74.458  1.00  0.00    -0.225 C  
HETATM    2  O   UNL     1      -8.061   6.945  73.539  1.00  0.00    -0.100 OA 
ENDROOT
BRANCH   2   3
HETATM    3  C   UNL     1      -9.008   7.094  72.483  1.00  0.00    -0.127 C  
BRANCH   3   4
HETATM    4  C   UNL     1     -10.408   7.206  73.075  1.00  0.00    -0.310 C  
BRANCH   4   5
HETATM    5  C   UNL     1     -11.359   7.964  72.149  1.00  0.00    -0.313 C  
BRANCH   5   6
HETATM    6  O   UNL     1     -10.695   9.143  71.666  1.00  0.00    -0.341 OA 
BRANCH   6   7
HETATM    7  C   UNL     1     -10.872   9.403  70.327  1.00  0.00    -0.258 A  
HETATM    8  C   UNL     1     -11.561  10.581  69.977  1.00  0.00    -0.392 A  
HETATM    9  C   UNL     1     -12.168  11.447  71.046  1.00  0.00    -0.391 C  
HETATM   10  C   UNL     1     -11.615  10.927  68.616  1.00  0.00    -0.303 A  
HETATM   11  C   UNL     1     -10.409   8.550  69.329  1.00  0.00    -0.227 A  
HETATM   12  N   UNL     1     -11.110  10.112  67.646  1.00  0.00    -0.274 NA 
HETATM   13  C   UNL     1     -10.560   8.938  68.017  1.00  0.00    -0.168 A  
BRANCH  10  14
HETATM   14  C   UNL     1     -12.122  12.266  68.115  1.00  0.00    -0.013 C  
BRANCH  14  15
HETATM   15  S   UNL     1     -11.534  12.619  66.440  1.00  0.00    -0.376 S  
HETATM   16  O   UNL     1     -12.455  13.524  65.673  1.00  0.00    -0.454 OA 
BRANCH  15  17
HETATM   17  C   UNL     1     -10.120  13.562  66.791  1.00  0.00    -0.268 A  
HETATM   18  N   UNL     1      -9.021  13.125  67.368  1.00  0.00    -0.191 NA 
HETATM   19  C   UNL     1      -8.147  14.188  67.333  1.00  0.00    -0.189 A  
HETATM   20  H   UNL     1      -8.853  12.198  67.759  1.00  0.00     0.000 HD 
HETATM   21  C   UNL     1      -6.829  14.283  67.805  1.00  0.00    -0.189 A  
HETATM   22  C   UNL     1      -6.118  15.471  67.587  1.00  0.00    -0.158 A  
HETATM   23  C   UNL     1      -6.706  16.545  66.915  1.00  0.00    -0.233 A  
HETATM   24  C   UNL     1      -8.029  16.480  66.461  1.00  0.00    -0.345 A  
HETATM   25  C   UNL     1      -8.720  15.288  66.700  1.00  0.00    -0.291 A  
HETATM   26  N   UNL     1      -9.999  14.879  66.420  1.00  0.00    -0.262 NA 
ENDBRANCH  15  17
ENDBRANCH  14  15
ENDBRANCH  10  14
ENDBRANCH   6   7
ENDBRANCH   5   6
ENDBRANCH   4   5
ENDBRANCH   3   4
ENDBRANCH   2   3
TORSDOF 8
ENDMDL
MODEL      150
REMARK 921   NORMALIZED FREE ENERGY PREDICTED BY IDOCK:   -4.30 KCAL/MOL
REMARK 922        TOTAL FREE ENERGY PREDICTED BY IDOCK:   -7.19 KCAL/MOL
REMARK 923 INTER-LIGAND FREE ENERGY PREDICTED BY IDOCK:   -6.73 KCAL/MOL
REMARK 924 INTRA-LIGAND FREE ENERGY PREDICTED BY IDOCK:   -0.45 KCAL/MOL
REMARK 927      BINDING AFFINITY PREDICTED BY RF-SCORE:    0.00 PKD
ROOT
HETATM    1  C   UNL     1      -7.042   8.941  68.624  1.00  0.00    -0.071 C  
HETATM    2  O   UNL     1      -7.502   9.153  69.952  1.00  0.00    -0.058 OA 
ENDROOT
BRANCH   2   3
HETATM    3  C   UNL     1      -8.344   8.093  70.403  1.00  0.00    -0.120 C  
BRANCH   3   4
HETATM    4  C   UNL     1      -9.785   8.391  70.005  1.00  0.00    -0.176 C  
BRANCH   4   5
HETATM    5  C   UNL     1     -10.073   9.892  69.991  1.00  0.00    -0.260 C  
BRANCH   5   6
HETATM    6  O   UNL     1     -10.612  10.250  68.709  1.00  0.00    -0.187 OA 
BRANCH   6   7
HETATM    7  C   UNL     1     -11.048  11.551  68.603  1.00  0.00    -0.238 A  
HETATM    8  C   UNL     1     -11.368  12.028  67.318  1.00  0.00    -0.394 A  
HETATM    9  C   UNL     1     -11.128  11.167  66.110  1.00  0.00    -0.152 C  
HETATM   10  C   UNL     1     -11.953  13.304  67.221  1.00  0.00    -0.343 A  
HETATM   11  C   UNL     1     -11.169  12.393  69.705  1.00  0.00    -0.027 A  
HETATM   12  N   UNL     1     -12.119  14.103  68.313  1.00  0.00    -0.317 NA 
HETATM   13  C   UNL     1     -11.693  13.651  69.510  1.00  0.00    -0.322 A  
BRANCH  10  14
HETATM   14  C   UNL     1     -12.551  13.852  65.940  1.00  0.00    -0.456 C  
BRANCH  14  15
HETATM   15  S   UNL     1     -11.274  14.237  64.717  1.00  0.00    -0.379 S  
HETATM   16  O   UNL     1     -11.827  14.462  63.340  1.00  0.00     0.039 OA 
BRANCH  15  17
HETATM   17  C   UNL     1     -10.750  15.792  65.283  1.00  0.00    -0.428 A  
HETATM   18  N   UNL     1     -11.176  16.958  64.847  1.00  0.00    -0.606 NA 
HETATM   19  C   UNL     1     -10.570  17.891  65.659  1.00  0.00    -0.109 A  
HETATM   20  H   UNL     1     -11.818  17.134  64.074  1.00  0.00     0.000 HD 
HETATM   21  C   UNL     1     -10.668  19.290  65.647  1.00  0.00    -0.335 A  
HETATM   22  C   UNL     1      -9.993  20.022  66.633  1.00  0.00    -0.598 A  
HETATM   23  C   UNL     1      -9.234  19.376  67.612  1.00  0.00    -0.375 A  
HETATM   24  C   UNL     1      -9.102  17.982  67.625  1.00  0.00    -0.255 A  
HETATM   25  C   UNL     1      -9.776  17.276  66.623  1.00  0.00    -0.288 A  
HETATM   26  N   UNL     1      -9.863  15.941  66.320  1.00  0.00    -0.280 NA 
ENDBRANCH  15  17
ENDBRANCH  14  15
ENDBRANCH  10  14
ENDBRANCH   6   7
ENDBRANCH   5   6
ENDBRANCH   4   5
ENDBRANCH   3   4
ENDBRANCH   2   3
TORSDOF 8
ENDMDL
MODEL      151
REMARK 921   NORMALIZED FREE ENERGY PREDICTED BY IDOCK:   -4.30 KCAL/MOL
REMARK 922        TOTAL FREE ENERGY PREDICTED BY IDOCK:   -7.18 KCAL/MOL
REMARK 923 INTER-LIGAND FREE ENERGY PREDICTED BY IDOCK:   -6.43 KCAL/MOL
REMARK 924 INTRA-LIGAND FREE ENERGY PREDICTED BY IDOCK:   -0.75 KCAL/MOL
REMARK 927      BINDING AFFINITY PREDICTED BY RF-SCORE:    0.00 PKD
ROOT
HETATM    1  C   UNL     1      -8.025   6.910  67.145  1.00  0.00    -0.113 C  
HETATM    2  O   UNL     1      -9.008   6.413  68.045  1.00  0.00    -0.117 OA 
ENDROOT
BRANCH   2   3
HETATM    3  C   UNL     1     -10.186   7.216  68.050  1.00  0.00    -0.185 C  
BRANCH   3   4
HETATM    4  C   UNL     1      -9.849   8.607  67.527  1.00  0.00    -0.234 C  
BRANCH   4   5
HETATM    5  C   UNL     1     -10.108   9.688  68.577  1.00  0.00    -0.175 C  
BRANCH   5   6
HETATM    6  O   UNL     1     -11.483  10.096  68.494  1.00  0.00    -0.170 OA 
BRANCH   6   7
HETATM    7  C   UNL     1     -11.683  11.383  68.051  1.00  0.00    -0.254 A  
HETATM    8  C   UNL     1     -11.906  12.379  69.021  1.00  0.00    -0.349 A  
HETATM    9  C   UNL     1     -12.028  12.007  70.472  1.00  0.00    -0.338 C  
HETATM   10  C   UNL     1     -11.962  13.715  68.586  1.00  0.00    -0.360 A  
HETATM   11  C   UNL     1     -11.681  11.720  66.700  1.00  0.00    -0.174 A  
HETATM   12  N   UNL     1     -11.905  14.043  67.263  1.00  0.00    -0.390 NA 
HETATM   13  C   UNL     1     -11.807  13.048  66.359  1.00  0.00    -0.405 A  
BRANCH  10  14
HETATM   14  C   UNL     1     -11.972  14.901  69.531  1.00  0.00    -0.310 C  
BRANCH  14  15
HETATM   15  S   UNL     1     -10.296  15.401  69.993  1.00  0.00    -0.221 S  
HETATM   16  O   UNL     1      -9.266  14.353  69.690  1.00  0.00     0.315 OA 
BRANCH  15  17
HETATM   17  C   UNL     1     -10.022  16.683  68.855  1.00  0.00    -0.271 A  
HETATM   18  N   UNL     1     -10.843  17.679  68.597  1.00  0.00    -0.271 NA 
HETATM   19  C   UNL     1     -10.159  18.494  67.724  1.00  0.00    -0.364 A  
HETATM   20  H   UNL     1     -11.785  17.816  68.964  1.00  0.00     0.000 HD 
HETATM   21  C   UNL     1     -10.555  19.699  67.124  1.00  0.00    -0.611 A  
HETATM   22  C   UNL     1      -9.639  20.382  66.312  1.00  0.00    -0.337 A  
HETATM   23  C   UNL     1      -8.353  19.876  66.101  1.00  0.00    -0.345 A  
HETATM   24  C   UNL     1      -7.949  18.662  66.669  1.00  0.00    -0.280 A  
HETATM   25  C   UNL     1      -8.886  17.995  67.464  1.00  0.00    -0.252 A  
HETATM   26  N   UNL     1      -8.849  16.808  68.152  1.00  0.00    -0.217 NA 
ENDBRANCH  15  17
ENDBRANCH  14  15
ENDBRANCH  10  14
ENDBRANCH   6   7
ENDBRANCH   5   6
ENDBRANCH   4   5
ENDBRANCH   3   4
ENDBRANCH   2   3
TORSDOF 8
ENDMDL
MODEL      152
REMARK 921   NORMALIZED FREE ENERGY PREDICTED BY IDOCK:   -4.26 KCAL/MOL
REMARK 922        TOTAL FREE ENERGY PREDICTED BY IDOCK:   -7.13 KCAL/MOL
REMARK 923 INTER-LIGAND FREE ENERGY PREDICTED BY IDOCK:   -6.16 KCAL/MOL
REMARK 924 INTRA-LIGAND FREE ENERGY PREDICTED BY IDOCK:   -0.97 KCAL/MOL
REMARK 927      BINDING AFFINITY PREDICTED BY RF-SCORE:    0.00 PKD
ROOT
HETATM    1  C   UNL     1      -7.924   8.203  73.229  1.00  0.00    -0.178 C  
HETATM    2  O   UNL     1      -9.224   7.715  73.535  1.00  0.00    -0.225 OA 
ENDROOT
BRANCH   2   3
HETATM    3  C   UNL     1     -10.212   8.222  72.639  1.00  0.00    -0.298 C  
BRANCH   3   4
HETATM    4  C   UNL     1     -11.263   7.147  72.389  1.00  0.00    -0.309 C  
BRANCH   4   5
HETATM    5  C   UNL     1     -10.636   5.762  72.238  1.00  0.00    -0.218 C  
BRANCH   5   6
HETATM    6  O   UNL     1     -10.668   5.386  70.852  1.00  0.00    -0.238 OA 
BRANCH   6   7
HETATM    7  C   UNL     1      -9.562   5.757  70.122  1.00  0.00    -0.166 A  
HETATM    8  C   UNL     1      -9.776   6.266  68.826  1.00  0.00    -0.141 A  
HETATM    9  C   UNL     1     -11.161   6.287  68.242  1.00  0.00    -0.364 C  
HETATM   10  C   UNL     1      -8.666   6.783  68.135  1.00  0.00    -0.122 A  
HETATM   11  C   UNL     1      -8.264   5.638  70.614  1.00  0.00    -0.118 A  
HETATM   12  N   UNL     1      -7.404   6.712  68.647  1.00  0.00    -0.085 NA 
HETATM   13  C   UNL     1      -7.229   6.114  69.842  1.00  0.00    -0.074 A  
BRANCH  10  14
HETATM   14  C   UNL     1      -8.779   7.559  66.837  1.00  0.00    -0.129 C  
BRANCH  14  15
HETATM   15  S   UNL     1      -8.051   9.209  66.980  1.00  0.00    -0.109 S  
HETATM   16  O   UNL     1      -6.831   9.388  66.124  1.00  0.00    -0.083 OA 
BRANCH  15  17
HETATM   17  C   UNL     1      -9.295  10.171  66.246  1.00  0.00    -0.172 A  
HETATM   18  N   UNL     1     -10.092  11.013  66.868  1.00  0.00    -0.203 NA 
HETATM   19  C   UNL     1     -10.826  11.618  65.873  1.00  0.00    -0.287 A  
HETATM   20  H   UNL     1     -10.153  11.181  67.873  1.00  0.00     0.000 HD 
HETATM   21  C   UNL     1     -11.823  12.602  65.966  1.00  0.00    -0.492 A  
HETATM   22  C   UNL     1     -12.381  13.110  64.784  1.00  0.00    -0.477 A  
HETATM   23  C   UNL     1     -11.957  12.648  63.535  1.00  0.00    -0.630 A  
HETATM   24  C   UNL     1     -10.983  11.648  63.424  1.00  0.00    -0.442 A  
HETATM   25  C   UNL     1     -10.451  11.150  64.618  1.00  0.00    -0.335 A  
HETATM   26  N   UNL     1      -9.516  10.184  64.890  1.00  0.00    -0.265 NA 
ENDBRANCH  15  17
ENDBRANCH  14  15
ENDBRANCH  10  14
ENDBRANCH   6   7
ENDBRANCH   5   6
ENDBRANCH   4   5
ENDBRANCH   3   4
ENDBRANCH   2   3
TORSDOF 8
ENDMDL
MODEL      153
REMARK 921   NORMALIZED FREE ENERGY PREDICTED BY IDOCK:   -4.24 KCAL/MOL
REMARK 922        TOTAL FREE ENERGY PREDICTED BY IDOCK:   -7.10 KCAL/MOL
REMARK 923 INTER-LIGAND FREE ENERGY PREDICTED BY IDOCK:   -6.41 KCAL/MOL
REMARK 924 INTRA-LIGAND FREE ENERGY PREDICTED BY IDOCK:   -0.69 KCAL/MOL
REMARK 927      BINDING AFFINITY PREDICTED BY RF-SCORE:    0.00 PKD
ROOT
HETATM    1  C   UNL     1      -6.638  17.271  68.441  1.00  0.00    -0.174 C  
HETATM    2  O   UNL     1      -7.175  17.089  67.137  1.00  0.00    -0.148 OA 
ENDROOT
BRANCH   2   3
HETATM    3  C   UNL     1      -8.356  16.290  67.150  1.00  0.00    -0.191 C  
BRANCH   3   4
HETATM    4  C   UNL     1      -9.557  17.160  66.799  1.00  0.00    -0.279 C  
BRANCH   4   5
HETATM    5  C   UNL     1     -10.749  16.882  67.715  1.00  0.00    -0.315 C  
BRANCH   5   6
HETATM    6  O   UNL     1     -11.290  15.591  67.394  1.00  0.00    -0.302 OA 
BRANCH   6   7
HETATM    7  C   UNL     1     -11.690  14.841  68.476  1.00  0.00    -0.317 A  
HETATM    8  C   UNL     1     -11.868  13.458  68.282  1.00  0.00    -0.393 A  
HETATM    9  C   UNL     1     -11.730  12.864  66.908  1.00  0.00    -0.445 C  
HETATM   10  C   UNL     1     -12.132  12.667  69.414  1.00  0.00    -0.179 A  
HETATM   11  C   UNL     1     -11.928  15.401  69.729  1.00  0.00    -0.381 A  
HETATM   12  N   UNL     1     -12.311  13.217  70.649  1.00  0.00    -0.356 NA 
HETATM   13  C   UNL     1     -12.244  14.558  70.770  1.00  0.00    -0.333 A  
BRANCH  10  14
HETATM   14  C   UNL     1     -12.125  11.150  69.393  1.00  0.00    -0.326 C  
BRANCH  14  15
HETATM   15  S   UNL     1     -11.914  10.459  71.051  1.00  0.00    -0.377 S  
HETATM   16  O   UNL     1     -13.088   9.639  71.499  1.00  0.00    -0.353 OA 
BRANCH  15  17
HETATM   17  C   UNL     1     -10.625   9.333  70.764  1.00  0.00    -0.285 A  
HETATM   18  N   UNL     1      -9.368   9.639  70.522  1.00  0.00    -0.326 NA 
HETATM   19  C   UNL     1      -8.705   8.433  70.475  1.00  0.00    -0.147 A  
HETATM   20  H   UNL     1      -8.970  10.570  70.396  1.00  0.00     0.000 HD 
HETATM   21  C   UNL     1      -7.346   8.164  70.251  1.00  0.00    -0.059 A  
HETATM   22  C   UNL     1      -6.901   6.837  70.318  1.00  0.00    -0.061 A  
HETATM   23  C   UNL     1      -7.790   5.797  70.600  1.00  0.00    -0.101 A  
HETATM   24  C   UNL     1      -9.154   6.042  70.799  1.00  0.00    -0.161 A  
HETATM   25  C   UNL     1      -9.574   7.373  70.716  1.00  0.00    -0.170 A  
HETATM   26  N   UNL     1     -10.802   7.973  70.837  1.00  0.00    -0.226 NA 
ENDBRANCH  15  17
ENDBRANCH  14  15
ENDBRANCH  10  14
ENDBRANCH   6   7
ENDBRANCH   5   6
ENDBRANCH   4   5
ENDBRANCH   3   4
ENDBRANCH   2   3
TORSDOF 8
ENDMDL
MODEL      154
REMARK 921   NORMALIZED FREE ENERGY PREDICTED BY IDOCK:   -4.24 KCAL/MOL
REMARK 922        TOTAL FREE ENERGY PREDICTED BY IDOCK:   -7.09 KCAL/MOL
REMARK 923 INTER-LIGAND FREE ENERGY PREDICTED BY IDOCK:   -6.37 KCAL/MOL
REMARK 924 INTRA-LIGAND FREE ENERGY PREDICTED BY IDOCK:   -0.72 KCAL/MOL
REMARK 927      BINDING AFFINITY PREDICTED BY RF-SCORE:    0.00 PKD
ROOT
HETATM    1  C   UNL     1     -12.263   8.426  71.994  1.00  0.00    -0.362 C  
HETATM    2  O   UNL     1     -11.722   7.206  72.484  1.00  0.00    -0.257 OA 
ENDROOT
BRANCH   2   3
HETATM    3  C   UNL     1     -10.405   6.966  71.991  1.00  0.00    -0.199 C  
BRANCH   3   4
HETATM    4  C   UNL     1     -10.374   5.623  71.271  1.00  0.00    -0.289 C  
BRANCH   4   5
HETATM    5  C   UNL     1      -9.426   5.642  70.072  1.00  0.00    -0.158 C  
BRANCH   5   6
HETATM    6  O   UNL     1      -8.647   6.848  70.114  1.00  0.00    -0.138 OA 
BRANCH   6   7
HETATM    7  C   UNL     1      -8.638   7.577  68.947  1.00  0.00    -0.129 A  
HETATM    8  C   UNL     1      -8.960   8.946  69.031  1.00  0.00    -0.137 A  
HETATM    9  C   UNL     1      -9.403   9.540  70.339  1.00  0.00    -0.311 C  
HETATM   10  C   UNL     1      -8.809   9.725  67.870  1.00  0.00    -0.122 A  
HETATM   11  C   UNL     1      -8.336   7.011  67.712  1.00  0.00    -0.117 A  
HETATM   12  N   UNL     1      -8.459   9.173  66.674  1.00  0.00    -0.121 NA 
HETATM   13  C   UNL     1      -8.271   7.839  66.614  1.00  0.00    -0.123 A  
BRANCH  10  14
HETATM   14  C   UNL     1      -8.901  11.239  67.864  1.00  0.00    -0.142 C  
BRANCH  14  15
HETATM   15  S   UNL     1     -10.519  11.808  67.290  1.00  0.00    -0.220 S  
HETATM   16  O   UNL     1     -11.520  10.697  67.160  1.00  0.00    -0.359 OA 
BRANCH  15  17
HETATM   17  C   UNL     1     -11.027  12.752  68.655  1.00  0.00    -0.260 A  
HETATM   18  N   UNL     1     -10.812  14.039  68.830  1.00  0.00    -0.255 NA 
HETATM   19  C   UNL     1     -11.488  14.364  69.985  1.00  0.00    -0.238 A  
HETATM   20  H   UNL     1     -10.262  14.661  68.238  1.00  0.00     0.000 HD 
HETATM   21  C   UNL     1     -11.604  15.600  70.639  1.00  0.00    -0.394 A  
HETATM   22  C   UNL     1     -12.415  15.686  71.779  1.00  0.00    -0.507 A  
HETATM   23  C   UNL     1     -13.095  14.565  72.261  1.00  0.00    -0.458 A  
HETATM   24  C   UNL     1     -12.970  13.317  71.638  1.00  0.00    -0.441 A  
HETATM   25  C   UNL     1     -12.147  13.256  70.509  1.00  0.00    -0.314 A  
HETATM   26  N   UNL     1     -11.785  12.229  69.674  1.00  0.00    -0.317 NA 
ENDBRANCH  15  17
ENDBRANCH  14  15
ENDBRANCH  10  14
ENDBRANCH   6   7
ENDBRANCH   5   6
ENDBRANCH   4   5
ENDBRANCH   3   4
ENDBRANCH   2   3
TORSDOF 8
ENDMDL
MODEL      155
REMARK 921   NORMALIZED FREE ENERGY PREDICTED BY IDOCK:   -4.23 KCAL/MOL
REMARK 922        TOTAL FREE ENERGY PREDICTED BY IDOCK:   -7.07 KCAL/MOL
REMARK 923 INTER-LIGAND FREE ENERGY PREDICTED BY IDOCK:   -5.69 KCAL/MOL
REMARK 924 INTRA-LIGAND FREE ENERGY PREDICTED BY IDOCK:   -1.39 KCAL/MOL
REMARK 927      BINDING AFFINITY PREDICTED BY RF-SCORE:    0.00 PKD
ROOT
HETATM    1  C   UNL     1     -11.599  12.541  67.309  1.00  0.00    -0.367 C  
HETATM    2  O   UNL     1     -12.127  11.275  67.686  1.00  0.00    -0.600 OA 
ENDROOT
BRANCH   2   3
HETATM    3  C   UNL     1     -11.297  10.609  68.636  1.00  0.00    -0.281 C  
BRANCH   3   4
HETATM    4  C   UNL     1     -11.852  10.839  70.037  1.00  0.00    -0.424 C  
BRANCH   4   5
HETATM    5  C   UNL     1     -11.263   9.858  71.050  1.00  0.00    -0.364 C  
BRANCH   5   6
HETATM    6  O   UNL     1     -11.984   8.618  70.969  1.00  0.00    -0.290 OA 
BRANCH   6   7
HETATM    7  C   UNL     1     -11.416   7.568  71.652  1.00  0.00    -0.261 A  
HETATM    8  C   UNL     1     -11.058   6.425  70.911  1.00  0.00    -0.354 A  
HETATM    9  C   UNL     1     -11.398   6.335  69.450  1.00  0.00    -0.448 C  
HETATM   10  C   UNL     1     -10.344   5.412  71.575  1.00  0.00    -0.225 A  
HETATM   11  C   UNL     1     -11.197   7.598  73.027  1.00  0.00    -0.388 A  
HETATM   12  N   UNL     1     -10.085   5.473  72.913  1.00  0.00    -0.172 NA 
HETATM   13  C   UNL     1     -10.546   6.533  73.607  1.00  0.00    -0.286 A  
BRANCH  10  14
HETATM   14  C   UNL     1      -9.704   4.237  70.861  1.00  0.00    -0.196 C  
BRANCH  14  15
HETATM   15  S   UNL     1      -7.898   4.349  70.876  1.00  0.00    -0.068 S  
HETATM   16  O   UNL     1      -7.245   3.445  69.872  1.00  0.00    -0.041 OA 
BRANCH  15  17
HETATM   17  C   UNL     1      -7.675   5.965  70.281  1.00  0.00    -0.096 A  
HETATM   18  N   UNL     1      -7.818   6.358  69.034  1.00  0.00    -0.108 NA 
HETATM   19  C   UNL     1      -7.652   7.724  69.064  1.00  0.00    -0.100 A  
HETATM   20  H   UNL     1      -8.011   5.775  68.219  1.00  0.00     0.000 HD 
HETATM   21  C   UNL     1      -7.704   8.658  68.018  1.00  0.00    -0.102 A  
HETATM   22  C   UNL     1      -7.566  10.019  68.321  1.00  0.00    -0.084 A  
HETATM   23  C   UNL     1      -7.378  10.444  69.639  1.00  0.00    -0.156 A  
HETATM   24  C   UNL     1      -7.296   9.526  70.693  1.00  0.00    -0.133 A  
HETATM   25  C   UNL     1      -7.426   8.173  70.361  1.00  0.00    -0.067 A  
HETATM   26  N   UNL     1      -7.386   7.023  71.108  1.00  0.00    -0.076 NA 
ENDBRANCH  15  17
ENDBRANCH  14  15
ENDBRANCH  10  14
ENDBRANCH   6   7
ENDBRANCH   5   6
ENDBRANCH   4   5
ENDBRANCH   3   4
ENDBRANCH   2   3
TORSDOF 8
ENDMDL
MODEL      156
REMARK 921   NORMALIZED FREE ENERGY PREDICTED BY IDOCK:   -4.21 KCAL/MOL
REMARK 922        TOTAL FREE ENERGY PREDICTED BY IDOCK:   -7.06 KCAL/MOL
REMARK 923 INTER-LIGAND FREE ENERGY PREDICTED BY IDOCK:   -6.24 KCAL/MOL
REMARK 924 INTRA-LIGAND FREE ENERGY PREDICTED BY IDOCK:   -0.81 KCAL/MOL
REMARK 927      BINDING AFFINITY PREDICTED BY RF-SCORE:    0.00 PKD
ROOT
HETATM    1  C   UNL     1     -12.415  15.215  73.790  1.00  0.00    -0.586 C  
HETATM    2  O   UNL     1     -12.231  16.079  72.676  1.00  0.00    -0.438 OA 
ENDROOT
BRANCH   2   3
HETATM    3  C   UNL     1     -13.015  15.682  71.553  1.00  0.00    -0.478 C  
BRANCH   3   4
HETATM    4  C   UNL     1     -12.252  15.995  70.271  1.00  0.00    -0.122 C  
BRANCH   4   5
HETATM    5  C   UNL     1     -11.687  14.731  69.623  1.00  0.00    -0.314 C  
BRANCH   5   6
HETATM    6  O   UNL     1     -11.070  15.086  68.375  1.00  0.00    -0.255 OA 
BRANCH   6   7
HETATM    7  C   UNL     1     -11.100  14.105  67.411  1.00  0.00    -0.306 A  
HETATM    8  C   UNL     1      -9.914  13.383  67.178  1.00  0.00    -0.242 A  
HETATM    9  C   UNL     1      -8.645  13.764  67.889  1.00  0.00    -0.183 C  
HETATM   10  C   UNL     1      -9.978  12.284  66.303  1.00  0.00    -0.232 A  
HETATM   11  C   UNL     1     -12.243  13.818  66.668  1.00  0.00    -0.454 A  
HETATM   12  N   UNL     1     -11.116  11.975  65.619  1.00  0.00    -0.305 NA 
HETATM   13  C   UNL     1     -12.198  12.762  65.785  1.00  0.00    -0.408 A  
BRANCH  10  14
HETATM   14  C   UNL     1      -8.847  11.288  66.130  1.00  0.00    -0.190 C  
BRANCH  14  15
HETATM   15  S   UNL     1      -9.417   9.585  66.351  1.00  0.00    -0.213 S  
HETATM   16  O   UNL     1      -8.510   8.574  65.712  1.00  0.00    -0.136 OA 
BRANCH  15  17
HETATM   17  C   UNL     1      -9.209   9.400  68.064  1.00  0.00    -0.130 A  
HETATM   18  N   UNL     1     -10.106   8.937  68.908  1.00  0.00    -0.192 NA 
HETATM   19  C   UNL     1      -9.459   8.868  70.121  1.00  0.00    -0.180 A  
HETATM   20  H   UNL     1     -11.074   8.685  68.706  1.00  0.00     0.000 HD 
HETATM   21  C   UNL     1      -9.937   8.442  71.370  1.00  0.00    -0.275 A  
HETATM   22  C   UNL     1      -9.049   8.403  72.454  1.00  0.00    -0.326 A  
HETATM   23  C   UNL     1      -7.713   8.782  72.300  1.00  0.00     0.034 A  
HETATM   24  C   UNL     1      -7.225   9.236  71.069  1.00  0.00    -0.089 A  
HETATM   25  C   UNL     1      -8.133   9.275  70.007  1.00  0.00    -0.135 A  
HETATM   26  N   UNL     1      -8.019   9.666  68.697  1.00  0.00    -0.088 NA 
ENDBRANCH  15  17
ENDBRANCH  14  15
ENDBRANCH  10  14
ENDBRANCH   6   7
ENDBRANCH   5   6
ENDBRANCH   4   5
ENDBRANCH   3   4
ENDBRANCH   2   3
TORSDOF 8
ENDMDL
MODEL      157
REMARK 921   NORMALIZED FREE ENERGY PREDICTED BY IDOCK:   -4.21 KCAL/MOL
REMARK 922        TOTAL FREE ENERGY PREDICTED BY IDOCK:   -7.05 KCAL/MOL
REMARK 923 INTER-LIGAND FREE ENERGY PREDICTED BY IDOCK:   -6.22 KCAL/MOL
REMARK 924 INTRA-LIGAND FREE ENERGY PREDICTED BY IDOCK:   -0.83 KCAL/MOL
REMARK 927      BINDING AFFINITY PREDICTED BY RF-SCORE:    0.00 PKD
ROOT
HETATM    1  C   UNL     1      -6.723   5.915  72.240  1.00  0.00    -0.072 C  
HETATM    2  O   UNL     1      -7.550   6.572  73.192  1.00  0.00    -0.089 OA 
ENDROOT
BRANCH   2   3
HETATM    3  C   UNL     1      -8.407   5.661  73.877  1.00  0.00    -0.113 C  
BRANCH   3   4
HETATM    4  C   UNL     1      -9.662   6.396  74.334  1.00  0.00    -0.310 C  
BRANCH   4   5
HETATM    5  C   UNL     1      -9.968   7.603  73.446  1.00  0.00    -0.314 C  
BRANCH   5   6
HETATM    6  O   UNL     1     -11.114   7.303  72.634  1.00  0.00    -0.272 OA 
BRANCH   6   7
HETATM    7  C   UNL     1     -10.857   7.176  71.289  1.00  0.00    -0.233 A  
HETATM    8  C   UNL     1     -11.239   8.240  70.448  1.00  0.00    -0.222 A  
HETATM    9  C   UNL     1     -11.998   9.411  71.008  1.00  0.00    -0.389 C  
HETATM   10  C   UNL     1     -10.847   8.181  69.099  1.00  0.00    -0.016 A  
HETATM   11  C   UNL     1     -10.253   6.046  70.744  1.00  0.00    -0.258 A  
HETATM   12  N   UNL     1     -10.206   7.093  68.584  1.00  0.00    -0.173 NA 
HETATM   13  C   UNL     1      -9.962   6.047  69.398  1.00  0.00    -0.174 A  
BRANCH  10  14
HETATM   14  C   UNL     1     -10.989   9.345  68.138  1.00  0.00    -0.045 C  
BRANCH  14  15
HETATM   15  S   UNL     1      -9.599  10.496  68.271  1.00  0.00    -0.163 S  
HETATM   16  O   UNL     1      -8.360  10.002  67.583  1.00  0.00    -0.114 OA 
BRANCH  15  17
HETATM   17  C   UNL     1     -10.186  11.816  67.309  1.00  0.00    -0.203 A  
HETATM   18  N   UNL     1      -9.513  12.900  66.987  1.00  0.00    -0.228 NA 
HETATM   19  C   UNL     1     -10.337  13.597  66.133  1.00  0.00    -0.297 A  
HETATM   20  H   UNL     1      -8.580  13.166  67.304  1.00  0.00     0.000 HD 
HETATM   21  C   UNL     1     -10.125  14.823  65.483  1.00  0.00    -0.409 A  
HETATM   22  C   UNL     1     -11.106  15.296  64.600  1.00  0.00    -0.346 A  
HETATM   23  C   UNL     1     -12.275  14.566  64.370  1.00  0.00    -0.480 A  
HETATM   24  C   UNL     1     -12.517  13.355  65.030  1.00  0.00    -0.479 A  
HETATM   25  C   UNL     1     -11.528  12.911  65.913  1.00  0.00    -0.346 A  
HETATM   26  N   UNL     1     -11.429  11.808  66.723  1.00  0.00    -0.476 NA 
ENDBRANCH  15  17
ENDBRANCH  14  15
ENDBRANCH  10  14
ENDBRANCH   6   7
ENDBRANCH   5   6
ENDBRANCH   4   5
ENDBRANCH   3   4
ENDBRANCH   2   3
TORSDOF 8
ENDMDL
MODEL      158
REMARK 921   NORMALIZED FREE ENERGY PREDICTED BY IDOCK:   -4.21 KCAL/MOL
REMARK 922        TOTAL FREE ENERGY PREDICTED BY IDOCK:   -7.04 KCAL/MOL
REMARK 923 INTER-LIGAND FREE ENERGY PREDICTED BY IDOCK:   -6.53 KCAL/MOL
REMARK 924 INTRA-LIGAND FREE ENERGY PREDICTED BY IDOCK:   -0.51 KCAL/MOL
REMARK 927      BINDING AFFINITY PREDICTED BY RF-SCORE:    0.00 PKD
ROOT
HETATM    1  C   UNL     1     -10.849   6.161  73.048  1.00  0.00    -0.257 C  
HETATM    2  O   UNL     1     -10.853   7.005  71.903  1.00  0.00    -0.220 OA 
ENDROOT
BRANCH   2   3
HETATM    3  C   UNL     1     -11.311   8.320  72.207  1.00  0.00    -0.378 C  
BRANCH   3   4
HETATM    4  C   UNL     1     -12.818   8.392  71.988  1.00  0.00    -0.389 C  
BRANCH   4   5
HETATM    5  C   UNL     1     -13.251   9.759  71.459  1.00  0.00    -0.404 C  
BRANCH   5   6
HETATM    6  O   UNL     1     -12.330  10.177  70.440  1.00  0.00    -0.257 OA 
BRANCH   6   7
HETATM    7  C   UNL     1     -12.279  11.534  70.221  1.00  0.00    -0.332 A  
HETATM    8  C   UNL     1     -11.845  11.975  68.956  1.00  0.00    -0.372 A  
HETATM    9  C   UNL     1     -11.354  10.984  67.937  1.00  0.00    -0.381 C  
HETATM   10  C   UNL     1     -11.932  13.351  68.677  1.00  0.00    -0.327 A  
HETATM   11  C   UNL     1     -12.627  12.465  71.197  1.00  0.00    -0.349 A  
HETATM   12  N   UNL     1     -12.326  14.252  69.622  1.00  0.00    -0.313 NA 
HETATM   13  C   UNL     1     -12.623  13.799  70.856  1.00  0.00    -0.356 A  
BRANCH  10  14
HETATM   14  C   UNL     1     -11.715  13.938  67.296  1.00  0.00    -0.386 C  
BRANCH  14  15
HETATM   15  S   UNL     1     -10.087  14.710  67.145  1.00  0.00    -0.246 S  
HETATM   16  O   UNL     1      -9.806  15.706  68.232  1.00  0.00    -0.207 OA 
BRANCH  15  17
HETATM   17  C   UNL     1      -9.058  13.349  67.466  1.00  0.00    -0.215 A  
HETATM   18  N   UNL     1      -8.395  13.125  68.580  1.00  0.00    -0.339 NA 
HETATM   19  C   UNL     1      -7.818  11.886  68.414  1.00  0.00    -0.141 A  
HETATM   20  H   UNL     1      -8.323  13.738  69.393  1.00  0.00     0.000 HD 
HETATM   21  C   UNL     1      -7.004  11.151  69.289  1.00  0.00    -0.118 A  
HETATM   22  C   UNL     1      -6.591   9.867  68.908  1.00  0.00    -0.045 A  
HETATM   23  C   UNL     1      -6.979   9.325  67.680  1.00  0.00    -0.078 A  
HETATM   24  C   UNL     1      -7.768  10.054  66.782  1.00  0.00    -0.103 A  
HETATM   25  C   UNL     1      -8.157  11.336  67.182  1.00  0.00    -0.150 A  
HETATM   26  N   UNL     1      -8.899  12.317  66.574  1.00  0.00    -0.171 NA 
ENDBRANCH  15  17
ENDBRANCH  14  15
ENDBRANCH  10  14
ENDBRANCH   6   7
ENDBRANCH   5   6
ENDBRANCH   4   5
ENDBRANCH   3   4
ENDBRANCH   2   3
TORSDOF 8
ENDMDL
MODEL      159
REMARK 921   NORMALIZED FREE ENERGY PREDICTED BY IDOCK:   -4.20 KCAL/MOL
REMARK 922        TOTAL FREE ENERGY PREDICTED BY IDOCK:   -7.04 KCAL/MOL
REMARK 923 INTER-LIGAND FREE ENERGY PREDICTED BY IDOCK:   -6.13 KCAL/MOL
REMARK 924 INTRA-LIGAND FREE ENERGY PREDICTED BY IDOCK:   -0.91 KCAL/MOL
REMARK 927      BINDING AFFINITY PREDICTED BY RF-SCORE:    0.00 PKD
ROOT
HETATM    1  C   UNL     1     -12.284  14.784  64.398  1.00  0.00    -0.428 C  
HETATM    2  O   UNL     1     -12.139  13.561  65.110  1.00  0.00    -0.363 OA 
ENDROOT
BRANCH   2   3
HETATM    3  C   UNL     1     -12.696  12.457  64.399  1.00  0.00    -0.342 C  
BRANCH   3   4
HETATM    4  C   UNL     1     -11.598  11.773  63.592  1.00  0.00    -0.521 C  
BRANCH   4   5
HETATM    5  C   UNL     1     -10.256  11.796  64.324  1.00  0.00    -0.302 C  
BRANCH   5   6
HETATM    6  O   UNL     1     -10.321  10.894  65.440  1.00  0.00    -0.268 OA 
BRANCH   6   7
HETATM    7  C   UNL     1      -9.509  11.222  66.501  1.00  0.00    -0.193 A  
HETATM    8  C   UNL     1      -8.573  10.259  66.928  1.00  0.00    -0.127 A  
HETATM    9  C   UNL     1      -8.558   8.891  66.305  1.00  0.00    -0.145 C  
HETATM   10  C   UNL     1      -7.643  10.641  67.911  1.00  0.00    -0.091 A  
HETATM   11  C   UNL     1      -9.590  12.447  67.158  1.00  0.00    -0.206 A  
HETATM   12  N   UNL     1      -7.694  11.865  68.512  1.00  0.00    -0.133 NA 
HETATM   13  C   UNL     1      -8.678  12.714  68.154  1.00  0.00    -0.190 A  
BRANCH  10  14
HETATM   14  C   UNL     1      -6.448   9.794  68.303  1.00  0.00    -0.056 C  
BRANCH  14  15
HETATM   15  S   UNL     1      -6.474   9.375  70.062  1.00  0.00    -0.064 S  
HETATM   16  O   UNL     1      -6.390  10.579  70.955  1.00  0.00    -0.331 OA 
BRANCH  15  17
HETATM   17  C   UNL     1      -8.095   8.773  70.221  1.00  0.00    -0.116 A  
HETATM   18  N   UNL     1      -8.550   7.637  69.739  1.00  0.00    -0.134 NA 
HETATM   19  C   UNL     1      -9.841   7.537  70.207  1.00  0.00    -0.183 A  
HETATM   20  H   UNL     1      -8.054   6.973  69.144  1.00  0.00     0.000 HD 
HETATM   21  C   UNL     1     -10.794   6.527  70.004  1.00  0.00    -0.342 A  
HETATM   22  C   UNL     1     -12.032   6.628  70.652  1.00  0.00    -0.404 A  
HETATM   23  C   UNL     1     -12.319   7.713  71.484  1.00  0.00    -0.356 A  
HETATM   24  C   UNL     1     -11.392   8.745  71.677  1.00  0.00    -0.390 A  
HETATM   25  C   UNL     1     -10.169   8.625  71.010  1.00  0.00    -0.220 A  
HETATM   26  N   UNL     1      -9.057   9.426  70.952  1.00  0.00    -0.221 NA 
ENDBRANCH  15  17
ENDBRANCH  14  15
ENDBRANCH  10  14
ENDBRANCH   6   7
ENDBRANCH   5   6
ENDBRANCH   4   5
ENDBRANCH   3   4
ENDBRANCH   2   3
TORSDOF 8
ENDMDL
MODEL      160
REMARK 921   NORMALIZED FREE ENERGY PREDICTED BY IDOCK:   -4.19 KCAL/MOL
REMARK 922        TOTAL FREE ENERGY PREDICTED BY IDOCK:   -7.03 KCAL/MOL
REMARK 923 INTER-LIGAND FREE ENERGY PREDICTED BY IDOCK:   -7.04 KCAL/MOL
REMARK 924 INTRA-LIGAND FREE ENERGY PREDICTED BY IDOCK:    0.01 KCAL/MOL
REMARK 927      BINDING AFFINITY PREDICTED BY RF-SCORE:    0.00 PKD
ROOT
HETATM    1  C   UNL     1      -5.800   9.925  66.102  1.00  0.00    -0.060 C  
HETATM    2  O   UNL     1      -6.725   9.044  66.728  1.00  0.00    -0.073 OA 
ENDROOT
BRANCH   2   3
HETATM    3  C   UNL     1      -7.959   8.969  66.017  1.00  0.00    -0.103 C  
BRANCH   3   4
HETATM    4  C   UNL     1      -7.898   9.890  64.805  1.00  0.00    -0.141 C  
BRANCH   4   5
HETATM    5  C   UNL     1      -9.115  10.812  64.730  1.00  0.00    -0.200 C  
BRANCH   5   6
HETATM    6  O   UNL     1      -9.526  11.149  66.064  1.00  0.00    -0.193 OA 
BRANCH   6   7
HETATM    7  C   UNL     1     -10.339  12.254  66.162  1.00  0.00    -0.242 A  
HETATM    8  C   UNL     1      -9.750  13.462  66.584  1.00  0.00    -0.275 A  
HETATM    9  C   UNL     1      -8.310  13.492  67.013  1.00  0.00    -0.096 C  
HETATM   10  C   UNL     1     -10.541  14.624  66.543  1.00  0.00    -0.300 A  
HETATM   11  C   UNL     1     -11.700  12.212  65.872  1.00  0.00    -0.393 A  
HETATM   12  N   UNL     1     -11.861  14.584  66.205  1.00  0.00    -0.363 NA 
HETATM   13  C   UNL     1     -12.414  13.388  65.919  1.00  0.00    -0.408 A  
BRANCH  10  14
HETATM   14  C   UNL     1      -9.984  16.020  66.751  1.00  0.00    -0.258 C  
BRANCH  14  15
HETATM   15  S   UNL     1      -9.139  16.172  68.343  1.00  0.00    -0.207 S  
HETATM   16  O   UNL     1      -8.906  17.598  68.750  1.00  0.00    -0.278 OA 
BRANCH  15  17
HETATM   17  C   UNL     1     -10.363  15.563  69.412  1.00  0.00    -0.258 A  
HETATM   18  N   UNL     1     -10.687  14.299  69.580  1.00  0.00    -0.428 NA 
HETATM   19  C   UNL     1     -11.616  14.295  70.596  1.00  0.00    -0.148 A  
HETATM   20  H   UNL     1     -10.326  13.494  69.067  1.00  0.00     0.000 HD 
HETATM   21  C   UNL     1     -12.296  13.219  71.186  1.00  0.00    -0.323 A  
HETATM   22  C   UNL     1     -13.156  13.473  72.263  1.00  0.00    -0.488 A  
HETATM   23  C   UNL     1     -13.338  14.773  72.743  1.00  0.00    -0.581 A  
HETATM   24  C   UNL     1     -12.689  15.863  72.150  1.00  0.00    -0.506 A  
HETATM   25  C   UNL     1     -11.846  15.583  71.070  1.00  0.00    -0.382 A  
HETATM   26  N   UNL     1     -11.078  16.377  70.256  1.00  0.00    -0.335 NA 
ENDBRANCH  15  17
ENDBRANCH  14  15
ENDBRANCH  10  14
ENDBRANCH   6   7
ENDBRANCH   5   6
ENDBRANCH   4   5
ENDBRANCH   3   4
ENDBRANCH   2   3
TORSDOF 8
ENDMDL
MODEL      161
REMARK 921   NORMALIZED FREE ENERGY PREDICTED BY IDOCK:   -4.19 KCAL/MOL
REMARK 922        TOTAL FREE ENERGY PREDICTED BY IDOCK:   -7.02 KCAL/MOL
REMARK 923 INTER-LIGAND FREE ENERGY PREDICTED BY IDOCK:   -6.34 KCAL/MOL
REMARK 924 INTRA-LIGAND FREE ENERGY PREDICTED BY IDOCK:   -0.68 KCAL/MOL
REMARK 927      BINDING AFFINITY PREDICTED BY RF-SCORE:    0.00 PKD
ROOT
HETATM    1  C   UNL     1     -10.608  16.883  69.053  1.00  0.00    -0.338 C  
HETATM    2  O   UNL     1     -10.311  17.046  67.672  1.00  0.00    -0.310 OA 
ENDROOT
BRANCH   2   3
HETATM    3  C   UNL     1      -9.104  16.384  67.301  1.00  0.00    -0.200 C  
BRANCH   3   4
HETATM    4  C   UNL     1      -9.210  15.917  65.854  1.00  0.00    -0.332 C  
BRANCH   4   5
HETATM    5  C   UNL     1     -10.620  15.435  65.514  1.00  0.00    -0.383 C  
BRANCH   5   6
HETATM    6  O   UNL     1     -10.593  14.011  65.333  1.00  0.00    -0.306 OA 
BRANCH   6   7
HETATM    7  C   UNL     1     -11.111  13.281  66.378  1.00  0.00    -0.295 A  
HETATM    8  C   UNL     1     -10.870  11.893  66.387  1.00  0.00    -0.318 A  
HETATM    9  C   UNL     1     -10.167  11.241  65.229  1.00  0.00    -0.328 C  
HETATM   10  C   UNL     1     -11.268  11.167  67.523  1.00  0.00    -0.301 A  
HETATM   11  C   UNL     1     -11.860  13.860  67.399  1.00  0.00    -0.437 A  
HETATM   12  N   UNL     1     -11.953  11.753  68.546  1.00  0.00    -0.461 NA 
HETATM   13  C   UNL     1     -12.264  13.061  68.445  1.00  0.00     0.010 A  
BRANCH  10  14
HETATM   14  C   UNL     1     -10.877   9.723  67.770  1.00  0.00    -0.246 C  
BRANCH  14  15
HETATM   15  S   UNL     1      -9.768   9.564  69.190  1.00  0.00    -0.186 S  
HETATM   16  O   UNL     1     -10.412   9.958  70.487  1.00  0.00    -0.284 OA 
BRANCH  15  17
HETATM   17  C   UNL     1      -9.579   7.839  69.254  1.00  0.00    -0.159 A  
HETATM   18  N   UNL     1      -9.648   7.092  70.336  1.00  0.00    -0.169 NA 
HETATM   19  C   UNL     1      -9.551   5.795  69.885  1.00  0.00    -0.159 A  
HETATM   20  H   UNL     1      -9.750   7.407  71.301  1.00  0.00     0.000 HD 
HETATM   21  C   UNL     1      -9.570   4.591  70.606  1.00  0.00    -0.260 A  
HETATM   22  C   UNL     1      -9.520   3.381  69.900  1.00  0.00    -0.236 A  
HETATM   23  C   UNL     1      -9.452   3.369  68.504  1.00  0.00    -0.209 A  
HETATM   24  C   UNL     1      -9.405   4.559  67.769  1.00  0.00    -0.180 A  
HETATM   25  C   UNL     1      -9.444   5.752  68.498  1.00  0.00    -0.123 A  
HETATM   26  N   UNL     1      -9.404   7.073  68.128  1.00  0.00    -0.126 NA 
ENDBRANCH  15  17
ENDBRANCH  14  15
ENDBRANCH  10  14
ENDBRANCH   6   7
ENDBRANCH   5   6
ENDBRANCH   4   5
ENDBRANCH   3   4
ENDBRANCH   2   3
TORSDOF 8
ENDMDL
MODEL      162
REMARK 921   NORMALIZED FREE ENERGY PREDICTED BY IDOCK:   -4.18 KCAL/MOL
REMARK 922        TOTAL FREE ENERGY PREDICTED BY IDOCK:   -7.01 KCAL/MOL
REMARK 923 INTER-LIGAND FREE ENERGY PREDICTED BY IDOCK:   -6.06 KCAL/MOL
REMARK 924 INTRA-LIGAND FREE ENERGY PREDICTED BY IDOCK:   -0.95 KCAL/MOL
REMARK 927      BINDING AFFINITY PREDICTED BY RF-SCORE:    0.00 PKD
ROOT
HETATM    1  C   UNL     1     -10.083   6.711  68.615  1.00  0.00    -0.161 C  
HETATM    2  O   UNL     1      -9.288   5.828  67.833  1.00  0.00    -0.106 OA 
ENDROOT
BRANCH   2   3
HETATM    3  C   UNL     1      -8.274   5.191  68.607  1.00  0.00    -0.085 C  
BRANCH   3   4
HETATM    4  C   UNL     1      -7.407   6.253  69.273  1.00  0.00    -0.092 C  
BRANCH   4   5
HETATM    5  C   UNL     1      -6.455   6.917  68.278  1.00  0.00    -0.050 C  
BRANCH   5   6
HETATM    6  O   UNL     1      -6.300   8.299  68.635  1.00  0.00    -0.050 OA 
BRANCH   6   7
HETATM    7  C   UNL     1      -6.972   9.188  67.829  1.00  0.00    -0.078 A  
HETATM    8  C   UNL     1      -7.898  10.053  68.443  1.00  0.00    -0.089 A  
HETATM    9  C   UNL     1      -8.206   9.915  69.908  1.00  0.00    -0.199 C  
HETATM   10  C   UNL     1      -8.477  11.061  67.651  1.00  0.00    -0.121 A  
HETATM   11  C   UNL     1      -6.774   9.250  66.452  1.00  0.00    -0.071 A  
HETATM   12  N   UNL     1      -8.237  11.149  66.312  1.00  0.00    -0.169 NA 
HETATM   13  C   UNL     1      -7.432  10.230  65.742  1.00  0.00    -0.144 A  
BRANCH  10  14
HETATM   14  C   UNL     1      -9.311  12.193  68.219  1.00  0.00    -0.198 C  
BRANCH  14  15
HETATM   15  S   UNL     1     -11.047  12.057  67.728  1.00  0.00    -0.269 S  
HETATM   16  O   UNL     1     -11.546  10.641  67.721  1.00  0.00    -0.501 OA 
BRANCH  15  17
HETATM   17  C   UNL     1     -11.820  12.831  69.075  1.00  0.00    -0.297 A  
HETATM   18  N   UNL     1     -12.099  12.274  70.234  1.00  0.00    -0.380 NA 
HETATM   19  C   UNL     1     -12.599  13.292  71.013  1.00  0.00    -0.324 A  
HETATM   20  H   UNL     1     -11.971  11.296  70.497  1.00  0.00     0.000 HD 
HETATM   21  C   UNL     1     -13.053  13.266  72.341  1.00  0.00    -0.443 A  
HETATM   22  C   UNL     1     -13.459  14.466  72.939  1.00  0.00    -0.516 A  
HETATM   23  C   UNL     1     -13.416  15.670  72.230  1.00  0.00    -0.586 A  
HETATM   24  C   UNL     1     -12.993  15.712  70.896  1.00  0.00    -0.471 A  
HETATM   25  C   UNL     1     -12.604  14.499  70.320  1.00  0.00    -0.323 A  
HETATM   26  N   UNL     1     -12.159  14.162  69.067  1.00  0.00    -0.339 NA 
ENDBRANCH  15  17
ENDBRANCH  14  15
ENDBRANCH  10  14
ENDBRANCH   6   7
ENDBRANCH   5   6
ENDBRANCH   4   5
ENDBRANCH   3   4
ENDBRANCH   2   3
TORSDOF 8
ENDMDL
MODEL      163
REMARK 921   NORMALIZED FREE ENERGY PREDICTED BY IDOCK:   -4.17 KCAL/MOL
REMARK 922        TOTAL FREE ENERGY PREDICTED BY IDOCK:   -6.99 KCAL/MOL
REMARK 923 INTER-LIGAND FREE ENERGY PREDICTED BY IDOCK:   -6.05 KCAL/MOL
REMARK 924 INTRA-LIGAND FREE ENERGY PREDICTED BY IDOCK:   -0.94 KCAL/MOL
REMARK 927      BINDING AFFINITY PREDICTED BY RF-SCORE:    0.00 PKD
ROOT
HETATM    1  C   UNL     1     -10.252  10.809  65.116  1.00  0.00    -0.298 C  
HETATM    2  O   UNL     1     -10.793  12.124  65.121  1.00  0.00    -0.282 OA 
ENDROOT
BRANCH   2   3
HETATM    3  C   UNL     1     -11.908  12.243  66.003  1.00  0.00    -0.341 C  
BRANCH   3   4
HETATM    4  C   UNL     1     -11.659  13.389  66.976  1.00  0.00    -0.396 C  
BRANCH   4   5
HETATM    5  C   UNL     1     -11.585  12.901  68.423  1.00  0.00    -0.333 C  
BRANCH   5   6
HETATM    6  O   UNL     1     -11.842  11.488  68.450  1.00  0.00    -0.438 OA 
BRANCH   6   7
HETATM    7  C   UNL     1     -10.981  10.754  69.233  1.00  0.00    -0.241 A  
HETATM    8  C   UNL     1     -11.492  10.198  70.421  1.00  0.00    -0.400 A  
HETATM    9  C   UNL     1     -12.899  10.503  70.854  1.00  0.00    -0.485 C  
HETATM   10  C   UNL     1     -10.660   9.327  71.147  1.00  0.00    -0.332 A  
HETATM   11  C   UNL     1      -9.644  10.557  68.895  1.00  0.00    -0.199 A  
HETATM   12  N   UNL     1      -9.368   9.096  70.780  1.00  0.00    -0.245 NA 
HETATM   13  C   UNL     1      -8.883   9.738  69.698  1.00  0.00    -0.211 A  
BRANCH  10  14
HETATM   14  C   UNL     1     -11.146   8.487  72.312  1.00  0.00    -0.360 C  
BRANCH  14  15
HETATM   15  S   UNL     1     -11.504   6.787  71.807  1.00  0.00    -0.297 S  
HETATM   16  O   UNL     1     -11.633   6.630  70.320  1.00  0.00    -0.370 OA 
BRANCH  15  17
HETATM   17  C   UNL     1     -10.016   6.006  72.243  1.00  0.00    -0.167 A  
HETATM   18  N   UNL     1      -9.656   5.645  73.456  1.00  0.00    -0.138 NA 
HETATM   19  C   UNL     1      -8.466   4.972  73.295  1.00  0.00    -0.110 A  
HETATM   20  H   UNL     1     -10.153   5.825  74.329  1.00  0.00     0.000 HD 
HETATM   21  C   UNL     1      -7.640   4.368  74.255  1.00  0.00    -0.077 A  
HETATM   22  C   UNL     1      -6.498   3.678  73.824  1.00  0.00    -0.033 A  
HETATM   23  C   UNL     1      -6.182   3.593  72.466  1.00  0.00    -0.009 A  
HETATM   24  C   UNL     1      -6.979   4.213  71.495  1.00  0.00    -0.035 A  
HETATM   25  C   UNL     1      -8.106   4.903  71.953  1.00  0.00    -0.114 A  
HETATM   26  N   UNL     1      -9.082   5.624  71.311  1.00  0.00    -0.142 NA 
ENDBRANCH  15  17
ENDBRANCH  14  15
ENDBRANCH  10  14
ENDBRANCH   6   7
ENDBRANCH   5   6
ENDBRANCH   4   5
ENDBRANCH   3   4
ENDBRANCH   2   3
TORSDOF 8
ENDMDL
MODEL      164
REMARK 921   NORMALIZED FREE ENERGY PREDICTED BY IDOCK:   -4.16 KCAL/MOL
REMARK 922        TOTAL FREE ENERGY PREDICTED BY IDOCK:   -6.98 KCAL/MOL
REMARK 923 INTER-LIGAND FREE ENERGY PREDICTED BY IDOCK:   -6.17 KCAL/MOL
REMARK 924 INTRA-LIGAND FREE ENERGY PREDICTED BY IDOCK:   -0.81 KCAL/MOL
REMARK 927      BINDING AFFINITY PREDICTED BY RF-SCORE:    0.00 PKD
ROOT
HETATM    1  C   UNL     1     -10.769  15.960  65.232  1.00  0.00    -0.424 C  
HETATM    2  O   UNL     1     -11.556  14.943  64.623  1.00  0.00    -0.404 OA 
ENDROOT
BRANCH   2   3
HETATM    3  C   UNL     1     -10.931  13.663  64.701  1.00  0.00    -0.396 C  
BRANCH   3   4
HETATM    4  C   UNL     1     -11.475  12.770  63.592  1.00  0.00    -0.544 C  
BRANCH   4   5
HETATM    5  C   UNL     1     -10.556  11.579  63.319  1.00  0.00    -0.338 C  
BRANCH   5   6
HETATM    6  O   UNL     1      -9.660  11.419  64.430  1.00  0.00    -0.230 OA 
BRANCH   6   7
HETATM    7  C   UNL     1      -8.977  10.225  64.460  1.00  0.00    -0.219 A  
HETATM    8  C   UNL     1      -9.290   9.321  65.494  1.00  0.00    -0.303 A  
HETATM    9  C   UNL     1     -10.255   9.715  66.577  1.00  0.00    -0.294 C  
HETATM   10  C   UNL     1      -8.705   8.044  65.445  1.00  0.00    -0.068 A  
HETATM   11  C   UNL     1      -8.000   9.896  63.524  1.00  0.00    -0.155 A  
HETATM   12  N   UNL     1      -7.788   7.709  64.492  1.00  0.00    -0.129 NA 
HETATM   13  C   UNL     1      -7.432   8.644  63.588  1.00  0.00    -0.110 A  
BRANCH  10  14
HETATM   14  C   UNL     1      -9.116   6.902  66.354  1.00  0.00    -0.159 C  
BRANCH  14  15
HETATM   15  S   UNL     1      -7.990   6.726  67.758  1.00  0.00    -0.114 S  
HETATM   16  O   UNL     1      -7.319   8.014  68.138  1.00  0.00    -0.091 OA 
BRANCH  15  17
HETATM   17  C   UNL     1      -9.119   6.381  69.031  1.00  0.00    -0.130 A  
HETATM   18  N   UNL     1      -8.914   5.576  70.051  1.00  0.00    -0.130 NA 
HETATM   19  C   UNL     1     -10.031   5.706  70.845  1.00  0.00    -0.194 A  
HETATM   20  H   UNL     1      -8.102   4.981  70.218  1.00  0.00     0.000 HD 
HETATM   21  C   UNL     1     -10.346   5.082  72.061  1.00  0.00    -0.276 A  
HETATM   22  C   UNL     1     -11.534   5.438  72.715  1.00  0.00    -0.333 A  
HETATM   23  C   UNL     1     -12.393   6.396  72.169  1.00  0.00    -0.231 A  
HETATM   24  C   UNL     1     -12.109   7.010  70.943  1.00  0.00    -0.403 A  
HETATM   25  C   UNL     1     -10.924   6.628  70.306  1.00  0.00    -0.303 A  
HETATM   26  N   UNL     1     -10.343   6.997  69.119  1.00  0.00    -0.194 NA 
ENDBRANCH  15  17
ENDBRANCH  14  15
ENDBRANCH  10  14
ENDBRANCH   6   7
ENDBRANCH   5   6
ENDBRANCH   4   5
ENDBRANCH   3   4
ENDBRANCH   2   3
TORSDOF 8
ENDMDL
MODEL      165
REMARK 921   NORMALIZED FREE ENERGY PREDICTED BY IDOCK:   -4.16 KCAL/MOL
REMARK 922        TOTAL FREE ENERGY PREDICTED BY IDOCK:   -6.98 KCAL/MOL
REMARK 923 INTER-LIGAND FREE ENERGY PREDICTED BY IDOCK:   -6.24 KCAL/MOL
REMARK 924 INTRA-LIGAND FREE ENERGY PREDICTED BY IDOCK:   -0.74 KCAL/MOL
REMARK 927      BINDING AFFINITY PREDICTED BY RF-SCORE:    0.00 PKD
ROOT
HETATM    1  C   UNL     1      -6.369   4.616  65.805  1.00  0.00    -0.039 C  
HETATM    2  O   UNL     1      -7.767   4.600  66.065  1.00  0.00    -0.092 OA 
ENDROOT
BRANCH   2   3
HETATM    3  C   UNL     1      -8.500   5.360  65.106  1.00  0.00    -0.150 C  
BRANCH   3   4
HETATM    4  C   UNL     1      -8.467   6.832  65.501  1.00  0.00    -0.124 C  
BRANCH   4   5
HETATM    5  C   UNL     1      -8.042   7.724  64.335  1.00  0.00    -0.091 C  
BRANCH   5   6
HETATM    6  O   UNL     1      -7.623   8.997  64.853  1.00  0.00    -0.102 OA 
BRANCH   6   7
HETATM    7  C   UNL     1      -8.428  10.059  64.510  1.00  0.00    -0.174 A  
HETATM    8  C   UNL     1      -9.023  10.791  65.556  1.00  0.00    -0.210 A  
HETATM    9  C   UNL     1      -8.861  10.341  66.981  1.00  0.00    -0.143 C  
HETATM   10  C   UNL     1      -9.723  11.962  65.218  1.00  0.00    -0.192 A  
HETATM   11  C   UNL     1      -8.673  10.417  63.187  1.00  0.00    -0.203 A  
HETATM   12  N   UNL     1      -9.914  12.337  63.921  1.00  0.00    -0.320 NA 
HETATM   13  C   UNL     1      -9.424  11.546  62.946  1.00  0.00    -0.277 A  
BRANCH  10  14
HETATM   14  C   UNL     1     -10.220  12.962  66.244  1.00  0.00    -0.278 C  
BRANCH  14  15
HETATM   15  S   UNL     1     -11.338  14.178  65.506  1.00  0.00    -0.330 S  
HETATM   16  O   UNL     1     -12.753  14.044  65.988  1.00  0.00    -0.475 OA 
BRANCH  15  17
HETATM   17  C   UNL     1     -10.729  15.641  66.214  1.00  0.00    -0.295 A  
HETATM   18  N   UNL     1     -11.043  16.118  67.399  1.00  0.00    -0.204 NA 
HETATM   19  C   UNL     1     -10.238  17.221  67.570  1.00  0.00    -0.328 A  
HETATM   20  H   UNL     1     -11.736  15.749  68.051  1.00  0.00     0.000 HD 
HETATM   21  C   UNL     1     -10.150  18.109  68.653  1.00  0.00    -0.406 A  
HETATM   22  C   UNL     1      -9.190  19.130  68.612  1.00  0.00    -0.429 A  
HETATM   23  C   UNL     1      -8.336  19.267  67.515  1.00  0.00    -0.322 A  
HETATM   24  C   UNL     1      -8.427  18.408  66.413  1.00  0.00    -0.264 A  
HETATM   25  C   UNL     1      -9.400  17.406  66.474  1.00  0.00    -0.270 A  
HETATM   26  N   UNL     1      -9.778  16.419  65.599  1.00  0.00    -0.519 NA 
ENDBRANCH  15  17
ENDBRANCH  14  15
ENDBRANCH  10  14
ENDBRANCH   6   7
ENDBRANCH   5   6
ENDBRANCH   4   5
ENDBRANCH   3   4
ENDBRANCH   2   3
TORSDOF 8
ENDMDL
MODEL      166
REMARK 921   NORMALIZED FREE ENERGY PREDICTED BY IDOCK:   -4.16 KCAL/MOL
REMARK 922        TOTAL FREE ENERGY PREDICTED BY IDOCK:   -6.98 KCAL/MOL
REMARK 923 INTER-LIGAND FREE ENERGY PREDICTED BY IDOCK:   -6.24 KCAL/MOL
REMARK 924 INTRA-LIGAND FREE ENERGY PREDICTED BY IDOCK:   -0.74 KCAL/MOL
REMARK 927      BINDING AFFINITY PREDICTED BY RF-SCORE:    0.00 PKD
ROOT
HETATM    1  C   UNL     1      -9.651   4.011  69.805  1.00  0.00    -0.210 C  
HETATM    2  O   UNL     1      -9.953   4.421  68.477  1.00  0.00    -0.108 OA 
ENDROOT
BRANCH   2   3
HETATM    3  C   UNL     1      -9.051   3.862  67.524  1.00  0.00    -0.152 C  
BRANCH   3   4
HETATM    4  C   UNL     1      -8.702   4.918  66.483  1.00  0.00    -0.112 C  
BRANCH   4   5
HETATM    5  C   UNL     1      -7.665   5.912  67.005  1.00  0.00    -0.101 C  
BRANCH   5   6
HETATM    6  O   UNL     1      -7.716   7.102  66.202  1.00  0.00    -0.092 OA 
BRANCH   6   7
HETATM    7  C   UNL     1      -7.623   8.282  66.903  1.00  0.00    -0.092 A  
HETATM    8  C   UNL     1      -8.776   9.088  66.981  1.00  0.00    -0.124 A  
HETATM    9  C   UNL     1     -10.017   8.706  66.224  1.00  0.00    -0.287 C  
HETATM   10  C   UNL     1      -8.729  10.218  67.817  1.00  0.00    -0.121 A  
HETATM   11  C   UNL     1      -6.444   8.699  67.516  1.00  0.00    -0.058 A  
HETATM   12  N   UNL     1      -7.585  10.590  68.458  1.00  0.00    -0.092 NA 
HETATM   13  C   UNL     1      -6.472   9.854  68.265  1.00  0.00    -0.055 A  
BRANCH  10  14
HETATM   14  C   UNL     1      -9.950  11.044  68.172  1.00  0.00    -0.177 C  
BRANCH  14  15
HETATM   15  S   UNL     1     -10.978  10.218  69.410  1.00  0.00    -0.261 S  
HETATM   16  O   UNL     1     -10.181   9.618  70.531  1.00  0.00    -0.264 OA 
BRANCH  15  17
HETATM   17  C   UNL     1     -11.812  11.580  70.091  1.00  0.00    -0.356 A  
HETATM   18  N   UNL     1     -12.542  11.574  71.185  1.00  0.00    -0.390 NA 
HETATM   19  C   UNL     1     -12.901  12.887  71.388  1.00  0.00    -0.283 A  
HETATM   20  H   UNL     1     -12.790  10.768  71.759  1.00  0.00     0.000 HD 
HETATM   21  C   UNL     1     -13.677  13.458  72.408  1.00  0.00    -0.698 A  
HETATM   22  C   UNL     1     -13.845  14.850  72.429  1.00  0.00    -0.587 A  
HETATM   23  C   UNL     1     -13.256  15.658  71.453  1.00  0.00    -0.540 A  
HETATM   24  C   UNL     1     -12.501  15.104  70.412  1.00  0.00    -0.416 A  
HETATM   25  C   UNL     1     -12.358  13.713  70.408  1.00  0.00    -0.345 A  
HETATM   26  N   UNL     1     -11.718  12.844  69.561  1.00  0.00    -0.319 NA 
ENDBRANCH  15  17
ENDBRANCH  14  15
ENDBRANCH  10  14
ENDBRANCH   6   7
ENDBRANCH   5   6
ENDBRANCH   4   5
ENDBRANCH   3   4
ENDBRANCH   2   3
TORSDOF 8
ENDMDL
MODEL      167
REMARK 921   NORMALIZED FREE ENERGY PREDICTED BY IDOCK:   -4.15 KCAL/MOL
REMARK 922        TOTAL FREE ENERGY PREDICTED BY IDOCK:   -6.97 KCAL/MOL
REMARK 923 INTER-LIGAND FREE ENERGY PREDICTED BY IDOCK:   -5.75 KCAL/MOL
REMARK 924 INTRA-LIGAND FREE ENERGY PREDICTED BY IDOCK:   -1.22 KCAL/MOL
REMARK 927      BINDING AFFINITY PREDICTED BY RF-SCORE:    0.00 PKD
ROOT
HETATM    1  C   UNL     1     -10.491   5.327  69.136  1.00  0.00    -0.157 C  
HETATM    2  O   UNL     1      -9.762   4.135  69.403  1.00  0.00    -0.192 OA 
ENDROOT
BRANCH   2   3
HETATM    3  C   UNL     1      -9.761   3.805  70.790  1.00  0.00    -0.165 C  
BRANCH   3   4
HETATM    4  C   UNL     1      -9.452   5.056  71.604  1.00  0.00    -0.198 C  
BRANCH   4   5
HETATM    5  C   UNL     1      -7.947   5.287  71.743  1.00  0.00    -0.112 C  
BRANCH   5   6
HETATM    6  O   UNL     1      -7.688   6.699  71.694  1.00  0.00    -0.096 OA 
BRANCH   6   7
HETATM    7  C   UNL     1      -7.681   7.246  70.432  1.00  0.00    -0.094 A  
HETATM    8  C   UNL     1      -8.375   8.457  70.243  1.00  0.00    -0.124 A  
HETATM    9  C   UNL     1      -9.179   9.051  71.365  1.00  0.00    -0.293 C  
HETATM   10  C   UNL     1      -8.249   9.096  68.996  1.00  0.00    -0.115 A  
HETATM   11  C   UNL     1      -7.031   6.646  69.357  1.00  0.00    -0.067 A  
HETATM   12  N   UNL     1      -7.564   8.527  67.963  1.00  0.00    -0.097 NA 
HETATM   13  C   UNL     1      -7.010   7.313  68.152  1.00  0.00    -0.076 A  
BRANCH  10  14
HETATM   14  C   UNL     1      -8.750  10.501  68.724  1.00  0.00    -0.154 C  
BRANCH  14  15
HETATM   15  S   UNL     1     -10.371  10.489  67.922  1.00  0.00    -0.207 S  
HETATM   16  O   UNL     1     -11.006   9.129  67.901  1.00  0.00    -0.141 OA 
BRANCH  15  17
HETATM   17  C   UNL     1     -11.293  11.430  69.053  1.00  0.00    -0.280 A  
HETATM   18  N   UNL     1     -12.020  10.957  70.042  1.00  0.00    -0.320 NA 
HETATM   19  C   UNL     1     -12.466  12.067  70.725  1.00  0.00    -0.279 A  
HETATM   20  H   UNL     1     -12.213   9.979  70.256  1.00  0.00     0.000 HD 
HETATM   21  C   UNL     1     -13.277  12.152  71.867  1.00  0.00    -0.474 A  
HETATM   22  C   UNL     1     -13.538  13.414  72.417  1.00  0.00    -0.708 A  
HETATM   23  C   UNL     1     -13.004  14.570  71.842  1.00  0.00    -0.415 A  
HETATM   24  C   UNL     1     -12.215  14.508  70.687  1.00  0.00    -0.401 A  
HETATM   25  C   UNL     1     -11.979  13.238  70.152  1.00  0.00    -0.318 A  
HETATM   26  N   UNL     1     -11.284  12.803  69.052  1.00  0.00    -0.264 NA 
ENDBRANCH  15  17
ENDBRANCH  14  15
ENDBRANCH  10  14
ENDBRANCH   6   7
ENDBRANCH   5   6
ENDBRANCH   4   5
ENDBRANCH   3   4
ENDBRANCH   2   3
TORSDOF 8
ENDMDL
MODEL      168
REMARK 921   NORMALIZED FREE ENERGY PREDICTED BY IDOCK:   -4.14 KCAL/MOL
REMARK 922        TOTAL FREE ENERGY PREDICTED BY IDOCK:   -6.95 KCAL/MOL
REMARK 923 INTER-LIGAND FREE ENERGY PREDICTED BY IDOCK:   -6.15 KCAL/MOL
REMARK 924 INTRA-LIGAND FREE ENERGY PREDICTED BY IDOCK:   -0.80 KCAL/MOL
REMARK 927      BINDING AFFINITY PREDICTED BY RF-SCORE:    0.00 PKD
ROOT
HETATM    1  C   UNL     1      -8.203   2.253  69.433  1.00  0.00    -0.044 C  
HETATM    2  O   UNL     1      -7.531   3.477  69.705  1.00  0.00    -0.045 OA 
ENDROOT
BRANCH   2   3
HETATM    3  C   UNL     1      -8.329   4.612  69.375  1.00  0.00    -0.075 C  
BRANCH   3   4
HETATM    4  C   UNL     1      -9.043   5.106  70.628  1.00  0.00    -0.178 C  
BRANCH   4   5
HETATM    5  C   UNL     1     -10.531   5.349  70.375  1.00  0.00    -0.275 C  
BRANCH   5   6
HETATM    6  O   UNL     1     -10.672   6.276  69.287  1.00  0.00    -0.237 OA 
BRANCH   6   7
HETATM    7  C   UNL     1     -10.597   7.603  69.639  1.00  0.00    -0.243 A  
HETATM    8  C   UNL     1      -9.810   8.449  68.833  1.00  0.00    -0.184 A  
HETATM    9  C   UNL     1      -9.002   7.877  67.702  1.00  0.00    -0.133 C  
HETATM   10  C   UNL     1      -9.848   9.829  69.100  1.00  0.00    -0.188 A  
HETATM   11  C   UNL     1     -11.255   8.123  70.752  1.00  0.00    -0.275 A  
HETATM   12  N   UNL     1     -10.540  10.337  70.160  1.00  0.00    -0.276 NA 
HETATM   13  C   UNL     1     -11.187   9.479  70.975  1.00  0.00    -0.362 A  
BRANCH  10  14
HETATM   14  C   UNL     1      -9.237  10.873  68.186  1.00  0.00    -0.158 C  
BRANCH  14  15
HETATM   15  S   UNL     1     -10.426  11.466  66.959  1.00  0.00    -0.248 S  
HETATM   16  O   UNL     1     -11.851  11.337  67.412  1.00  0.00    -0.590 OA 
BRANCH  15  17
HETATM   17  C   UNL     1     -10.073  13.166  66.971  1.00  0.00    -0.241 A  
HETATM   18  N   UNL     1      -9.172  13.775  66.230  1.00  0.00    -0.484 NA 
HETATM   19  C   UNL     1      -9.330  15.116  66.499  1.00  0.00    -0.280 A  
HETATM   20  H   UNL     1      -8.499  13.345  65.594  1.00  0.00     0.000 HD 
HETATM   21  C   UNL     1      -8.635  16.222  65.985  1.00  0.00    -0.246 A  
HETATM   22  C   UNL     1      -9.035  17.508  66.372  1.00  0.00    -0.264 A  
HETATM   23  C   UNL     1     -10.104  17.692  67.254  1.00  0.00    -0.331 A  
HETATM   24  C   UNL     1     -10.791  16.600  67.798  1.00  0.00    -0.292 A  
HETATM   25  C   UNL     1     -10.365  15.328  67.404  1.00  0.00    -0.256 A  
HETATM   26  N   UNL     1     -10.780  14.062  67.734  1.00  0.00    -0.241 NA 
ENDBRANCH  15  17
ENDBRANCH  14  15
ENDBRANCH  10  14
ENDBRANCH   6   7
ENDBRANCH   5   6
ENDBRANCH   4   5
ENDBRANCH   3   4
ENDBRANCH   2   3
TORSDOF 8
ENDMDL
MODEL      169
REMARK 921   NORMALIZED FREE ENERGY PREDICTED BY IDOCK:   -4.12 KCAL/MOL
REMARK 922        TOTAL FREE ENERGY PREDICTED BY IDOCK:   -6.92 KCAL/MOL
REMARK 923 INTER-LIGAND FREE ENERGY PREDICTED BY IDOCK:   -6.20 KCAL/MOL
REMARK 924 INTRA-LIGAND FREE ENERGY PREDICTED BY IDOCK:   -0.73 KCAL/MOL
REMARK 927      BINDING AFFINITY PREDICTED BY RF-SCORE:    0.00 PKD
ROOT
HETATM    1  C   UNL     1     -12.753  13.807  65.654  1.00  0.00    -0.478 C  
HETATM    2  O   UNL     1     -12.309  14.547  66.785  1.00  0.00    -0.332 OA 
ENDROOT
BRANCH   2   3
HETATM    3  C   UNL     1     -10.893  14.721  66.790  1.00  0.00    -0.316 C  
BRANCH   3   4
HETATM    4  C   UNL     1     -10.231  13.477  66.211  1.00  0.00    -0.299 C  
BRANCH   4   5
HETATM    5  C   UNL     1      -9.453  12.700  67.273  1.00  0.00    -0.199 C  
BRANCH   5   6
HETATM    6  O   UNL     1      -8.541  11.804  66.619  1.00  0.00    -0.178 OA 
BRANCH   6   7
HETATM    7  C   UNL     1      -8.363  10.593  67.247  1.00  0.00    -0.120 A  
HETATM    8  C   UNL     1      -8.901   9.449  66.625  1.00  0.00    -0.151 A  
HETATM    9  C   UNL     1      -9.731   9.587  65.380  1.00  0.00    -0.314 C  
HETATM   10  C   UNL     1      -8.594   8.196  67.183  1.00  0.00    -0.124 A  
HETATM   11  C   UNL     1      -7.688  10.469  68.459  1.00  0.00    -0.104 A  
HETATM   12  N   UNL     1      -7.886   8.079  68.343  1.00  0.00    -0.120 NA 
HETATM   13  C   UNL     1      -7.488   9.205  68.967  1.00  0.00    -0.074 A  
BRANCH  10  14
HETATM   14  C   UNL     1      -8.913   6.879  66.502  1.00  0.00    -0.150 C  
BRANCH  14  15
HETATM   15  S   UNL     1     -10.588   6.315  66.887  1.00  0.00    -0.309 S  
HETATM   16  O   UNL     1     -10.782   4.845  66.650  1.00  0.00    -0.223 OA 
BRANCH  15  17
HETATM   17  C   UNL     1     -10.607   6.528  68.609  1.00  0.00    -0.245 A  
HETATM   18  N   UNL     1     -10.894   7.642  69.248  1.00  0.00    -0.396 NA 
HETATM   19  C   UNL     1     -10.891   7.304  70.583  1.00  0.00    -0.242 A  
HETATM   20  H   UNL     1     -11.078   8.560  68.842  1.00  0.00     0.000 HD 
HETATM   21  C   UNL     1     -11.137   8.101  71.711  1.00  0.00    -0.329 A  
HETATM   22  C   UNL     1     -11.140   7.497  72.976  1.00  0.00    -0.413 A  
HETATM   23  C   UNL     1     -10.902   6.128  73.117  1.00  0.00    -0.279 A  
HETATM   24  C   UNL     1     -10.628   5.321  72.005  1.00  0.00    -0.279 A  
HETATM   25  C   UNL     1     -10.620   5.950  70.757  1.00  0.00    -0.265 A  
HETATM   26  N   UNL     1     -10.384   5.494  69.484  1.00  0.00    -0.262 NA 
ENDBRANCH  15  17
ENDBRANCH  14  15
ENDBRANCH  10  14
ENDBRANCH   6   7
ENDBRANCH   5   6
ENDBRANCH   4   5
ENDBRANCH   3   4
ENDBRANCH   2   3
TORSDOF 8
ENDMDL
MODEL      170
REMARK 921   NORMALIZED FREE ENERGY PREDICTED BY IDOCK:   -4.12 KCAL/MOL
REMARK 922        TOTAL FREE ENERGY PREDICTED BY IDOCK:   -6.92 KCAL/MOL
REMARK 923 INTER-LIGAND FREE ENERGY PREDICTED BY IDOCK:   -6.45 KCAL/MOL
REMARK 924 INTRA-LIGAND FREE ENERGY PREDICTED BY IDOCK:   -0.47 KCAL/MOL
REMARK 927      BINDING AFFINITY PREDICTED BY RF-SCORE:    0.00 PKD
ROOT
HETATM    1  C   UNL     1     -10.380   3.302  74.214  1.00  0.00    -0.179 C  
HETATM    2  O   UNL     1     -10.325   4.723  74.214  1.00  0.00    -0.223 OA 
ENDROOT
BRANCH   2   3
HETATM    3  C   UNL     1     -11.143   5.292  73.193  1.00  0.00    -0.324 C  
BRANCH   3   4
HETATM    4  C   UNL     1     -10.833   6.779  73.071  1.00  0.00    -0.314 C  
BRANCH   4   5
HETATM    5  C   UNL     1      -9.778   7.053  71.999  1.00  0.00    -0.155 C  
BRANCH   5   6
HETATM    6  O   UNL     1      -9.492   8.461  71.978  1.00  0.00    -0.214 OA 
BRANCH   6   7
HETATM    7  C   UNL     1     -10.037   9.150  70.919  1.00  0.00    -0.287 A  
HETATM    8  C   UNL     1      -9.354   9.101  69.688  1.00  0.00    -0.177 A  
HETATM    9  C   UNL     1      -8.023   8.409  69.589  1.00  0.00    -0.106 C  
HETATM   10  C   UNL     1      -9.980   9.678  68.569  1.00  0.00    -0.165 A  
HETATM   11  C   UNL     1     -11.213   9.886  71.029  1.00  0.00    -0.435 A  
HETATM   12  N   UNL     1     -11.161  10.352  68.674  1.00  0.00    -0.260 NA 
HETATM   13  C   UNL     1     -11.724  10.473  69.893  1.00  0.00    -0.294 A  
BRANCH  10  14
HETATM   14  C   UNL     1      -9.474   9.507  67.150  1.00  0.00    -0.149 C  
BRANCH  14  15
HETATM   15  S   UNL     1      -8.265  10.779  66.713  1.00  0.00    -0.140 S  
HETATM   16  O   UNL     1      -7.441  10.420  65.511  1.00  0.00    -0.146 OA 
BRANCH  15  17
HETATM   17  C   UNL     1      -9.320  12.060  66.204  1.00  0.00    -0.211 A  
HETATM   18  N   UNL     1      -9.187  13.336  66.497  1.00  0.00    -0.401 NA 
HETATM   19  C   UNL     1     -10.181  13.975  65.789  1.00  0.00    -0.328 A  
HETATM   20  H   UNL     1      -8.497  13.761  67.116  1.00  0.00     0.000 HD 
HETATM   21  C   UNL     1     -10.502  15.339  65.725  1.00  0.00    -0.365 A  
HETATM   22  C   UNL     1     -11.531  15.750  64.868  1.00  0.00    -0.193 A  
HETATM   23  C   UNL     1     -12.230  14.823  64.090  1.00  0.00    -0.321 A  
HETATM   24  C   UNL     1     -11.943  13.454  64.161  1.00  0.00    -0.505 A  
HETATM   25  C   UNL     1     -10.918  13.069  65.032  1.00  0.00    -0.298 A  
HETATM   26  N   UNL     1     -10.386  11.849  65.364  1.00  0.00    -0.256 NA 
ENDBRANCH  15  17
ENDBRANCH  14  15
ENDBRANCH  10  14
ENDBRANCH   6   7
ENDBRANCH   5   6
ENDBRANCH   4   5
ENDBRANCH   3   4
ENDBRANCH   2   3
TORSDOF 8
ENDMDL
MODEL      171
REMARK 921   NORMALIZED FREE ENERGY PREDICTED BY IDOCK:   -4.11 KCAL/MOL
REMARK 922        TOTAL FREE ENERGY PREDICTED BY IDOCK:   -6.91 KCAL/MOL
REMARK 923 INTER-LIGAND FREE ENERGY PREDICTED BY IDOCK:   -5.97 KCAL/MOL
REMARK 924 INTRA-LIGAND FREE ENERGY PREDICTED BY IDOCK:   -0.94 KCAL/MOL
REMARK 927      BINDING AFFINITY PREDICTED BY RF-SCORE:    0.00 PKD
ROOT
HETATM    1  C   UNL     1     -10.183   7.621  73.360  1.00  0.00    -0.315 C  
HETATM    2  O   UNL     1     -11.182   6.940  72.611  1.00  0.00    -0.261 OA 
ENDROOT
BRANCH   2   3
HETATM    3  C   UNL     1     -11.711   7.748  71.562  1.00  0.00    -0.280 C  
BRANCH   3   4
HETATM    4  C   UNL     1     -12.020   6.868  70.357  1.00  0.00    -0.312 C  
BRANCH   4   5
HETATM    5  C   UNL     1     -10.996   5.745  70.194  1.00  0.00    -0.298 C  
BRANCH   5   6
HETATM    6  O   UNL     1     -10.448   5.804  68.868  1.00  0.00    -0.212 OA 
BRANCH   6   7
HETATM    7  C   UNL     1      -9.323   6.586  68.737  1.00  0.00    -0.130 A  
HETATM    8  C   UNL     1      -9.288   7.503  67.668  1.00  0.00    -0.151 A  
HETATM    9  C   UNL     1     -10.400   7.529  66.657  1.00  0.00    -0.252 C  
HETATM   10  C   UNL     1      -8.210   8.405  67.616  1.00  0.00    -0.126 A  
HETATM   11  C   UNL     1      -8.239   6.492  69.605  1.00  0.00    -0.126 A  
HETATM   12  N   UNL     1      -7.177   8.343  68.504  1.00  0.00    -0.080 NA 
HETATM   13  C   UNL     1      -7.195   7.375  69.442  1.00  0.00    -0.083 A  
BRANCH  10  14
HETATM   14  C   UNL     1      -8.154   9.584  66.663  1.00  0.00    -0.108 C  
BRANCH  14  15
HETATM   15  S   UNL     1      -7.942  11.148  67.546  1.00  0.00    -0.122 S  
HETATM   16  O   UNL     1      -6.601  11.780  67.309  1.00  0.00    -0.104 OA 
BRANCH  15  17
HETATM   17  C   UNL     1      -9.093  12.143  66.712  1.00  0.00    -0.205 A  
HETATM   18  N   UNL     1      -8.995  13.440  66.511  1.00  0.00    -0.447 NA 
HETATM   19  C   UNL     1     -10.072  13.765  65.718  1.00  0.00    -0.307 A  
HETATM   20  H   UNL     1      -8.275  14.069  66.867  1.00  0.00     0.000 HD 
HETATM   21  C   UNL     1     -10.459  15.009  65.196  1.00  0.00    -0.438 A  
HETATM   22  C   UNL     1     -11.575  15.068  64.350  1.00  0.00    -0.281 A  
HETATM   23  C   UNL     1     -12.293  13.913  64.029  1.00  0.00    -0.355 A  
HETATM   24  C   UNL     1     -11.938  12.667  64.562  1.00  0.00    -0.464 A  
HETATM   25  C   UNL     1     -10.828  12.638  65.412  1.00  0.00    -0.287 A  
HETATM   26  N   UNL     1     -10.215  11.629  66.109  1.00  0.00    -0.219 NA 
ENDBRANCH  15  17
ENDBRANCH  14  15
ENDBRANCH  10  14
ENDBRANCH   6   7
ENDBRANCH   5   6
ENDBRANCH   4   5
ENDBRANCH   3   4
ENDBRANCH   2   3
TORSDOF 8
ENDMDL
MODEL      172
REMARK 921   NORMALIZED FREE ENERGY PREDICTED BY IDOCK:   -4.11 KCAL/MOL
REMARK 922        TOTAL FREE ENERGY PREDICTED BY IDOCK:   -6.90 KCAL/MOL
REMARK 923 INTER-LIGAND FREE ENERGY PREDICTED BY IDOCK:   -6.43 KCAL/MOL
REMARK 924 INTRA-LIGAND FREE ENERGY PREDICTED BY IDOCK:   -0.47 KCAL/MOL
REMARK 927      BINDING AFFINITY PREDICTED BY RF-SCORE:    0.00 PKD
ROOT
HETATM    1  C   UNL     1     -11.389   4.099  73.652  1.00  0.00    -0.181 C  
HETATM    2  O   UNL     1     -11.099   5.058  72.643  1.00  0.00    -0.234 OA 
ENDROOT
BRANCH   2   3
HETATM    3  C   UNL     1     -10.171   4.561  71.681  1.00  0.00    -0.144 C  
BRANCH   3   4
HETATM    4  C   UNL     1      -9.356   5.722  71.122  1.00  0.00    -0.174 C  
BRANCH   4   5
HETATM    5  C   UNL     1      -8.281   6.188  72.104  1.00  0.00    -0.110 C  
BRANCH   5   6
HETATM    6  O   UNL     1      -8.728   7.394  72.743  1.00  0.00    -0.118 OA 
BRANCH   6   7
HETATM    7  C   UNL     1      -9.306   8.318  71.903  1.00  0.00    -0.216 A  
HETATM    8  C   UNL     1      -8.463   9.001  71.005  1.00  0.00    -0.254 A  
HETATM    9  C   UNL     1      -6.975   8.794  71.058  1.00  0.00    -0.077 C  
HETATM   10  C   UNL     1      -9.067   9.835  70.047  1.00  0.00    -0.223 A  
HETATM   11  C   UNL     1     -10.670   8.598  71.922  1.00  0.00    -0.414 A  
HETATM   12  N   UNL     1     -10.411  10.062  70.037  1.00  0.00    -0.273 NA 
HETATM   13  C   UNL     1     -11.168   9.477  70.987  1.00  0.00    -0.362 A  
BRANCH  10  14
HETATM   14  C   UNL     1      -8.313  10.452  68.885  1.00  0.00    -0.138 C  
BRANCH  14  15
HETATM   15  S   UNL     1      -8.468   9.456  67.383  1.00  0.00    -0.126 S  
HETATM   16  O   UNL     1      -9.081   8.109  67.632  1.00  0.00    -0.134 OA 
BRANCH  15  17
HETATM   17  C   UNL     1      -9.661  10.371  66.516  1.00  0.00    -0.179 A  
HETATM   18  N   UNL     1     -10.484  11.258  67.033  1.00  0.00    -0.223 NA 
HETATM   19  C   UNL     1     -11.155  11.798  65.959  1.00  0.00    -0.312 A  
HETATM   20  H   UNL     1     -10.599  11.495  68.019  1.00  0.00     0.000 HD 
HETATM   21  C   UNL     1     -12.147  12.790  65.927  1.00  0.00    -0.485 A  
HETATM   22  C   UNL     1     -12.633  13.219  64.684  1.00  0.00    -0.354 A  
HETATM   23  C   UNL     1     -12.143  12.670  63.496  1.00  0.00    -0.648 A  
HETATM   24  C   UNL     1     -11.174  11.660  63.508  1.00  0.00    -0.462 A  
HETATM   25  C   UNL     1     -10.714  11.243  64.761  1.00  0.00    -0.285 A  
HETATM   26  N   UNL     1      -9.804  10.293  65.152  1.00  0.00    -0.302 NA 
ENDBRANCH  15  17
ENDBRANCH  14  15
ENDBRANCH  10  14
ENDBRANCH   6   7
ENDBRANCH   5   6
ENDBRANCH   4   5
ENDBRANCH   3   4
ENDBRANCH   2   3
TORSDOF 8
ENDMDL
MODEL      173
REMARK 921   NORMALIZED FREE ENERGY PREDICTED BY IDOCK:   -4.10 KCAL/MOL
REMARK 922        TOTAL FREE ENERGY PREDICTED BY IDOCK:   -6.89 KCAL/MOL
REMARK 923 INTER-LIGAND FREE ENERGY PREDICTED BY IDOCK:   -6.02 KCAL/MOL
REMARK 924 INTRA-LIGAND FREE ENERGY PREDICTED BY IDOCK:   -0.87 KCAL/MOL
REMARK 927      BINDING AFFINITY PREDICTED BY RF-SCORE:    0.00 PKD
ROOT
HETATM    1  C   UNL     1     -13.627  13.620  72.333  1.00  0.00    -0.602 C  
HETATM    2  O   UNL     1     -13.432  14.365  71.137  1.00  0.00    -0.358 OA 
ENDROOT
BRANCH   2   3
HETATM    3  C   UNL     1     -12.156  14.115  70.551  1.00  0.00    -0.350 C  
BRANCH   3   4
HETATM    4  C   UNL     1     -12.285  14.148  69.032  1.00  0.00    -0.274 C  
BRANCH   4   5
HETATM    5  C   UNL     1     -11.448  15.268  68.414  1.00  0.00    -0.345 C  
BRANCH   5   6
HETATM    6  O   UNL     1     -10.805  14.768  67.231  1.00  0.00    -0.294 OA 
BRANCH   6   7
HETATM    7  C   UNL     1      -9.802  13.853  67.456  1.00  0.00    -0.236 A  
HETATM    8  C   UNL     1      -9.827  12.661  66.706  1.00  0.00    -0.236 A  
HETATM    9  C   UNL     1     -10.979  12.372  65.784  1.00  0.00    -0.333 C  
HETATM   10  C   UNL     1      -8.728  11.792  66.823  1.00  0.00    -0.192 A  
HETATM   11  C   UNL     1      -8.790  14.063  68.389  1.00  0.00    -0.180 A  
HETATM   12  N   UNL     1      -7.712  12.032  67.700  1.00  0.00    -0.134 NA 
HETATM   13  C   UNL     1      -7.784  13.128  68.482  1.00  0.00    -0.117 A  
BRANCH  10  14
HETATM   14  C   UNL     1      -8.512  10.593  65.919  1.00  0.00    -0.167 C  
BRANCH  14  15
HETATM   15  S   UNL     1      -9.687   9.266  66.277  1.00  0.00    -0.289 S  
HETATM   16  O   UNL     1      -9.269   7.941  65.708  1.00  0.00    -0.102 OA 
BRANCH  15  17
HETATM   17  C   UNL     1      -9.498   9.128  67.997  1.00  0.00    -0.141 A  
HETATM   18  N   UNL     1     -10.435   9.330  68.899  1.00  0.00    -0.214 NA 
HETATM   19  C   UNL     1      -9.855   8.998  70.103  1.00  0.00    -0.187 A  
HETATM   20  H   UNL     1     -11.386   9.662  68.739  1.00  0.00     0.000 HD 
HETATM   21  C   UNL     1     -10.398   9.021  71.397  1.00  0.00    -0.396 A  
HETATM   22  C   UNL     1      -9.614   8.566  72.465  1.00  0.00    -0.324 A  
HETATM   23  C   UNL     1      -8.314   8.099  72.252  1.00  0.00    -0.214 A  
HETATM   24  C   UNL     1      -7.745   8.094  70.973  1.00  0.00    -0.088 A  
HETATM   25  C   UNL     1      -8.545   8.563  69.926  1.00  0.00    -0.131 A  
HETATM   26  N   UNL     1      -8.325   8.715  68.580  1.00  0.00    -0.121 NA 
ENDBRANCH  15  17
ENDBRANCH  14  15
ENDBRANCH  10  14
ENDBRANCH   6   7
ENDBRANCH   5   6
ENDBRANCH   4   5
ENDBRANCH   3   4
ENDBRANCH   2   3
TORSDOF 8
ENDMDL
MODEL      174
REMARK 921   NORMALIZED FREE ENERGY PREDICTED BY IDOCK:   -4.10 KCAL/MOL
REMARK 922        TOTAL FREE ENERGY PREDICTED BY IDOCK:   -6.89 KCAL/MOL
REMARK 923 INTER-LIGAND FREE ENERGY PREDICTED BY IDOCK:   -6.35 KCAL/MOL
REMARK 924 INTRA-LIGAND FREE ENERGY PREDICTED BY IDOCK:   -0.54 KCAL/MOL
REMARK 927      BINDING AFFINITY PREDICTED BY RF-SCORE:    0.00 PKD
ROOT
HETATM    1  C   UNL     1     -10.366   6.975  68.832  1.00  0.00    -0.190 C  
HETATM    2  O   UNL     1     -10.823   7.483  70.080  1.00  0.00    -0.247 OA 
ENDROOT
BRANCH   2   3
HETATM    3  C   UNL     1     -10.320   8.792  70.343  1.00  0.00    -0.199 C  
BRANCH   3   4
HETATM    4  C   UNL     1     -11.488   9.756  70.510  1.00  0.00    -0.370 C  
BRANCH   4   5
HETATM    5  C   UNL     1     -11.222  11.096  69.824  1.00  0.00    -0.245 C  
BRANCH   5   6
HETATM    6  O   UNL     1     -12.105  11.226  68.699  1.00  0.00    -0.543 OA 
BRANCH   6   7
HETATM    7  C   UNL     1     -11.595  11.937  67.637  1.00  0.00    -0.312 A  
HETATM    8  C   UNL     1     -11.539  13.339  67.758  1.00  0.00    -0.380 A  
HETATM    9  C   UNL     1     -12.125  14.018  68.965  1.00  0.00    -0.358 C  
HETATM   10  C   UNL     1     -10.885  14.058  66.742  1.00  0.00    -0.294 A  
HETATM   11  C   UNL     1     -11.151  11.325  66.468  1.00  0.00    -0.280 A  
HETATM   12  N   UNL     1     -10.404  13.444  65.623  1.00  0.00    -0.285 NA 
HETATM   13  C   UNL     1     -10.580  12.114  65.495  1.00  0.00    -0.277 A  
BRANCH  10  14
HETATM   14  C   UNL     1     -10.554  15.534  66.845  1.00  0.00    -0.307 C  
BRANCH  14  15
HETATM   15  S   UNL     1      -8.946  15.911  66.106  1.00  0.00    -0.310 S  
HETATM   16  O   UNL     1      -8.695  17.385  65.967  1.00  0.00    -0.499 OA 
BRANCH  15  17
HETATM   17  C   UNL     1      -7.882  15.360  67.361  1.00  0.00    -0.188 A  
HETATM   18  N   UNL     1      -7.264  16.118  68.241  1.00  0.00    -0.132 NA 
HETATM   19  C   UNL     1      -6.632  15.240  69.093  1.00  0.00    -0.130 A  
HETATM   20  H   UNL     1      -7.255  17.137  68.283  1.00  0.00     0.000 HD 
HETATM   21  C   UNL     1      -5.831  15.499  70.216  1.00  0.00    -0.132 A  
HETATM   22  C   UNL     1      -5.351  14.417  70.966  1.00  0.00    -0.149 A  
HETATM   23  C   UNL     1      -5.659  13.103  70.605  1.00  0.00    -0.179 A  
HETATM   24  C   UNL     1      -6.433  12.823  69.472  1.00  0.00    -0.077 A  
HETATM   25  C   UNL     1      -6.890  13.920  68.736  1.00  0.00    -0.105 A  
HETATM   26  N   UNL     1      -7.640  14.028  67.592  1.00  0.00    -0.165 NA 
ENDBRANCH  15  17
ENDBRANCH  14  15
ENDBRANCH  10  14
ENDBRANCH   6   7
ENDBRANCH   5   6
ENDBRANCH   4   5
ENDBRANCH   3   4
ENDBRANCH   2   3
TORSDOF 8
ENDMDL
MODEL      175
REMARK 921   NORMALIZED FREE ENERGY PREDICTED BY IDOCK:   -4.10 KCAL/MOL
REMARK 922        TOTAL FREE ENERGY PREDICTED BY IDOCK:   -6.88 KCAL/MOL
REMARK 923 INTER-LIGAND FREE ENERGY PREDICTED BY IDOCK:   -5.95 KCAL/MOL
REMARK 924 INTRA-LIGAND FREE ENERGY PREDICTED BY IDOCK:   -0.93 KCAL/MOL
REMARK 927      BINDING AFFINITY PREDICTED BY RF-SCORE:    0.00 PKD
ROOT
HETATM    1  C   UNL     1     -14.261  15.470  72.299  1.00  0.00    -0.524 C  
HETATM    2  O   UNL     1     -13.622  15.181  71.062  1.00  0.00    -0.437 OA 
ENDROOT
BRANCH   2   3
HETATM    3  C   UNL     1     -12.610  14.186  71.200  1.00  0.00    -0.367 C  
BRANCH   3   4
HETATM    4  C   UNL     1     -13.007  13.216  72.307  1.00  0.00    -0.354 C  
BRANCH   4   5
HETATM    5  C   UNL     1     -13.068  11.774  71.805  1.00  0.00    -0.375 C  
BRANCH   5   6
HETATM    6  O   UNL     1     -12.494  11.715  70.490  1.00  0.00    -0.308 OA 
BRANCH   6   7
HETATM    7  C   UNL     1     -11.933  10.505  70.153  1.00  0.00    -0.316 A  
HETATM    8  C   UNL     1     -11.684  10.259  68.788  1.00  0.00    -0.021 A  
HETATM    9  C   UNL     1     -12.128  11.249  67.748  1.00  0.00     0.230 C  
HETATM   10  C   UNL     1     -10.977   9.091  68.453  1.00  0.00     0.090 A  
HETATM   11  C   UNL     1     -11.618   9.534  71.100  1.00  0.00    -0.439 A  
HETATM   12  N   UNL     1     -10.623   8.169  69.394  1.00  0.00    -0.223 NA 
HETATM   13  C   UNL     1     -10.982   8.390  70.675  1.00  0.00    -0.243 A  
BRANCH  10  14
HETATM   14  C   UNL     1     -10.445   8.808  67.061  1.00  0.00    -0.268 C  
BRANCH  14  15
HETATM   15  S   UNL     1      -8.734   9.364  66.873  1.00  0.00    -0.128 S  
HETATM   16  O   UNL     1      -8.030   8.716  65.716  1.00  0.00    -0.099 OA 
BRANCH  15  17
HETATM   17  C   UNL     1      -8.986  11.018  66.413  1.00  0.00    -0.181 A  
HETATM   18  N   UNL     1      -9.762  11.442  65.437  1.00  0.00    -0.224 NA 
HETATM   19  C   UNL     1      -9.732  12.816  65.523  1.00  0.00    -0.076 A  
HETATM   20  H   UNL     1     -10.274  10.874  64.762  1.00  0.00     0.000 HD 
HETATM   21  C   UNL     1     -10.380  13.778  64.734  1.00  0.00    -0.422 A  
HETATM   22  C   UNL     1     -10.239  15.132  65.070  1.00  0.00    -0.332 A  
HETATM   23  C   UNL     1      -9.468  15.521  66.168  1.00  0.00    -0.376 A  
HETATM   24  C   UNL     1      -8.792  14.577  66.951  1.00  0.00    -0.257 A  
HETATM   25  C   UNL     1      -8.940  13.235  66.588  1.00  0.00    -0.126 A  
HETATM   26  N   UNL     1      -8.429  12.069  67.099  1.00  0.00    -0.174 NA 
ENDBRANCH  15  17
ENDBRANCH  14  15
ENDBRANCH  10  14
ENDBRANCH   6   7
ENDBRANCH   5   6
ENDBRANCH   4   5
ENDBRANCH   3   4
ENDBRANCH   2   3
TORSDOF 8
ENDMDL
MODEL      176
REMARK 921   NORMALIZED FREE ENERGY PREDICTED BY IDOCK:   -4.08 KCAL/MOL
REMARK 922        TOTAL FREE ENERGY PREDICTED BY IDOCK:   -6.86 KCAL/MOL
REMARK 923 INTER-LIGAND FREE ENERGY PREDICTED BY IDOCK:   -6.01 KCAL/MOL
REMARK 924 INTRA-LIGAND FREE ENERGY PREDICTED BY IDOCK:   -0.85 KCAL/MOL
REMARK 927      BINDING AFFINITY PREDICTED BY RF-SCORE:    0.00 PKD
ROOT
HETATM    1  C   UNL     1     -10.384   5.609  67.075  1.00  0.00    -0.254 C  
HETATM    2  O   UNL     1     -10.007   6.341  68.235  1.00  0.00    -0.129 OA 
ENDROOT
BRANCH   2   3
HETATM    3  C   UNL     1     -11.036   6.349  69.222  1.00  0.00    -0.356 C  
BRANCH   3   4
HETATM    4  C   UNL     1     -10.839   7.545  70.145  1.00  0.00    -0.259 C  
BRANCH   4   5
HETATM    5  C   UNL     1     -10.095   8.684  69.449  1.00  0.00    -0.204 C  
BRANCH   5   6
HETATM    6  O   UNL     1     -11.051   9.528  68.788  1.00  0.00    -0.132 OA 
BRANCH   6   7
HETATM    7  C   UNL     1     -10.625  10.069  67.596  1.00  0.00    -0.270 A  
HETATM    8  C   UNL     1     -10.271  11.433  67.589  1.00  0.00    -0.204 A  
HETATM    9  C   UNL     1     -10.468  12.272  68.820  1.00  0.00    -0.187 C  
HETATM   10  C   UNL     1      -9.697  11.953  66.415  1.00  0.00    -0.221 A  
HETATM   11  C   UNL     1     -10.543   9.326  66.422  1.00  0.00    -0.037 A  
HETATM   12  N   UNL     1      -9.570  11.202  65.283  1.00  0.00    -0.221 NA 
HETATM   13  C   UNL     1     -10.026   9.934  65.300  1.00  0.00    -0.249 A  
BRANCH  10  14
HETATM   14  C   UNL     1      -9.067  13.330  66.334  1.00  0.00    -0.046 C  
BRANCH  14  15
HETATM   15  S   UNL     1     -10.249  14.572  65.758  1.00  0.00    -0.354 S  
HETATM   16  O   UNL     1     -11.628  14.376  66.319  1.00  0.00    -0.354 OA 
BRANCH  15  17
HETATM   17  C   UNL     1      -9.617  15.994  66.529  1.00  0.00    -0.261 A  
HETATM   18  N   UNL     1      -9.345  16.124  67.809  1.00  0.00    -0.211 NA 
HETATM   19  C   UNL     1      -8.767  17.368  67.931  1.00  0.00    -0.237 A  
HETATM   20  H   UNL     1      -9.523  15.449  68.553  1.00  0.00     0.000 HD 
HETATM   21  C   UNL     1      -8.279  18.024  69.071  1.00  0.00    -0.039 A  
HETATM   22  C   UNL     1      -7.669  19.277  68.920  1.00  0.00    -0.376 A  
HETATM   23  C   UNL     1      -7.548  19.867  67.660  1.00  0.00    -0.324 A  
HETATM   24  C   UNL     1      -8.053  19.241  66.513  1.00  0.00    -0.310 A  
HETATM   25  C   UNL     1      -8.667  17.998  66.693  1.00  0.00    -0.259 A  
HETATM   26  N   UNL     1      -9.272  17.123  65.827  1.00  0.00    -0.519 NA 
ENDBRANCH  15  17
ENDBRANCH  14  15
ENDBRANCH  10  14
ENDBRANCH   6   7
ENDBRANCH   5   6
ENDBRANCH   4   5
ENDBRANCH   3   4
ENDBRANCH   2   3
TORSDOF 8
ENDMDL
MODEL      177
REMARK 921   NORMALIZED FREE ENERGY PREDICTED BY IDOCK:   -4.08 KCAL/MOL
REMARK 922        TOTAL FREE ENERGY PREDICTED BY IDOCK:   -6.86 KCAL/MOL
REMARK 923 INTER-LIGAND FREE ENERGY PREDICTED BY IDOCK:   -6.54 KCAL/MOL
REMARK 924 INTRA-LIGAND FREE ENERGY PREDICTED BY IDOCK:   -0.32 KCAL/MOL
REMARK 927      BINDING AFFINITY PREDICTED BY RF-SCORE:    0.00 PKD
ROOT
HETATM    1  C   UNL     1     -14.410  15.417  72.153  1.00  0.00    -0.544 C  
HETATM    2  O   UNL     1     -13.206  16.098  71.824  1.00  0.00    -0.239 OA 
ENDROOT
BRANCH   2   3
HETATM    3  C   UNL     1     -12.049  15.314  72.112  1.00  0.00    -0.396 C  
BRANCH   3   4
HETATM    4  C   UNL     1     -12.037  14.086  71.211  1.00  0.00    -0.307 C  
BRANCH   4   5
HETATM    5  C   UNL     1     -12.118  14.464  69.732  1.00  0.00    -0.334 C  
BRANCH   5   6
HETATM    6  O   UNL     1     -11.807  13.308  68.939  1.00  0.00    -0.301 OA 
BRANCH   6   7
HETATM    7  C   UNL     1     -10.465  13.094  68.723  1.00  0.00    -0.167 A  
HETATM    8  C   UNL     1     -10.031  11.762  68.576  1.00  0.00    -0.203 A  
HETATM    9  C   UNL     1     -10.999  10.628  68.766  1.00  0.00    -0.292 C  
HETATM   10  C   UNL     1      -8.691  11.547  68.208  1.00  0.00    -0.162 A  
HETATM   11  C   UNL     1      -9.541  14.134  68.655  1.00  0.00    -0.179 A  
HETATM   12  N   UNL     1      -7.804  12.576  68.090  1.00  0.00    -0.141 NA 
HETATM   13  C   UNL     1      -8.234  13.827  68.352  1.00  0.00    -0.151 A  
BRANCH  10  14
HETATM   14  C   UNL     1      -8.146  10.192  67.799  1.00  0.00    -0.109 C  
BRANCH  14  15
HETATM   15  S   UNL     1      -7.911  10.079  66.009  1.00  0.00    -0.125 S  
HETATM   16  O   UNL     1      -8.214   8.714  65.462  1.00  0.00    -0.119 OA 
BRANCH  15  17
HETATM   17  C   UNL     1      -9.190  11.112  65.455  1.00  0.00    -0.205 A  
HETATM   18  N   UNL     1      -9.190  12.427  65.479  1.00  0.00    -0.427 NA 
HETATM   19  C   UNL     1     -10.351  12.801  64.840  1.00  0.00    -0.309 A  
HETATM   20  H   UNL     1      -8.482  13.039  65.886  1.00  0.00     0.000 HD 
HETATM   21  C   UNL     1     -10.859  14.083  64.578  1.00  0.00    -0.362 A  
HETATM   22  C   UNL     1     -12.046  14.201  63.843  1.00  0.00    -0.301 A  
HETATM   23  C   UNL     1     -12.717  13.066  63.378  1.00  0.00    -0.046 A  
HETATM   24  C   UNL     1     -12.241  11.778  63.653  1.00  0.00    -0.489 A  
HETATM   25  C   UNL     1     -11.061  11.689  64.398  1.00  0.00    -0.317 A  
HETATM   26  N   UNL     1     -10.327  10.624  64.857  1.00  0.00    -0.313 NA 
ENDBRANCH  15  17
ENDBRANCH  14  15
ENDBRANCH  10  14
ENDBRANCH   6   7
ENDBRANCH   5   6
ENDBRANCH   4   5
ENDBRANCH   3   4
ENDBRANCH   2   3
TORSDOF 8
ENDMDL
MODEL      178
REMARK 921   NORMALIZED FREE ENERGY PREDICTED BY IDOCK:   -4.08 KCAL/MOL
REMARK 922        TOTAL FREE ENERGY PREDICTED BY IDOCK:   -6.85 KCAL/MOL
REMARK 923 INTER-LIGAND FREE ENERGY PREDICTED BY IDOCK:   -5.93 KCAL/MOL
REMARK 924 INTRA-LIGAND FREE ENERGY PREDICTED BY IDOCK:   -0.92 KCAL/MOL
REMARK 927      BINDING AFFINITY PREDICTED BY RF-SCORE:    0.00 PKD
ROOT
HETATM    1  C   UNL     1     -13.245  12.822  71.878  1.00  0.00    -0.412 C  
HETATM    2  O   UNL     1     -12.577  13.036  70.641  1.00  0.00    -0.280 OA 
ENDROOT
BRANCH   2   3
HETATM    3  C   UNL     1     -12.122  11.816  70.059  1.00  0.00    -0.310 C  
BRANCH   3   4
HETATM    4  C   UNL     1     -11.663  12.081  68.630  1.00  0.00    -0.380 C  
BRANCH   4   5
HETATM    5  C   UNL     1     -10.255  12.672  68.584  1.00  0.00    -0.154 C  
BRANCH   5   6
HETATM    6  O   UNL     1      -9.476  11.944  67.621  1.00  0.00    -0.175 OA 
BRANCH   6   7
HETATM    7  C   UNL     1      -9.035  10.710  68.041  1.00  0.00    -0.140 A  
HETATM    8  C   UNL     1      -9.423   9.587  67.286  1.00  0.00    -0.170 A  
HETATM    9  C   UNL     1     -10.376   9.744  66.134  1.00  0.00    -0.215 C  
HETATM   10  C   UNL     1      -8.856   8.345  67.622  1.00  0.00    -0.136 A  
HETATM   11  C   UNL     1      -8.242  10.543  69.173  1.00  0.00    -0.152 A  
HETATM   12  N   UNL     1      -8.035   8.198  68.701  1.00  0.00    -0.114 NA 
HETATM   13  C   UNL     1      -7.781   9.279  69.465  1.00  0.00    -0.084 A  
BRANCH  10  14
HETATM   14  C   UNL     1      -9.005   7.101  66.767  1.00  0.00    -0.137 C  
BRANCH  14  15
HETATM   15  S   UNL     1     -10.668   6.400  66.889  1.00  0.00    -0.319 S  
HETATM   16  O   UNL     1     -10.822   5.118  66.124  1.00  0.00    -0.282 OA 
BRANCH  15  17
HETATM   17  C   UNL     1     -10.706   5.964  68.568  1.00  0.00    -0.255 A  
HETATM   18  N   UNL     1      -9.999   5.011  69.138  1.00  0.00    -0.195 NA 
HETATM   19  C   UNL     1     -10.276   5.111  70.483  1.00  0.00    -0.260 A  
HETATM   20  H   UNL     1      -9.380   4.342  68.681  1.00  0.00     0.000 HD 
HETATM   21  C   UNL     1      -9.795   4.347  71.557  1.00  0.00    -0.259 A  
HETATM   22  C   UNL     1     -10.183   4.694  72.859  1.00  0.00    -0.229 A  
HETATM   23  C   UNL     1     -11.034   5.778  73.088  1.00  0.00    -0.309 A  
HETATM   24  C   UNL     1     -11.546   6.535  72.027  1.00  0.00    -0.354 A  
HETATM   25  C   UNL     1     -11.153   6.161  70.738  1.00  0.00    -0.309 A  
HETATM   26  N   UNL     1     -11.457   6.649  69.493  1.00  0.00    -0.302 NA 
ENDBRANCH  15  17
ENDBRANCH  14  15
ENDBRANCH  10  14
ENDBRANCH   6   7
ENDBRANCH   5   6
ENDBRANCH   4   5
ENDBRANCH   3   4
ENDBRANCH   2   3
TORSDOF 8
ENDMDL
MODEL      179
REMARK 921   NORMALIZED FREE ENERGY PREDICTED BY IDOCK:   -4.06 KCAL/MOL
REMARK 922        TOTAL FREE ENERGY PREDICTED BY IDOCK:   -6.84 KCAL/MOL
REMARK 923 INTER-LIGAND FREE ENERGY PREDICTED BY IDOCK:   -6.75 KCAL/MOL
REMARK 924 INTRA-LIGAND FREE ENERGY PREDICTED BY IDOCK:   -0.09 KCAL/MOL
REMARK 927      BINDING AFFINITY PREDICTED BY RF-SCORE:    0.00 PKD
ROOT
HETATM    1  C   UNL     1      -7.076   2.505  66.838  1.00  0.00    -0.049 C  
HETATM    2  O   UNL     1      -7.812   3.548  66.210  1.00  0.00    -0.087 OA 
ENDROOT
BRANCH   2   3
HETATM    3  C   UNL     1      -6.961   4.571  65.696  1.00  0.00    -0.062 C  
BRANCH   3   4
HETATM    4  C   UNL     1      -7.749   5.870  65.583  1.00  0.00    -0.097 C  
BRANCH   4   5
HETATM    5  C   UNL     1      -8.774   6.014  66.708  1.00  0.00    -0.119 C  
BRANCH   5   6
HETATM    6  O   UNL     1      -8.606   7.298  67.329  1.00  0.00    -0.120 OA 
BRANCH   6   7
HETATM    7  C   UNL     1      -9.153   8.355  66.640  1.00  0.00    -0.164 A  
HETATM    8  C   UNL     1     -10.067   9.178  67.326  1.00  0.00    -0.295 A  
HETATM    9  C   UNL     1     -10.498   8.829  68.722  1.00  0.00    -0.214 C  
HETATM   10  C   UNL     1     -10.514  10.343  66.676  1.00  0.00    -0.215 A  
HETATM   11  C   UNL     1      -8.843   8.623  65.309  1.00  0.00    -0.178 A  
HETATM   12  N   UNL     1     -10.162  10.628  65.389  1.00  0.00    -0.281 NA 
HETATM   13  C   UNL     1      -9.376   9.753  64.730  1.00  0.00    -0.265 A  
BRANCH  10  14
HETATM   14  C   UNL     1     -11.315  11.429  67.367  1.00  0.00    -0.288 C  
BRANCH  14  15
HETATM   15  S   UNL     1     -10.294  12.873  67.747  1.00  0.00    -0.226 S  
HETATM   16  O   UNL     1     -10.358  13.933  66.687  1.00  0.00    -0.271 OA 
BRANCH  15  17
HETATM   17  C   UNL     1     -11.146  13.514  69.117  1.00  0.00    -0.225 A  
HETATM   18  N   UNL     1     -11.885  12.826  69.961  1.00  0.00    -0.479 NA 
HETATM   19  C   UNL     1     -12.258  13.727  70.932  1.00  0.00    -0.349 A  
HETATM   20  H   UNL     1     -12.128  11.836  69.907  1.00  0.00     0.000 HD 
HETATM   21  C   UNL     1     -13.048  13.538  72.077  1.00  0.00    -0.481 A  
HETATM   22  C   UNL     1     -13.231  14.614  72.956  1.00  0.00    -0.587 A  
HETATM   23  C   UNL     1     -12.642  15.855  72.701  1.00  0.00    -0.562 A  
HETATM   24  C   UNL     1     -11.874  16.072  71.551  1.00  0.00    -0.554 A  
HETATM   25  C   UNL     1     -11.716  14.985  70.685  1.00  0.00    -0.308 A  
HETATM   26  N   UNL     1     -11.061  14.833  69.489  1.00  0.00    -0.270 NA 
ENDBRANCH  15  17
ENDBRANCH  14  15
ENDBRANCH  10  14
ENDBRANCH   6   7
ENDBRANCH   5   6
ENDBRANCH   4   5
ENDBRANCH   3   4
ENDBRANCH   2   3
TORSDOF 8
ENDMDL
MODEL      180
REMARK 921   NORMALIZED FREE ENERGY PREDICTED BY IDOCK:   -4.06 KCAL/MOL
REMARK 922        TOTAL FREE ENERGY PREDICTED BY IDOCK:   -6.84 KCAL/MOL
REMARK 923 INTER-LIGAND FREE ENERGY PREDICTED BY IDOCK:   -5.83 KCAL/MOL
REMARK 924 INTRA-LIGAND FREE ENERGY PREDICTED BY IDOCK:   -1.01 KCAL/MOL
REMARK 927      BINDING AFFINITY PREDICTED BY RF-SCORE:    0.00 PKD
ROOT
HETATM    1  C   UNL     1     -10.304   8.136  66.759  1.00  0.00    -0.291 C  
HETATM    2  O   UNL     1     -10.015   9.176  65.833  1.00  0.00    -0.295 OA 
ENDROOT
BRANCH   2   3
HETATM    3  C   UNL     1     -10.603  10.417  66.220  1.00  0.00    -0.109 C  
BRANCH   3   4
HETATM    4  C   UNL     1      -9.515  11.479  66.320  1.00  0.00    -0.235 C  
BRANCH   4   5
HETATM    5  C   UNL     1      -9.022  11.655  67.757  1.00  0.00    -0.170 C  
BRANCH   5   6
HETATM    6  O   UNL     1     -10.056  11.229  68.658  1.00  0.00    -0.197 OA 
BRANCH   6   7
HETATM    7  C   UNL     1      -9.651  10.350  69.636  1.00  0.00    -0.109 A  
HETATM    8  C   UNL     1     -10.605   9.954  70.593  1.00  0.00    -0.341 A  
HETATM    9  C   UNL     1     -11.976  10.569  70.593  1.00  0.00    -0.455 C  
HETATM   10  C   UNL     1     -10.239   8.946  71.503  1.00  0.00    -0.328 A  
HETATM   11  C   UNL     1      -8.350   9.858  69.710  1.00  0.00    -0.196 A  
HETATM   12  N   UNL     1      -8.978   8.429  71.534  1.00  0.00    -0.175 NA 
HETATM   13  C   UNL     1      -8.062   8.919  70.674  1.00  0.00    -0.144 A  
BRANCH  10  14
HETATM   14  C   UNL     1     -11.224   8.267  72.435  1.00  0.00    -0.381 C  
BRANCH  14  15
HETATM   15  S   UNL     1     -12.101   6.916  71.612  1.00  0.00    -0.367 S  
HETATM   16  O   UNL     1     -11.858   6.874  70.132  1.00  0.00    -0.299 OA 
BRANCH  15  17
HETATM   17  C   UNL     1     -11.266   5.545  72.273  1.00  0.00    -0.220 A  
HETATM   18  N   UNL     1     -11.417   5.057  73.486  1.00  0.00    -0.451 NA 
HETATM   19  C   UNL     1     -10.643   3.919  73.516  1.00  0.00    -0.200 A  
HETATM   20  H   UNL     1     -11.984   5.441  74.242  1.00  0.00     0.000 HD 
HETATM   21  C   UNL     1     -10.434   3.003  74.558  1.00  0.00    -0.207 A  
HETATM   22  C   UNL     1      -9.642   1.872  74.314  1.00  0.00    -0.097 A  
HETATM   23  C   UNL     1      -9.068   1.657  73.059  1.00  0.00    -0.072 A  
HETATM   24  C   UNL     1      -9.243   2.573  72.014  1.00  0.00    -0.151 A  
HETATM   25  C   UNL     1     -10.028   3.698  72.287  1.00  0.00    -0.169 A  
HETATM   26  N   UNL     1     -10.395   4.783  71.533  1.00  0.00    -0.171 NA 
ENDBRANCH  15  17
ENDBRANCH  14  15
ENDBRANCH  10  14
ENDBRANCH   6   7
ENDBRANCH   5   6
ENDBRANCH   4   5
ENDBRANCH   3   4
ENDBRANCH   2   3
TORSDOF 8
ENDMDL
MODEL      181
REMARK 921   NORMALIZED FREE ENERGY PREDICTED BY IDOCK:   -4.06 KCAL/MOL
REMARK 922        TOTAL FREE ENERGY PREDICTED BY IDOCK:   -6.83 KCAL/MOL
REMARK 923 INTER-LIGAND FREE ENERGY PREDICTED BY IDOCK:   -6.23 KCAL/MOL
REMARK 924 INTRA-LIGAND FREE ENERGY PREDICTED BY IDOCK:   -0.60 KCAL/MOL
REMARK 927      BINDING AFFINITY PREDICTED BY RF-SCORE:    0.00 PKD
ROOT
HETATM    1  C   UNL     1      -6.740   5.309  67.818  1.00  0.00    -0.055 C  
HETATM    2  O   UNL     1      -8.144   5.149  67.977  1.00  0.00    -0.097 OA 
ENDROOT
BRANCH   2   3
HETATM    3  C   UNL     1      -8.876   5.741  66.906  1.00  0.00    -0.114 C  
BRANCH   3   4
HETATM    4  C   UNL     1      -7.911   6.476  65.983  1.00  0.00    -0.103 C  
BRANCH   4   5
HETATM    5  C   UNL     1      -8.418   7.873  65.626  1.00  0.00    -0.147 C  
BRANCH   5   6
HETATM    6  O   UNL     1      -7.976   8.799  66.631  1.00  0.00    -0.098 OA 
BRANCH   6   7
HETATM    7  C   UNL     1      -8.951   9.638  67.119  1.00  0.00    -0.134 A  
HETATM    8  C   UNL     1      -8.643  11.009  67.218  1.00  0.00    -0.130 A  
HETATM    9  C   UNL     1      -7.256  11.496  66.901  1.00  0.00    -0.137 C  
HETATM   10  C   UNL     1      -9.680  11.888  67.574  1.00  0.00    -0.181 A  
HETATM   11  C   UNL     1     -10.203   9.179  67.520  1.00  0.00    -0.304 A  
HETATM   12  N   UNL     1     -10.921  11.437  67.913  1.00  0.00    -0.222 NA 
HETATM   13  C   UNL     1     -11.141  10.106  67.916  1.00  0.00    -0.238 A  
BRANCH  10  14
HETATM   14  C   UNL     1      -9.555  13.398  67.502  1.00  0.00    -0.221 C  
BRANCH  14  15
HETATM   15  S   UNL     1     -11.092  14.220  67.987  1.00  0.00    -0.281 S  
HETATM   16  O   UNL     1     -11.369  14.128  69.459  1.00  0.00    -0.257 OA 
BRANCH  15  17
HETATM   17  C   UNL     1     -10.678  15.877  67.680  1.00  0.00    -0.312 A  
HETATM   18  N   UNL     1     -10.631  16.459  66.501  1.00  0.00    -0.276 NA 
HETATM   19  C   UNL     1     -10.371  17.785  66.763  1.00  0.00    -0.343 A  
HETATM   20  H   UNL     1     -10.759  16.021  65.589  1.00  0.00     0.000 HD 
HETATM   21  C   UNL     1     -10.220  18.862  65.875  1.00  0.00    -0.333 A  
HETATM   22  C   UNL     1     -10.022  20.146  66.401  1.00  0.00    -0.573 A  
HETATM   23  C   UNL     1      -9.974  20.356  67.781  1.00  0.00    -0.477 A  
HETATM   24  C   UNL     1     -10.095  19.291  68.682  1.00  0.00    -0.499 A  
HETATM   25  C   UNL     1     -10.280  18.018  68.131  1.00  0.00    -0.384 A  
HETATM   26  N   UNL     1     -10.420  16.773  68.689  1.00  0.00    -0.310 NA 
ENDBRANCH  15  17
ENDBRANCH  14  15
ENDBRANCH  10  14
ENDBRANCH   6   7
ENDBRANCH   5   6
ENDBRANCH   4   5
ENDBRANCH   3   4
ENDBRANCH   2   3
TORSDOF 8
ENDMDL
MODEL      182
REMARK 921   NORMALIZED FREE ENERGY PREDICTED BY IDOCK:   -4.05 KCAL/MOL
REMARK 922        TOTAL FREE ENERGY PREDICTED BY IDOCK:   -6.82 KCAL/MOL
REMARK 923 INTER-LIGAND FREE ENERGY PREDICTED BY IDOCK:   -5.76 KCAL/MOL
REMARK 924 INTRA-LIGAND FREE ENERGY PREDICTED BY IDOCK:   -1.06 KCAL/MOL
REMARK 927      BINDING AFFINITY PREDICTED BY RF-SCORE:    0.00 PKD
ROOT
HETATM    1  C   UNL     1     -10.883   9.125  71.407  1.00  0.00    -0.349 C  
HETATM    2  O   UNL     1     -10.133   8.569  70.334  1.00  0.00    -0.184 OA 
ENDROOT
BRANCH   2   3
HETATM    3  C   UNL     1     -10.266   9.330  69.135  1.00  0.00    -0.206 C  
BRANCH   3   4
HETATM    4  C   UNL     1     -11.697   9.840  69.019  1.00  0.00     0.312 C  
BRANCH   4   5
HETATM    5  C   UNL     1     -11.748  11.291  68.540  1.00  0.00    -0.308 C  
BRANCH   5   6
HETATM    6  O   UNL     1     -10.804  11.460  67.471  1.00  0.00    -0.214 OA 
BRANCH   6   7
HETATM    7  C   UNL     1     -10.890  12.659  66.802  1.00  0.00    -0.250 A  
HETATM    8  C   UNL     1      -9.834  13.576  66.969  1.00  0.00    -0.251 A  
HETATM    9  C   UNL     1      -8.721  13.279  67.934  1.00  0.00    -0.192 C  
HETATM   10  C   UNL     1      -9.844  14.737  66.175  1.00  0.00    -0.312 A  
HETATM   11  C   UNL     1     -11.972  12.989  65.990  1.00  0.00    -0.498 A  
HETATM   12  N   UNL     1     -10.883  15.028  65.340  1.00  0.00    -0.340 NA 
HETATM   13  C   UNL     1     -11.928  14.178  65.297  1.00  0.00    -0.381 A  
BRANCH  10  14
HETATM   14  C   UNL     1      -8.672  15.695  66.083  1.00  0.00    -0.206 C  
BRANCH  14  15
HETATM   15  S   UNL     1      -9.033  17.272  66.891  1.00  0.00    -0.249 S  
HETATM   16  O   UNL     1      -9.858  18.193  66.040  1.00  0.00    -0.504 OA 
BRANCH  15  17
HETATM   17  C   UNL     1     -10.078  16.741  68.172  1.00  0.00    -0.282 A  
HETATM   18  N   UNL     1     -11.383  16.593  68.097  1.00  0.00    -0.208 NA 
HETATM   19  C   UNL     1     -11.756  16.052  69.306  1.00  0.00    -0.298 A  
HETATM   20  H   UNL     1     -11.989  16.829  67.310  1.00  0.00     0.000 HD 
HETATM   21  C   UNL     1     -13.028  15.685  69.772  1.00  0.00     0.415 A  
HETATM   22  C   UNL     1     -13.137  15.086  71.034  1.00  0.00    -0.482 A  
HETATM   23  C   UNL     1     -12.004  14.856  71.819  1.00  0.00    -0.435 A  
HETATM   24  C   UNL     1     -10.730  15.240  71.384  1.00  0.00     0.150 A  
HETATM   25  C   UNL     1     -10.650  15.846  70.126  1.00  0.00    -0.295 A  
HETATM   26  N   UNL     1      -9.601  16.351  69.400  1.00  0.00    -0.192 NA 
ENDBRANCH  15  17
ENDBRANCH  14  15
ENDBRANCH  10  14
ENDBRANCH   6   7
ENDBRANCH   5   6
ENDBRANCH   4   5
ENDBRANCH   3   4
ENDBRANCH   2   3
TORSDOF 8
ENDMDL
MODEL      183
REMARK 921   NORMALIZED FREE ENERGY PREDICTED BY IDOCK:   -4.05 KCAL/MOL
REMARK 922        TOTAL FREE ENERGY PREDICTED BY IDOCK:   -6.82 KCAL/MOL
REMARK 923 INTER-LIGAND FREE ENERGY PREDICTED BY IDOCK:   -6.11 KCAL/MOL
REMARK 924 INTRA-LIGAND FREE ENERGY PREDICTED BY IDOCK:   -0.71 KCAL/MOL
REMARK 927      BINDING AFFINITY PREDICTED BY RF-SCORE:    0.00 PKD
ROOT
HETATM    1  C   UNL     1      -9.579   4.197  65.830  1.00  0.00    -0.190 C  
HETATM    2  O   UNL     1      -9.294   5.286  66.698  1.00  0.00    -0.128 OA 
ENDROOT
BRANCH   2   3
HETATM    3  C   UNL     1      -8.327   6.176  66.144  1.00  0.00    -0.128 C  
BRANCH   3   4
HETATM    4  C   UNL     1      -8.975   7.532  65.893  1.00  0.00    -0.128 C  
BRANCH   4   5
HETATM    5  C   UNL     1      -9.743   8.030  67.117  1.00  0.00    -0.195 C  
BRANCH   5   6
HETATM    6  O   UNL     1     -10.613   9.100  66.716  1.00  0.00    -0.227 OA 
BRANCH   6   7
HETATM    7  C   UNL     1     -10.796  10.086  67.657  1.00  0.00    -0.278 A  
HETATM    8  C   UNL     1     -10.330  11.379  67.347  1.00  0.00    -0.232 A  
HETATM    9  C   UNL     1      -9.565  11.622  66.076  1.00  0.00    -0.249 C  
HETATM   10  C   UNL     1     -10.645  12.419  68.239  1.00  0.00    -0.222 A  
HETATM   11  C   UNL     1     -11.406   9.847  68.886  1.00  0.00    -0.060 A  
HETATM   12  N   UNL     1     -11.292  12.186  69.416  1.00  0.00    -0.262 NA 
HETATM   13  C   UNL     1     -11.619  10.916  69.727  1.00  0.00    -0.322 A  
BRANCH  10  14
HETATM   14  C   UNL     1     -10.407  13.885  67.928  1.00  0.00    -0.240 C  
BRANCH  14  15
HETATM   15  S   UNL     1      -8.947  14.521  68.786  1.00  0.00    -0.114 S  
HETATM   16  O   UNL     1      -7.658  14.017  68.205  1.00  0.00    -0.114 OA 
BRANCH  15  17
HETATM   17  C   UNL     1      -9.037  16.202  68.363  1.00  0.00    -0.199 A  
HETATM   18  N   UNL     1      -8.021  17.033  68.270  1.00  0.00    -0.213 NA 
HETATM   19  C   UNL     1      -8.560  18.211  67.803  1.00  0.00    -0.255 A  
HETATM   20  H   UNL     1      -7.044  16.845  68.497  1.00  0.00     0.000 HD 
HETATM   21  C   UNL     1      -7.932  19.434  67.517  1.00  0.00    -0.302 A  
HETATM   22  C   UNL     1      -8.700  20.477  66.982  1.00  0.00    -0.340 A  
HETATM   23  C   UNL     1     -10.066  20.309  66.738  1.00  0.00    -0.556 A  
HETATM   24  C   UNL     1     -10.715  19.107  67.043  1.00  0.00    -0.542 A  
HETATM   25  C   UNL     1      -9.928  18.086  67.586  1.00  0.00    -0.329 A  
HETATM   26  N   UNL     1     -10.215  16.813  68.009  1.00  0.00    -0.286 NA 
ENDBRANCH  15  17
ENDBRANCH  14  15
ENDBRANCH  10  14
ENDBRANCH   6   7
ENDBRANCH   5   6
ENDBRANCH   4   5
ENDBRANCH   3   4
ENDBRANCH   2   3
TORSDOF 8
ENDMDL
MODEL      184
REMARK 921   NORMALIZED FREE ENERGY PREDICTED BY IDOCK:   -4.05 KCAL/MOL
REMARK 922        TOTAL FREE ENERGY PREDICTED BY IDOCK:   -6.81 KCAL/MOL
REMARK 923 INTER-LIGAND FREE ENERGY PREDICTED BY IDOCK:   -5.95 KCAL/MOL
REMARK 924 INTRA-LIGAND FREE ENERGY PREDICTED BY IDOCK:   -0.86 KCAL/MOL
REMARK 927      BINDING AFFINITY PREDICTED BY RF-SCORE:    0.00 PKD
ROOT
HETATM    1  C   UNL     1      -6.360   6.706  65.719  1.00  0.00    -0.042 C  
HETATM    2  O   UNL     1      -5.532   7.282  64.716  1.00  0.00    -0.031 OA 
ENDROOT
BRANCH   2   3
HETATM    3  C   UNL     1      -6.018   8.551  64.283  1.00  0.00    -0.066 C  
BRANCH   3   4
HETATM    4  C   UNL     1      -6.347   8.483  62.797  1.00  0.00    -0.088 C  
BRANCH   4   5
HETATM    5  C   UNL     1      -7.720   9.081  62.490  1.00  0.00    -0.119 C  
BRANCH   5   6
HETATM    6  O   UNL     1      -8.588   8.850  63.611  1.00  0.00    -0.175 OA 
BRANCH   6   7
HETATM    7  C   UNL     1      -9.354   9.929  63.987  1.00  0.00    -0.223 A  
HETATM    8  C   UNL     1      -9.849   9.950  65.305  1.00  0.00    -0.373 A  
HETATM    9  C   UNL     1      -9.631   8.772  66.213  1.00  0.00    -0.328 C  
HETATM   10  C   UNL     1     -10.505  11.116  65.739  1.00  0.00    -0.246 A  
HETATM   11  C   UNL     1      -9.655  10.975  63.118  1.00  0.00    -0.384 A  
HETATM   12  N   UNL     1     -10.749  12.160  64.896  1.00  0.00    -0.283 NA 
HETATM   13  C   UNL     1     -10.358  12.051  63.611  1.00  0.00    -0.450 A  
BRANCH  10  14
HETATM   14  C   UNL     1     -10.889  11.367  67.185  1.00  0.00    -0.268 C  
BRANCH  14  15
HETATM   15  S   UNL     1      -9.483  11.958  68.157  1.00  0.00    -0.197 S  
HETATM   16  O   UNL     1      -8.162  11.712  67.488  1.00  0.00    -0.135 OA 
BRANCH  15  17
HETATM   17  C   UNL     1      -9.744  13.673  68.084  1.00  0.00    -0.229 A  
HETATM   18  N   UNL     1     -10.192  14.431  69.062  1.00  0.00    -0.335 NA 
HETATM   19  C   UNL     1     -10.126  15.719  68.580  1.00  0.00    -0.211 A  
HETATM   20  H   UNL     1     -10.518  14.128  69.980  1.00  0.00     0.000 HD 
HETATM   21  C   UNL     1     -10.475  16.928  69.201  1.00  0.00    -0.335 A  
HETATM   22  C   UNL     1     -10.249  18.129  68.514  1.00  0.00    -0.399 A  
HETATM   23  C   UNL     1      -9.689  18.127  67.234  1.00  0.00    -0.297 A  
HETATM   24  C   UNL     1      -9.360  16.930  66.587  1.00  0.00    -0.278 A  
HETATM   25  C   UNL     1      -9.606  15.746  67.290  1.00  0.00    -0.217 A  
HETATM   26  N   UNL     1      -9.428  14.422  66.977  1.00  0.00    -0.238 NA 
ENDBRANCH  15  17
ENDBRANCH  14  15
ENDBRANCH  10  14
ENDBRANCH   6   7
ENDBRANCH   5   6
ENDBRANCH   4   5
ENDBRANCH   3   4
ENDBRANCH   2   3
TORSDOF 8
ENDMDL
MODEL      185
REMARK 921   NORMALIZED FREE ENERGY PREDICTED BY IDOCK:   -4.04 KCAL/MOL
REMARK 922        TOTAL FREE ENERGY PREDICTED BY IDOCK:   -6.80 KCAL/MOL
REMARK 923 INTER-LIGAND FREE ENERGY PREDICTED BY IDOCK:   -5.98 KCAL/MOL
REMARK 924 INTRA-LIGAND FREE ENERGY PREDICTED BY IDOCK:   -0.81 KCAL/MOL
REMARK 927      BINDING AFFINITY PREDICTED BY RF-SCORE:    0.00 PKD
ROOT
HETATM    1  C   UNL     1     -11.401  13.249  64.777  1.00  0.00    -0.327 C  
HETATM    2  O   UNL     1     -11.108  12.615  63.539  1.00  0.00    -0.448 OA 
ENDROOT
BRANCH   2   3
HETATM    3  C   UNL     1     -10.020  11.699  63.649  1.00  0.00    -0.379 C  
BRANCH   3   4
HETATM    4  C   UNL     1     -10.349  10.653  64.708  1.00  0.00    -0.353 C  
BRANCH   4   5
HETATM    5  C   UNL     1      -9.127  10.298  65.555  1.00  0.00    -0.176 C  
BRANCH   5   6
HETATM    6  O   UNL     1      -9.517   9.344  66.555  1.00  0.00    -0.163 OA 
BRANCH   6   7
HETATM    7  C   UNL     1      -8.715   9.310  67.673  1.00  0.00    -0.116 A  
HETATM    8  C   UNL     1      -8.873   8.225  68.557  1.00  0.00    -0.137 A  
HETATM    9  C   UNL     1      -9.962   7.215  68.326  1.00  0.00    -0.171 C  
HETATM   10  C   UNL     1      -7.958   8.108  69.618  1.00  0.00    -0.115 A  
HETATM   11  C   UNL     1      -7.778  10.301  67.953  1.00  0.00    -0.089 A  
HETATM   12  N   UNL     1      -7.007   9.055  69.855  1.00  0.00    -0.049 NA 
HETATM   13  C   UNL     1      -6.964  10.136  69.051  1.00  0.00    -0.058 A  
BRANCH  10  14
HETATM   14  C   UNL     1      -7.867   6.884  70.509  1.00  0.00    -0.105 C  
BRANCH  14  15
HETATM   15  S   UNL     1      -8.236   7.283  72.234  1.00  0.00    -0.102 S  
HETATM   16  O   UNL     1      -7.521   8.512  72.718  1.00  0.00    -0.271 OA 
BRANCH  15  17
HETATM   17  C   UNL     1      -9.910   7.722  72.108  1.00  0.00    -0.187 A  
HETATM   18  N   UNL     1     -10.383   8.942  71.974  1.00  0.00    -0.340 NA 
HETATM   19  C   UNL     1     -11.741   8.787  71.803  1.00  0.00    -0.346 A  
HETATM   20  H   UNL     1      -9.857   9.816  71.994  1.00  0.00     0.000 HD 
HETATM   21  C   UNL     1     -12.738   9.755  71.611  1.00  0.00    -0.517 A  
HETATM   22  C   UNL     1     -14.056   9.332  71.393  1.00  0.00    -0.143 A  
HETATM   23  C   UNL     1     -14.377   7.972  71.367  1.00  0.00    -0.490 A  
HETATM   24  C   UNL     1     -13.401   6.992  71.583  1.00  0.00    -0.356 A  
HETATM   25  C   UNL     1     -12.096   7.441  71.810  1.00  0.00    -0.312 A  
HETATM   26  N   UNL     1     -10.917   6.789  72.067  1.00  0.00    -0.231 NA 
ENDBRANCH  15  17
ENDBRANCH  14  15
ENDBRANCH  10  14
ENDBRANCH   6   7
ENDBRANCH   5   6
ENDBRANCH   4   5
ENDBRANCH   3   4
ENDBRANCH   2   3
TORSDOF 8
ENDMDL
MODEL      186
REMARK 921   NORMALIZED FREE ENERGY PREDICTED BY IDOCK:   -4.03 KCAL/MOL
REMARK 922        TOTAL FREE ENERGY PREDICTED BY IDOCK:   -6.79 KCAL/MOL
REMARK 923 INTER-LIGAND FREE ENERGY PREDICTED BY IDOCK:   -5.75 KCAL/MOL
REMARK 924 INTRA-LIGAND FREE ENERGY PREDICTED BY IDOCK:   -1.04 KCAL/MOL
REMARK 927      BINDING AFFINITY PREDICTED BY RF-SCORE:    0.00 PKD
ROOT
HETATM    1  C   UNL     1      -6.105   8.330  64.591  1.00  0.00    -0.060 C  
HETATM    2  O   UNL     1      -7.418   8.567  65.086  1.00  0.00    -0.085 OA 
ENDROOT
BRANCH   2   3
HETATM    3  C   UNL     1      -8.088   9.595  64.359  1.00  0.00    -0.141 C  
BRANCH   3   4
HETATM    4  C   UNL     1      -9.337  10.019  65.123  1.00  0.00    -0.302 C  
BRANCH   4   5
HETATM    5  C   UNL     1      -9.312   9.528  66.570  1.00  0.00    -0.171 C  
BRANCH   5   6
HETATM    6  O   UNL     1      -8.891  10.607  67.420  1.00  0.00    -0.132 OA 
BRANCH   6   7
HETATM    7  C   UNL     1      -9.873  11.127  68.230  1.00  0.00    -0.189 A  
HETATM    8  C   UNL     1     -10.313  12.439  67.963  1.00  0.00    -0.220 A  
HETATM    9  C   UNL     1      -9.640  13.259  66.897  1.00  0.00    -0.249 C  
HETATM   10  C   UNL     1     -11.416  12.920  68.690  1.00  0.00    -0.308 A  
HETATM   11  C   UNL     1     -10.427  10.415  69.291  1.00  0.00    -0.257 A  
HETATM   12  N   UNL     1     -11.988  12.193  69.692  1.00  0.00    -0.303 NA 
HETATM   13  C   UNL     1     -11.463  10.989  69.992  1.00  0.00    -0.314 A  
BRANCH  10  14
HETATM   14  C   UNL     1     -12.134  14.214  68.358  1.00  0.00    -0.273 C  
BRANCH  14  15
HETATM   15  S   UNL     1     -11.756  15.515  69.557  1.00  0.00    -0.383 S  
HETATM   16  O   UNL     1     -11.467  14.982  70.931  1.00  0.00    -0.280 OA 
BRANCH  15  17
HETATM   17  C   UNL     1     -10.239  16.088  68.937  1.00  0.00    -0.231 A  
HETATM   18  N   UNL     1      -9.052  15.846  69.450  1.00  0.00    -0.250 NA 
HETATM   19  C   UNL     1      -8.156  16.404  68.566  1.00  0.00    -0.205 A  
HETATM   20  H   UNL     1      -8.840  15.352  70.317  1.00  0.00     0.000 HD 
HETATM   21  C   UNL     1      -6.754  16.441  68.612  1.00  0.00    -0.145 A  
HETATM   22  C   UNL     1      -6.059  17.020  67.541  1.00  0.00    -0.163 A  
HETATM   23  C   UNL     1      -6.744  17.553  66.446  1.00  0.00    -0.297 A  
HETATM   24  C   UNL     1      -8.144  17.550  66.395  1.00  0.00    -0.309 A  
HETATM   25  C   UNL     1      -8.813  16.977  67.481  1.00  0.00    -0.211 A  
HETATM   26  N   UNL     1     -10.143  16.813  67.775  1.00  0.00    -0.272 NA 
ENDBRANCH  15  17
ENDBRANCH  14  15
ENDBRANCH  10  14
ENDBRANCH   6   7
ENDBRANCH   5   6
ENDBRANCH   4   5
ENDBRANCH   3   4
ENDBRANCH   2   3
TORSDOF 8
ENDMDL
MODEL      187
REMARK 921   NORMALIZED FREE ENERGY PREDICTED BY IDOCK:   -4.02 KCAL/MOL
REMARK 922        TOTAL FREE ENERGY PREDICTED BY IDOCK:   -6.78 KCAL/MOL
REMARK 923 INTER-LIGAND FREE ENERGY PREDICTED BY IDOCK:   -5.84 KCAL/MOL
REMARK 924 INTRA-LIGAND FREE ENERGY PREDICTED BY IDOCK:   -0.94 KCAL/MOL
REMARK 927      BINDING AFFINITY PREDICTED BY RF-SCORE:    0.00 PKD
ROOT
HETATM    1  C   UNL     1     -12.434  14.602  64.295  1.00  0.00    -0.239 C  
HETATM    2  O   UNL     1     -12.849  13.282  63.969  1.00  0.00    -0.644 OA 
ENDROOT
BRANCH   2   3
HETATM    3  C   UNL     1     -11.894  12.303  64.375  1.00  0.00    -0.388 C  
BRANCH   3   4
HETATM    4  C   UNL     1     -10.829  12.968  65.238  1.00  0.00    -0.311 C  
BRANCH   4   5
HETATM    5  C   UNL     1     -10.956  12.569  66.708  1.00  0.00    -0.265 C  
BRANCH   5   6
HETATM    6  O   UNL     1      -9.939  11.603  67.016  1.00  0.00    -0.200 OA 
BRANCH   6   7
HETATM    7  C   UNL     1     -10.350  10.559  67.813  1.00  0.00    -0.212 A  
HETATM    8  C   UNL     1     -10.238   9.256  67.289  1.00  0.00    -0.315 A  
HETATM    9  C   UNL     1      -9.789   9.048  65.870  1.00  0.00    -0.257 C  
HETATM   10  C   UNL     1     -10.516   8.180  68.150  1.00  0.00    -0.170 A  
HETATM   11  C   UNL     1     -10.871  10.750  69.090  1.00  0.00    -0.281 A  
HETATM   12  N   UNL     1     -10.975   8.374  69.419  1.00  0.00    -0.082 NA 
HETATM   13  C   UNL     1     -11.177   9.638  69.842  1.00  0.00    -0.207 A  
BRANCH  10  14
HETATM   14  C   UNL     1     -10.225   6.733  67.798  1.00  0.00    -0.171 C  
BRANCH  14  15
HETATM   15  S   UNL     1      -8.597   6.216  68.391  1.00  0.00    -0.111 S  
HETATM   16  O   UNL     1      -7.560   7.296  68.281  1.00  0.00    -0.112 OA 
BRANCH  15  17
HETATM   17  C   UNL     1      -8.919   6.034  70.087  1.00  0.00    -0.147 A  
HETATM   18  N   UNL     1      -8.607   6.895  71.032  1.00  0.00    -0.135 NA 
HETATM   19  C   UNL     1      -9.155   6.381  72.185  1.00  0.00    -0.140 A  
HETATM   20  H   UNL     1      -8.072   7.758  70.931  1.00  0.00     0.000 HD 
HETATM   21  C   UNL     1      -9.133   6.889  73.493  1.00  0.00    -0.172 A  
HETATM   22  C   UNL     1      -9.831   6.202  74.496  1.00  0.00    -0.319 A  
HETATM   23  C   UNL     1     -10.537   5.032  74.204  1.00  0.00    -0.338 A  
HETATM   24  C   UNL     1     -10.549   4.495  72.910  1.00  0.00    -0.275 A  
HETATM   25  C   UNL     1      -9.835   5.194  71.932  1.00  0.00    -0.177 A  
HETATM   26  N   UNL     1      -9.616   4.966  70.597  1.00  0.00    -0.172 NA 
ENDBRANCH  15  17
ENDBRANCH  14  15
ENDBRANCH  10  14
ENDBRANCH   6   7
ENDBRANCH   5   6
ENDBRANCH   4   5
ENDBRANCH   3   4
ENDBRANCH   2   3
TORSDOF 8
ENDMDL
MODEL      188
REMARK 921   NORMALIZED FREE ENERGY PREDICTED BY IDOCK:   -4.02 KCAL/MOL
REMARK 922        TOTAL FREE ENERGY PREDICTED BY IDOCK:   -6.77 KCAL/MOL
REMARK 923 INTER-LIGAND FREE ENERGY PREDICTED BY IDOCK:   -5.63 KCAL/MOL
REMARK 924 INTRA-LIGAND FREE ENERGY PREDICTED BY IDOCK:   -1.15 KCAL/MOL
REMARK 927      BINDING AFFINITY PREDICTED BY RF-SCORE:    0.00 PKD
ROOT
HETATM    1  C   UNL     1      -6.570  17.898  67.241  1.00  0.00    -0.168 C  
HETATM    2  O   UNL     1      -7.169  18.894  68.061  1.00  0.00    -0.235 OA 
ENDROOT
BRANCH   2   3
HETATM    3  C   UNL     1      -7.290  20.144  67.384  1.00  0.00    -0.288 C  
BRANCH   3   4
HETATM    4  C   UNL     1      -8.758  20.549  67.335  1.00  0.00    -0.373 C  
BRANCH   4   5
HETATM    5  C   UNL     1      -9.608  19.729  68.306  1.00  0.00    -0.368 C  
BRANCH   5   6
HETATM    6  O   UNL     1     -10.596  19.003  67.559  1.00  0.00    -0.428 OA 
BRANCH   6   7
HETATM    7  C   UNL     1     -10.453  17.635  67.581  1.00  0.00    -0.372 A  
HETATM    8  C   UNL     1     -10.454  16.959  66.345  1.00  0.00    -0.252 A  
HETATM    9  C   UNL     1     -10.715  17.713  65.071  1.00  0.00     0.542 C  
HETATM   10  C   UNL     1     -10.161  15.584  66.352  1.00  0.00    -0.288 A  
HETATM   11  C   UNL     1     -10.321  16.913  68.765  1.00  0.00    -0.324 A  
HETATM   12  N   UNL     1      -9.978  14.893  67.513  1.00  0.00    -0.219 NA 
HETATM   13  C   UNL     1     -10.100  15.557  68.680  1.00  0.00    -0.210 A  
BRANCH  10  14
HETATM   14  C   UNL     1      -9.906  14.779  65.091  1.00  0.00    -0.129 C  
BRANCH  14  15
HETATM   15  S   UNL     1     -11.032  13.369  64.960  1.00  0.00    -0.334 S  
HETATM   16  O   UNL     1     -11.546  13.156  63.566  1.00  0.00    -0.439 OA 
BRANCH  15  17
HETATM   17  C   UNL     1      -9.938  12.058  65.273  1.00  0.00    -0.247 A  
HETATM   18  N   UNL     1      -8.738  12.161  65.801  1.00  0.00    -0.337 NA 
HETATM   19  C   UNL     1      -8.300  10.865  65.958  1.00  0.00    -0.165 A  
HETATM   20  H   UNL     1      -8.238  13.017  66.042  1.00  0.00     0.000 HD 
HETATM   21  C   UNL     1      -7.090  10.383  66.479  1.00  0.00    -0.114 A  
HETATM   22  C   UNL     1      -6.909   8.997  66.595  1.00  0.00    -0.080 A  
HETATM   23  C   UNL     1      -7.912   8.108  66.199  1.00  0.00    -0.102 A  
HETATM   24  C   UNL     1      -9.116   8.569  65.652  1.00  0.00    -0.189 A  
HETATM   25  C   UNL     1      -9.266   9.955  65.537  1.00  0.00    -0.203 A  
HETATM   26  N   UNL     1     -10.275  10.746  65.049  1.00  0.00    -0.302 NA 
ENDBRANCH  15  17
ENDBRANCH  14  15
ENDBRANCH  10  14
ENDBRANCH   6   7
ENDBRANCH   5   6
ENDBRANCH   4   5
ENDBRANCH   3   4
ENDBRANCH   2   3
TORSDOF 8
ENDMDL
MODEL      189
REMARK 921   NORMALIZED FREE ENERGY PREDICTED BY IDOCK:   -4.01 KCAL/MOL
REMARK 922        TOTAL FREE ENERGY PREDICTED BY IDOCK:   -6.75 KCAL/MOL
REMARK 923 INTER-LIGAND FREE ENERGY PREDICTED BY IDOCK:   -6.24 KCAL/MOL
REMARK 924 INTRA-LIGAND FREE ENERGY PREDICTED BY IDOCK:   -0.51 KCAL/MOL
REMARK 927      BINDING AFFINITY PREDICTED BY RF-SCORE:    0.00 PKD
ROOT
HETATM    1  C   UNL     1     -10.761  10.885  63.406  1.00  0.00     0.058 C  
HETATM    2  O   UNL     1     -11.218  12.222  63.240  1.00  0.00    -0.419 OA 
ENDROOT
BRANCH   2   3
HETATM    3  C   UNL     1     -11.753  12.759  64.448  1.00  0.00    -0.368 C  
BRANCH   3   4
HETATM    4  C   UNL     1     -11.109  12.059  65.639  1.00  0.00    -0.361 C  
BRANCH   4   5
HETATM    5  C   UNL     1     -11.485  12.726  66.962  1.00  0.00    -0.341 C  
BRANCH   5   6
HETATM    6  O   UNL     1     -11.866  14.086  66.705  1.00  0.00    -0.380 OA 
BRANCH   6   7
HETATM    7  C   UNL     1     -11.405  15.003  67.621  1.00  0.00    -0.334 A  
HETATM    8  C   UNL     1     -10.888  16.216  67.127  1.00  0.00    -0.216 A  
HETATM    9  C   UNL     1     -10.752  16.432  65.645  1.00  0.00    -0.280 C  
HETATM   10  C   UNL     1     -10.554  17.214  68.060  1.00  0.00    -0.374 A  
HETATM   11  C   UNL     1     -11.426  14.768  68.994  1.00  0.00    -0.316 A  
HETATM   12  N   UNL     1     -10.629  16.995  69.404  1.00  0.00    -0.310 NA 
HETATM   13  C   UNL     1     -11.020  15.780  69.835  1.00  0.00    -0.333 A  
BRANCH  10  14
HETATM   14  C   UNL     1     -10.202  18.637  67.670  1.00  0.00    -0.384 C  
BRANCH  14  15
HETATM   15  S   UNL     1      -8.479  18.776  67.136  1.00  0.00    -0.278 S  
HETATM   16  O   UNL     1      -7.842  20.074  67.541  1.00  0.00    -0.282 OA 
BRANCH  15  17
HETATM   17  C   UNL     1      -7.741  17.553  68.121  1.00  0.00    -0.231 A  
HETATM   18  N   UNL     1      -7.751  16.258  67.885  1.00  0.00    -0.138 NA 
HETATM   19  C   UNL     1      -6.953  15.707  68.863  1.00  0.00    -0.130 A  
HETATM   20  H   UNL     1      -8.244  15.768  67.139  1.00  0.00     0.000 HD 
HETATM   21  C   UNL     1      -6.609  14.366  69.090  1.00  0.00    -0.112 A  
HETATM   22  C   UNL     1      -5.715  14.065  70.127  1.00  0.00    -0.128 A  
HETATM   23  C   UNL     1      -5.175  15.077  70.924  1.00  0.00    -0.138 A  
HETATM   24  C   UNL     1      -5.527  16.419  70.730  1.00  0.00    -0.056 A  
HETATM   25  C   UNL     1      -6.429  16.691  69.697  1.00  0.00    -0.195 A  
HETATM   26  N   UNL     1      -6.997  17.851  69.236  1.00  0.00    -0.198 NA 
ENDBRANCH  15  17
ENDBRANCH  14  15
ENDBRANCH  10  14
ENDBRANCH   6   7
ENDBRANCH   5   6
ENDBRANCH   4   5
ENDBRANCH   3   4
ENDBRANCH   2   3
TORSDOF 8
ENDMDL
MODEL      190
REMARK 921   NORMALIZED FREE ENERGY PREDICTED BY IDOCK:   -4.00 KCAL/MOL
REMARK 922        TOTAL FREE ENERGY PREDICTED BY IDOCK:   -6.75 KCAL/MOL
REMARK 923 INTER-LIGAND FREE ENERGY PREDICTED BY IDOCK:   -5.79 KCAL/MOL
REMARK 924 INTRA-LIGAND FREE ENERGY PREDICTED BY IDOCK:   -0.96 KCAL/MOL
REMARK 927      BINDING AFFINITY PREDICTED BY RF-SCORE:    0.00 PKD
ROOT
HETATM    1  C   UNL     1     -13.116  13.037  71.274  1.00  0.00    -0.179 C  
HETATM    2  O   UNL     1     -11.889  13.495  70.720  1.00  0.00    -0.237 OA 
ENDROOT
BRANCH   2   3
HETATM    3  C   UNL     1     -11.407  12.629  69.694  1.00  0.00    -0.104 C  
BRANCH   3   4
HETATM    4  C   UNL     1     -12.374  12.657  68.516  1.00  0.00     0.275 C  
BRANCH   4   5
HETATM    5  C   UNL     1     -11.639  12.737  67.178  1.00  0.00    -0.364 C  
BRANCH   5   6
HETATM    6  O   UNL     1     -10.537  13.649  67.307  1.00  0.00    -0.264 OA 
BRANCH   6   7
HETATM    7  C   UNL     1     -10.668  14.824  66.604  1.00  0.00    -0.309 A  
HETATM    8  C   UNL     1     -10.218  16.008  67.221  1.00  0.00    -0.277 A  
HETATM    9  C   UNL     1      -9.721  15.979  68.639  1.00  0.00    -0.217 C  
HETATM   10  C   UNL     1     -10.212  17.185  66.452  1.00  0.00    -0.328 A  
HETATM   11  C   UNL     1     -11.229  14.878  65.330  1.00  0.00    -0.359 A  
HETATM   12  N   UNL     1     -10.714  17.218  65.184  1.00  0.00    -0.651 NA 
HETATM   13  C   UNL     1     -11.240  16.087  64.673  1.00  0.00    -0.330 A  
BRANCH  10  14
HETATM   14  C   UNL     1      -9.553  18.474  66.904  1.00  0.00    -0.307 C  
BRANCH  14  15
HETATM   15  S   UNL     1      -7.862  18.615  66.278  1.00  0.00    -0.233 S  
HETATM   16  O   UNL     1      -7.676  19.776  65.345  1.00  0.00    -0.372 OA 
BRANCH  15  17
HETATM   17  C   UNL     1      -7.017  19.033  67.735  1.00  0.00    -0.215 A  
HETATM   18  N   UNL     1      -6.635  20.241  68.090  1.00  0.00    -0.288 NA 
HETATM   19  C   UNL     1      -6.112  20.098  69.356  1.00  0.00    -0.330 A  
HETATM   20  H   UNL     1      -6.710  21.100  67.544  1.00  0.00     0.000 HD 
HETATM   21  C   UNL     1      -5.561  21.062  70.214  1.00  0.00     0.046 A  
HETATM   22  C   UNL     1      -5.153  20.669  71.496  1.00  0.00    -0.272 A  
HETATM   23  C   UNL     1      -5.288  19.344  71.916  1.00  0.00    -0.319 A  
HETATM   24  C   UNL     1      -5.810  18.362  71.065  1.00  0.00     0.300 A  
HETATM   25  C   UNL     1      -6.200  18.778  69.788  1.00  0.00    -0.218 A  
HETATM   26  N   UNL     1      -6.725  18.111  68.710  1.00  0.00    -0.237 NA 
ENDBRANCH  15  17
ENDBRANCH  14  15
ENDBRANCH  10  14
ENDBRANCH   6   7
ENDBRANCH   5   6
ENDBRANCH   4   5
ENDBRANCH   3   4
ENDBRANCH   2   3
TORSDOF 8
ENDMDL
MODEL      191
REMARK 921   NORMALIZED FREE ENERGY PREDICTED BY IDOCK:   -4.00 KCAL/MOL
REMARK 922        TOTAL FREE ENERGY PREDICTED BY IDOCK:   -6.75 KCAL/MOL
REMARK 923 INTER-LIGAND FREE ENERGY PREDICTED BY IDOCK:   -5.94 KCAL/MOL
REMARK 924 INTRA-LIGAND FREE ENERGY PREDICTED BY IDOCK:   -0.80 KCAL/MOL
REMARK 927      BINDING AFFINITY PREDICTED BY RF-SCORE:    0.00 PKD
ROOT
HETATM    1  C   UNL     1     -12.697   6.941  71.584  1.00  0.00    -0.352 C  
HETATM    2  O   UNL     1     -11.330   7.063  71.956  1.00  0.00    -0.249 OA 
ENDROOT
BRANCH   2   3
HETATM    3  C   UNL     1     -10.454   6.885  70.844  1.00  0.00    -0.211 C  
BRANCH   3   4
HETATM    4  C   UNL     1     -11.232   6.279  69.682  1.00  0.00    -0.506 C  
BRANCH   4   5
HETATM    5  C   UNL     1     -10.757   6.823  68.335  1.00  0.00    -0.232 C  
BRANCH   5   6
HETATM    6  O   UNL     1      -9.435   7.361  68.491  1.00  0.00    -0.144 OA 
BRANCH   6   7
HETATM    7  C   UNL     1      -9.113   8.377  67.621  1.00  0.00    -0.135 A  
HETATM    8  C   UNL     1      -8.407   9.480  68.139  1.00  0.00    -0.118 A  
HETATM    9  C   UNL     1      -8.126   9.574  69.612  1.00  0.00    -0.128 C  
HETATM   10  C   UNL     1      -7.947  10.448  67.228  1.00  0.00    -0.110 A  
HETATM   11  C   UNL     1      -9.466   8.351  66.274  1.00  0.00    -0.292 A  
HETATM   12  N   UNL     1      -8.251  10.388  65.900  1.00  0.00    -0.145 NA 
HETATM   13  C   UNL     1      -9.027   9.375  65.465  1.00  0.00    -0.204 A  
BRANCH  10  14
HETATM   14  C   UNL     1      -6.991  11.563  67.607  1.00  0.00    -0.091 C  
BRANCH  14  15
HETATM   15  S   UNL     1      -7.845  12.922  68.441  1.00  0.00    -0.111 S  
HETATM   16  O   UNL     1      -7.032  14.183  68.492  1.00  0.00    -0.090 OA 
BRANCH  15  17
HETATM   17  C   UNL     1      -9.131  13.226  67.317  1.00  0.00    -0.221 A  
HETATM   18  N   UNL     1     -10.270  12.572  67.247  1.00  0.00    -0.216 NA 
HETATM   19  C   UNL     1     -11.009  13.233  66.292  1.00  0.00    -0.284 A  
HETATM   20  H   UNL     1     -10.547  11.750  67.785  1.00  0.00     0.000 HD 
HETATM   21  C   UNL     1     -12.302  12.968  65.815  1.00  0.00    -0.477 A  
HETATM   22  C   UNL     1     -12.866  13.840  64.873  1.00  0.00    -0.242 A  
HETATM   23  C   UNL     1     -12.157  14.953  64.413  1.00  0.00    -0.417 A  
HETATM   24  C   UNL     1     -10.855  15.218  64.856  1.00  0.00    -0.444 A  
HETATM   25  C   UNL     1     -10.312  14.326  65.786  1.00  0.00    -0.327 A  
HETATM   26  N   UNL     1      -9.095  14.262  66.415  1.00  0.00    -0.197 NA 
ENDBRANCH  15  17
ENDBRANCH  14  15
ENDBRANCH  10  14
ENDBRANCH   6   7
ENDBRANCH   5   6
ENDBRANCH   4   5
ENDBRANCH   3   4
ENDBRANCH   2   3
TORSDOF 8
ENDMDL
MODEL      192
REMARK 921   NORMALIZED FREE ENERGY PREDICTED BY IDOCK:   -3.99 KCAL/MOL
REMARK 922        TOTAL FREE ENERGY PREDICTED BY IDOCK:   -6.73 KCAL/MOL
REMARK 923 INTER-LIGAND FREE ENERGY PREDICTED BY IDOCK:   -5.92 KCAL/MOL
REMARK 924 INTRA-LIGAND FREE ENERGY PREDICTED BY IDOCK:   -0.80 KCAL/MOL
REMARK 927      BINDING AFFINITY PREDICTED BY RF-SCORE:    0.00 PKD
ROOT
HETATM    1  C   UNL     1     -13.430  15.920  73.084  1.00  0.00    -0.563 C  
HETATM    2  O   UNL     1     -13.605  15.890  71.672  1.00  0.00    -0.420 OA 
ENDROOT
BRANCH   2   3
HETATM    3  C   UNL     1     -13.287  14.614  71.120  1.00  0.00    -0.373 C  
BRANCH   3   4
HETATM    4  C   UNL     1     -13.638  13.527  72.129  1.00  0.00    -0.651 C  
BRANCH   4   5
HETATM    5  C   UNL     1     -13.096  12.162  71.707  1.00  0.00    -0.352 C  
BRANCH   5   6
HETATM    6  O   UNL     1     -12.147  12.347  70.645  1.00  0.00    -0.358 OA 
BRANCH   6   7
HETATM    7  C   UNL     1     -11.706  11.188  70.049  1.00  0.00    -0.356 A  
HETATM    8  C   UNL     1     -11.551  11.194  68.649  1.00  0.00    -0.383 A  
HETATM    9  C   UNL     1     -11.964  12.396  67.847  1.00  0.00    -0.260 C  
HETATM   10  C   UNL     1     -10.962  10.065  68.052  1.00  0.00    -0.240 A  
HETATM   11  C   UNL     1     -11.425  10.032  70.772  1.00  0.00    -0.438 A  
HETATM   12  N   UNL     1     -10.638   8.956  68.776  1.00  0.00    -0.194 NA 
HETATM   13  C   UNL     1     -10.909   8.949  70.096  1.00  0.00    -0.231 A  
BRANCH  10  14
HETATM   14  C   UNL     1     -10.529  10.020  66.599  1.00  0.00    -0.174 C  
BRANCH  14  15
HETATM   15  S   UNL     1      -8.893  10.753  66.365  1.00  0.00    -0.171 S  
HETATM   16  O   UNL     1      -8.835  12.199  66.763  1.00  0.00    -0.197 OA 
BRANCH  15  17
HETATM   17  C   UNL     1      -7.983   9.890  67.566  1.00  0.00    -0.106 A  
HETATM   18  N   UNL     1      -7.823  10.248  68.822  1.00  0.00    -0.099 NA 
HETATM   19  C   UNL     1      -7.132   9.211  69.408  1.00  0.00    -0.053 A  
HETATM   20  H   UNL     1      -8.142  11.110  69.266  1.00  0.00     0.000 HD 
HETATM   21  C   UNL     1      -6.695   9.059  70.733  1.00  0.00    -0.067 A  
HETATM   22  C   UNL     1      -6.061   7.865  71.101  1.00  0.00    -0.034 A  
HETATM   23  C   UNL     1      -5.863   6.842  70.170  1.00  0.00    -0.023 A  
HETATM   24  C   UNL     1      -6.267   6.986  68.837  1.00  0.00    -0.027 A  
HETATM   25  C   UNL     1      -6.887   8.191  68.493  1.00  0.00    -0.068 A  
HETATM   26  N   UNL     1      -7.388   8.679  67.312  1.00  0.00    -0.087 NA 
ENDBRANCH  15  17
ENDBRANCH  14  15
ENDBRANCH  10  14
ENDBRANCH   6   7
ENDBRANCH   5   6
ENDBRANCH   4   5
ENDBRANCH   3   4
ENDBRANCH   2   3
TORSDOF 8
ENDMDL
MODEL      193
REMARK 921   NORMALIZED FREE ENERGY PREDICTED BY IDOCK:   -3.99 KCAL/MOL
REMARK 922        TOTAL FREE ENERGY PREDICTED BY IDOCK:   -6.72 KCAL/MOL
REMARK 923 INTER-LIGAND FREE ENERGY PREDICTED BY IDOCK:   -5.37 KCAL/MOL
REMARK 924 INTRA-LIGAND FREE ENERGY PREDICTED BY IDOCK:   -1.36 KCAL/MOL
REMARK 927      BINDING AFFINITY PREDICTED BY RF-SCORE:    0.00 PKD
ROOT
HETATM    1  C   UNL     1     -11.517  11.853  66.502  1.00  0.00    -0.314 C  
HETATM    2  O   UNL     1     -12.103  12.085  67.777  1.00  0.00    -0.537 OA 
ENDROOT
BRANCH   2   3
HETATM    3  C   UNL     1     -11.670  11.134  68.748  1.00  0.00    -0.326 C  
BRANCH   3   4
HETATM    4  C   UNL     1     -10.884  10.029  68.054  1.00  0.00    -0.311 C  
BRANCH   4   5
HETATM    5  C   UNL     1     -10.297   9.033  69.054  1.00  0.00    -0.219 C  
BRANCH   5   6
HETATM    6  O   UNL     1     -11.087   9.058  70.253  1.00  0.00    -0.244 OA 
BRANCH   6   7
HETATM    7  C   UNL     1     -10.556   8.365  71.316  1.00  0.00    -0.222 A  
HETATM    8  C   UNL     1     -11.150   7.133  71.653  1.00  0.00    -0.264 A  
HETATM    9  C   UNL     1     -12.388   6.669  70.937  1.00  0.00    -0.260 C  
HETATM   10  C   UNL     1     -10.522   6.353  72.640  1.00  0.00    -0.210 A  
HETATM   11  C   UNL     1      -9.477   8.839  72.057  1.00  0.00    -0.336 A  
HETATM   12  N   UNL     1      -9.432   6.801  73.325  1.00  0.00    -0.144 NA 
HETATM   13  C   UNL     1      -8.963   8.035  73.049  1.00  0.00    -0.248 A  
BRANCH  10  14
HETATM   14  C   UNL     1     -10.915   4.920  72.945  1.00  0.00    -0.262 C  
BRANCH  14  15
HETATM   15  S   UNL     1      -9.647   3.749  72.404  1.00  0.00    -0.147 S  
HETATM   16  O   UNL     1     -10.180   2.361  72.195  1.00  0.00    -0.162 OA 
BRANCH  15  17
HETATM   17  C   UNL     1      -9.296   4.370  70.821  1.00  0.00    -0.154 A  
HETATM   18  N   UNL     1     -10.031   4.202  69.743  1.00  0.00    -0.145 NA 
HETATM   19  C   UNL     1      -9.420   4.960  68.769  1.00  0.00    -0.145 A  
HETATM   20  H   UNL     1     -10.872   3.632  69.648  1.00  0.00     0.000 HD 
HETATM   21  C   UNL     1      -9.778   5.152  67.425  1.00  0.00    -0.172 A  
HETATM   22  C   UNL     1      -9.021   6.037  66.645  1.00  0.00    -0.129 A  
HETATM   23  C   UNL     1      -7.927   6.716  67.190  1.00  0.00    -0.109 A  
HETATM   24  C   UNL     1      -7.538   6.516  68.520  1.00  0.00    -0.097 A  
HETATM   25  C   UNL     1      -8.304   5.620  69.273  1.00  0.00    -0.107 A  
HETATM   26  N   UNL     1      -8.214   5.177  70.568  1.00  0.00    -0.100 NA 
ENDBRANCH  15  17
ENDBRANCH  14  15
ENDBRANCH  10  14
ENDBRANCH   6   7
ENDBRANCH   5   6
ENDBRANCH   4   5
ENDBRANCH   3   4
ENDBRANCH   2   3
TORSDOF 8
ENDMDL
MODEL      194
REMARK 921   NORMALIZED FREE ENERGY PREDICTED BY IDOCK:   -3.99 KCAL/MOL
REMARK 922        TOTAL FREE ENERGY PREDICTED BY IDOCK:   -6.72 KCAL/MOL
REMARK 923 INTER-LIGAND FREE ENERGY PREDICTED BY IDOCK:   -5.75 KCAL/MOL
REMARK 924 INTRA-LIGAND FREE ENERGY PREDICTED BY IDOCK:   -0.97 KCAL/MOL
REMARK 927      BINDING AFFINITY PREDICTED BY RF-SCORE:    0.00 PKD
ROOT
HETATM    1  C   UNL     1     -14.292  15.099  72.057  1.00  0.00    -0.586 C  
HETATM    2  O   UNL     1     -13.579  14.727  70.885  1.00  0.00    -0.351 OA 
ENDROOT
BRANCH   2   3
HETATM    3  C   UNL     1     -12.666  13.659  71.128  1.00  0.00    -0.353 C  
BRANCH   3   4
HETATM    4  C   UNL     1     -13.286  12.683  72.121  1.00  0.00    -0.570 C  
BRANCH   4   5
HETATM    5  C   UNL     1     -13.284  11.250  71.588  1.00  0.00    -0.327 C  
BRANCH   5   6
HETATM    6  O   UNL     1     -11.980  10.952  71.063  1.00  0.00    -0.326 OA 
BRANCH   6   7
HETATM    7  C   UNL     1     -11.549   9.662  71.274  1.00  0.00    -0.393 A  
HETATM    8  C   UNL     1     -10.510   9.180  70.454  1.00  0.00    -0.268 A  
HETATM    9  C   UNL     1      -9.985  10.023  69.325  1.00  0.00    -0.226 C  
HETATM   10  C   UNL     1      -9.966   7.921  70.761  1.00  0.00    -0.184 A  
HETATM   11  C   UNL     1     -12.105   8.835  72.245  1.00  0.00    -0.423 A  
HETATM   12  N   UNL     1     -10.481   7.137  71.751  1.00  0.00    -0.198 NA 
HETATM   13  C   UNL     1     -11.550   7.589  72.436  1.00  0.00    -0.309 A  
BRANCH  10  14
HETATM   14  C   UNL     1      -8.707   7.375  70.114  1.00  0.00    -0.143 C  
BRANCH  14  15
HETATM   15  S   UNL     1      -7.230   7.795  71.069  1.00  0.00    -0.055 S  
HETATM   16  O   UNL     1      -6.133   6.779  70.931  1.00  0.00    -0.031 OA 
BRANCH  15  17
HETATM   17  C   UNL     1      -6.687   9.204  70.213  1.00  0.00    -0.055 A  
HETATM   18  N   UNL     1      -6.465   9.286  68.918  1.00  0.00    -0.047 NA 
HETATM   19  C   UNL     1      -6.163  10.610  68.687  1.00  0.00    -0.046 A  
HETATM   20  H   UNL     1      -6.506   8.531  68.233  1.00  0.00     0.000 HD 
HETATM   21  C   UNL     1      -5.845  11.261  67.485  1.00  0.00    -0.055 A  
HETATM   22  C   UNL     1      -5.640  12.647  67.503  1.00  0.00    -0.121 A  
HETATM   23  C   UNL     1      -5.748  13.372  68.692  1.00  0.00    -0.084 A  
HETATM   24  C   UNL     1      -6.038  12.737  69.906  1.00  0.00    -0.122 A  
HETATM   25  C   UNL     1      -6.227  11.352  69.862  1.00  0.00    -0.143 A  
HETATM   26  N   UNL     1      -6.503  10.418  70.829  1.00  0.00    -0.335 NA 
ENDBRANCH  15  17
ENDBRANCH  14  15
ENDBRANCH  10  14
ENDBRANCH   6   7
ENDBRANCH   5   6
ENDBRANCH   4   5
ENDBRANCH   3   4
ENDBRANCH   2   3
TORSDOF 8
ENDMDL
MODEL      195
REMARK 921   NORMALIZED FREE ENERGY PREDICTED BY IDOCK:   -3.98 KCAL/MOL
REMARK 922        TOTAL FREE ENERGY PREDICTED BY IDOCK:   -6.72 KCAL/MOL
REMARK 923 INTER-LIGAND FREE ENERGY PREDICTED BY IDOCK:   -5.92 KCAL/MOL
REMARK 924 INTRA-LIGAND FREE ENERGY PREDICTED BY IDOCK:   -0.80 KCAL/MOL
REMARK 927      BINDING AFFINITY PREDICTED BY RF-SCORE:    0.00 PKD
ROOT
HETATM    1  C   UNL     1      -6.025  12.099  67.227  1.00  0.00    -0.152 C  
HETATM    2  O   UNL     1      -5.615  10.749  67.053  1.00  0.00    -0.042 OA 
ENDROOT
BRANCH   2   3
HETATM    3  C   UNL     1      -6.483  10.034  66.175  1.00  0.00    -0.086 C  
BRANCH   3   4
HETATM    4  C   UNL     1      -6.695   8.624  66.714  1.00  0.00    -0.069 C  
BRANCH   4   5
HETATM    5  C   UNL     1      -5.924   8.391  68.013  1.00  0.00    -0.043 C  
BRANCH   5   6
HETATM    6  O   UNL     1      -6.621   9.037  69.089  1.00  0.00    -0.049 OA 
BRANCH   6   7
HETATM    7  C   UNL     1      -7.715   8.354  69.569  1.00  0.00    -0.096 A  
HETATM    8  C   UNL     1      -8.938   9.048  69.640  1.00  0.00    -0.153 A  
HETATM    9  C   UNL     1      -8.997  10.512  69.305  1.00  0.00    -0.148 C  
HETATM   10  C   UNL     1     -10.087   8.315  69.988  1.00  0.00    -0.196 A  
HETATM   11  C   UNL     1      -7.646   7.027  69.987  1.00  0.00    -0.099 A  
HETATM   12  N   UNL     1     -10.020   7.000  70.344  1.00  0.00    -0.180 NA 
HETATM   13  C   UNL     1      -8.811   6.404  70.373  1.00  0.00    -0.151 A  
BRANCH  10  14
HETATM   14  C   UNL     1     -11.494   8.872  69.888  1.00  0.00     0.117 C  
BRANCH  14  15
HETATM   15  S   UNL     1     -12.240   9.101  71.520  1.00  0.00    -0.370 S  
HETATM   16  O   UNL     1     -11.255   8.948  72.643  1.00  0.00    -0.084 OA 
BRANCH  15  17
HETATM   17  C   UNL     1     -12.632  10.791  71.455  1.00  0.00    -0.395 A  
HETATM   18  N   UNL     1     -13.447  11.429  72.269  1.00  0.00    -0.518 NA 
HETATM   19  C   UNL     1     -13.356  12.753  71.905  1.00  0.00    -0.413 A  
HETATM   20  H   UNL     1     -14.022  11.027  73.010  1.00  0.00     0.000 HD 
HETATM   21  C   UNL     1     -14.007  13.877  72.438  1.00  0.00    -0.633 A  
HETATM   22  C   UNL     1     -13.691  15.144  71.928  1.00  0.00    -0.577 A  
HETATM   23  C   UNL     1     -12.748  15.291  70.907  1.00  0.00    -0.496 A  
HETATM   24  C   UNL     1     -12.109  14.180  70.344  1.00  0.00    -0.417 A  
HETATM   25  C   UNL     1     -12.451  12.927  70.862  1.00  0.00    -0.296 A  
HETATM   26  N   UNL     1     -12.050  11.651  70.556  1.00  0.00    -0.377 NA 
ENDBRANCH  15  17
ENDBRANCH  14  15
ENDBRANCH  10  14
ENDBRANCH   6   7
ENDBRANCH   5   6
ENDBRANCH   4   5
ENDBRANCH   3   4
ENDBRANCH   2   3
TORSDOF 8
ENDMDL
MODEL      196
REMARK 921   NORMALIZED FREE ENERGY PREDICTED BY IDOCK:   -3.97 KCAL/MOL
REMARK 922        TOTAL FREE ENERGY PREDICTED BY IDOCK:   -6.70 KCAL/MOL
REMARK 923 INTER-LIGAND FREE ENERGY PREDICTED BY IDOCK:   -5.69 KCAL/MOL
REMARK 924 INTRA-LIGAND FREE ENERGY PREDICTED BY IDOCK:   -1.01 KCAL/MOL
REMARK 927      BINDING AFFINITY PREDICTED BY RF-SCORE:    0.00 PKD
ROOT
HETATM    1  C   UNL     1     -13.877  15.892  72.830  1.00  0.00    -0.457 C  
HETATM    2  O   UNL     1     -13.344  15.567  71.552  1.00  0.00    -0.473 OA 
ENDROOT
BRANCH   2   3
HETATM    3  C   UNL     1     -12.625  14.335  71.568  1.00  0.00    -0.354 C  
BRANCH   3   4
HETATM    4  C   UNL     1     -13.288  13.378  72.552  1.00  0.00    -0.588 C  
BRANCH   4   5
HETATM    5  C   UNL     1     -13.362  11.956  71.999  1.00  0.00    -0.320 C  
BRANCH   5   6
HETATM    6  O   UNL     1     -12.447  11.836  70.899  1.00  0.00    -0.372 OA 
BRANCH   6   7
HETATM    7  C   UNL     1     -12.013  10.557  70.638  1.00  0.00    -0.357 A  
HETATM    8  C   UNL     1     -11.452  10.304  69.371  1.00  0.00    -0.248 A  
HETATM    9  C   UNL     1     -11.442  11.379  68.321  1.00  0.00    -0.369 C  
HETATM   10  C   UNL     1     -10.874   9.041  69.152  1.00  0.00    -0.089 A  
HETATM   11  C   UNL     1     -12.119   9.525  71.567  1.00  0.00    -0.468 A  
HETATM   12  N   UNL     1     -10.934   8.051  70.088  1.00  0.00    -0.246 NA 
HETATM   13  C   UNL     1     -11.581   8.299  71.244  1.00  0.00    -0.281 A  
BRANCH  10  14
HETATM   14  C   UNL     1     -10.043   8.704  67.929  1.00  0.00    -0.203 C  
BRANCH  14  15
HETATM   15  S   UNL     1      -8.271   8.796  68.280  1.00  0.00    -0.118 S  
HETATM   16  O   UNL     1      -7.965   9.452  69.594  1.00  0.00    -0.089 OA 
BRANCH  15  17
HETATM   17  C   UNL     1      -7.900   7.113  68.488  1.00  0.00    -0.122 A  
HETATM   18  N   UNL     1      -8.261   6.360  69.505  1.00  0.00    -0.117 NA 
HETATM   19  C   UNL     1      -7.842   5.089  69.180  1.00  0.00    -0.080 A  
HETATM   20  H   UNL     1      -8.746   6.655  70.352  1.00  0.00     0.000 HD 
HETATM   21  C   UNL     1      -7.967   3.892  69.901  1.00  0.00    -0.054 A  
HETATM   22  C   UNL     1      -7.511   2.702  69.317  1.00  0.00    -0.044 A  
HETATM   23  C   UNL     1      -6.939   2.703  68.041  1.00  0.00    -0.048 A  
HETATM   24  C   UNL     1      -6.781   3.892  67.318  1.00  0.00    -0.047 A  
HETATM   25  C   UNL     1      -7.234   5.066  67.928  1.00  0.00    -0.067 A  
HETATM   26  N   UNL     1      -7.231   6.381  67.537  1.00  0.00    -0.083 NA 
ENDBRANCH  15  17
ENDBRANCH  14  15
ENDBRANCH  10  14
ENDBRANCH   6   7
ENDBRANCH   5   6
ENDBRANCH   4   5
ENDBRANCH   3   4
ENDBRANCH   2   3
TORSDOF 8
ENDMDL
MODEL      197
REMARK 921   NORMALIZED FREE ENERGY PREDICTED BY IDOCK:   -3.97 KCAL/MOL
REMARK 922        TOTAL FREE ENERGY PREDICTED BY IDOCK:   -6.70 KCAL/MOL
REMARK 923 INTER-LIGAND FREE ENERGY PREDICTED BY IDOCK:   -6.18 KCAL/MOL
REMARK 924 INTRA-LIGAND FREE ENERGY PREDICTED BY IDOCK:   -0.53 KCAL/MOL
REMARK 927      BINDING AFFINITY PREDICTED BY RF-SCORE:    0.00 PKD
ROOT
HETATM    1  C   UNL     1      -9.927  19.599  68.904  1.00  0.00    -0.438 C  
HETATM    2  O   UNL     1     -10.592  18.696  68.029  1.00  0.00    -0.371 OA 
ENDROOT
BRANCH   2   3
HETATM    3  C   UNL     1     -10.096  18.780  66.694  1.00  0.00    -0.378 C  
BRANCH   3   4
HETATM    4  C   UNL     1     -10.533  17.544  65.917  1.00  0.00    -0.251 C  
BRANCH   4   5
HETATM    5  C   UNL     1      -9.727  16.307  66.315  1.00  0.00    -0.304 C  
BRANCH   5   6
HETATM    6  O   UNL     1     -10.546  15.466  67.142  1.00  0.00    -0.292 OA 
BRANCH   6   7
HETATM    7  C   UNL     1     -10.911  14.267  66.574  1.00  0.00    -0.304 A  
HETATM    8  C   UNL     1     -10.147  13.130  66.903  1.00  0.00    -0.245 A  
HETATM    9  C   UNL     1      -8.918  13.267  67.757  1.00  0.00    -0.196 C  
HETATM   10  C   UNL     1     -10.603  11.882  66.444  1.00  0.00    -0.248 A  
HETATM   11  C   UNL     1     -11.983  14.150  65.694  1.00  0.00    -0.401 A  
HETATM   12  N   UNL     1     -11.688  11.768  65.626  1.00  0.00    -0.316 NA 
HETATM   13  C   UNL     1     -12.322  12.894  65.242  1.00  0.00    -0.490 A  
BRANCH  10  14
HETATM   14  C   UNL     1     -10.016  10.560  66.903  1.00  0.00    -0.200 C  
BRANCH  14  15
HETATM   15  S   UNL     1      -8.560  10.103  65.932  1.00  0.00    -0.152 S  
HETATM   16  O   UNL     1      -7.274  10.265  66.691  1.00  0.00    -0.100 OA 
BRANCH  15  17
HETATM   17  C   UNL     1      -8.808   8.393  65.772  1.00  0.00    -0.165 A  
HETATM   18  N   UNL     1      -8.242   7.608  64.880  1.00  0.00    -0.239 NA 
HETATM   19  C   UNL     1      -8.650   6.334  65.209  1.00  0.00    -0.061 A  
HETATM   20  H   UNL     1      -7.633   7.884  64.110  1.00  0.00     0.000 HD 
HETATM   21  C   UNL     1      -8.345   5.109  64.598  1.00  0.00    -0.140 A  
HETATM   22  C   UNL     1      -8.838   3.928  65.170  1.00  0.00    -0.126 A  
HETATM   23  C   UNL     1      -9.620   3.966  66.328  1.00  0.00    -0.198 A  
HETATM   24  C   UNL     1      -9.958   5.181  66.937  1.00  0.00    -0.227 A  
HETATM   25  C   UNL     1      -9.462   6.344  66.339  1.00  0.00    -0.133 A  
HETATM   26  N   UNL     1      -9.595   7.676  66.640  1.00  0.00    -0.201 NA 
ENDBRANCH  15  17
ENDBRANCH  14  15
ENDBRANCH  10  14
ENDBRANCH   6   7
ENDBRANCH   5   6
ENDBRANCH   4   5
ENDBRANCH   3   4
ENDBRANCH   2   3
TORSDOF 8
ENDMDL
MODEL      198
REMARK 921   NORMALIZED FREE ENERGY PREDICTED BY IDOCK:   -3.95 KCAL/MOL
REMARK 922        TOTAL FREE ENERGY PREDICTED BY IDOCK:   -6.67 KCAL/MOL
REMARK 923 INTER-LIGAND FREE ENERGY PREDICTED BY IDOCK:   -6.11 KCAL/MOL
REMARK 924 INTRA-LIGAND FREE ENERGY PREDICTED BY IDOCK:   -0.56 KCAL/MOL
REMARK 927      BINDING AFFINITY PREDICTED BY RF-SCORE:    0.00 PKD
ROOT
HETATM    1  C   UNL     1     -10.627   5.420  69.350  1.00  0.00    -0.225 C  
HETATM    2  O   UNL     1     -10.563   5.470  67.930  1.00  0.00    -0.205 OA 
ENDROOT
BRANCH   2   3
HETATM    3  C   UNL     1      -9.935   4.313  67.380  1.00  0.00    -0.066 C  
BRANCH   3   4
HETATM    4  C   UNL     1      -8.467   4.619  67.108  1.00  0.00    -0.105 C  
BRANCH   4   5
HETATM    5  C   UNL     1      -8.277   6.014  66.515  1.00  0.00    -0.107 C  
BRANCH   5   6
HETATM    6  O   UNL     1      -7.191   6.664  67.194  1.00  0.00    -0.077 OA 
BRANCH   6   7
HETATM    7  C   UNL     1      -7.512   7.215  68.413  1.00  0.00    -0.106 A  
HETATM    8  C   UNL     1      -8.099   8.495  68.416  1.00  0.00    -0.122 A  
HETATM    9  C   UNL     1      -8.254   9.259  67.131  1.00  0.00    -0.117 C  
HETATM   10  C   UNL     1      -8.564   8.998  69.644  1.00  0.00    -0.137 A  
HETATM   11  C   UNL     1      -7.271   6.560  69.618  1.00  0.00    -0.078 A  
HETATM   12  N   UNL     1      -8.372   8.327  70.815  1.00  0.00    -0.117 NA 
HETATM   13  C   UNL     1      -7.704   7.156  70.782  1.00  0.00    -0.094 A  
BRANCH  10  14
HETATM   14  C   UNL     1      -9.410  10.252  69.766  1.00  0.00    -0.080 C  
BRANCH  14  15
HETATM   15  S   UNL     1     -11.174   9.862  69.847  1.00  0.00    -0.235 S  
HETATM   16  O   UNL     1     -11.504   8.851  70.907  1.00  0.00    -0.275 OA 
BRANCH  15  17
HETATM   17  C   UNL     1     -11.808  11.375  70.415  1.00  0.00    -0.335 A  
HETATM   18  N   UNL     1     -11.555  12.561  69.905  1.00  0.00    -0.496 NA 
HETATM   19  C   UNL     1     -12.359  13.434  70.604  1.00  0.00    -0.348 A  
HETATM   20  H   UNL     1     -10.903  12.786  69.153  1.00  0.00     0.000 HD 
HETATM   21  C   UNL     1     -12.498  14.824  70.475  1.00  0.00    -0.411 A  
HETATM   22  C   UNL     1     -13.445  15.483  71.272  1.00  0.00    -0.560 A  
HETATM   23  C   UNL     1     -14.236  14.775  72.180  1.00  0.00    -0.608 A  
HETATM   24  C   UNL     1     -14.092  13.391  72.342  1.00  0.00    -0.517 A  
HETATM   25  C   UNL     1     -13.133  12.760  71.543  1.00  0.00    -0.286 A  
HETATM   26  N   UNL     1     -12.716  11.456  71.442  1.00  0.00    -0.403 NA 
ENDBRANCH  15  17
ENDBRANCH  14  15
ENDBRANCH  10  14
ENDBRANCH   6   7
ENDBRANCH   5   6
ENDBRANCH   4   5
ENDBRANCH   3   4
ENDBRANCH   2   3
TORSDOF 8
ENDMDL
MODEL      199
REMARK 921   NORMALIZED FREE ENERGY PREDICTED BY IDOCK:   -3.94 KCAL/MOL
REMARK 922        TOTAL FREE ENERGY PREDICTED BY IDOCK:   -6.66 KCAL/MOL
REMARK 923 INTER-LIGAND FREE ENERGY PREDICTED BY IDOCK:   -6.75 KCAL/MOL
REMARK 924 INTRA-LIGAND FREE ENERGY PREDICTED BY IDOCK:    0.09 KCAL/MOL
REMARK 927      BINDING AFFINITY PREDICTED BY RF-SCORE:    0.00 PKD
ROOT
HETATM    1  C   UNL     1      -5.589   8.604  68.356  1.00  0.00    -0.038 C  
HETATM    2  O   UNL     1      -6.042   8.239  67.058  1.00  0.00    -0.052 OA 
ENDROOT
BRANCH   2   3
HETATM    3  C   UNL     1      -5.706   6.892  66.733  1.00  0.00    -0.018 C  
BRANCH   3   4
HETATM    4  C   UNL     1      -6.986   6.078  66.580  1.00  0.00    -0.067 C  
BRANCH   4   5
HETATM    5  C   UNL     1      -8.013   6.792  65.701  1.00  0.00    -0.116 C  
BRANCH   5   6
HETATM    6  O   UNL     1      -9.314   6.247  65.972  1.00  0.00    -0.135 OA 
BRANCH   6   7
HETATM    7  C   UNL     1      -9.797   6.492  67.236  1.00  0.00    -0.140 A  
HETATM    8  C   UNL     1     -10.018   7.835  67.601  1.00  0.00    -0.230 A  
HETATM    9  C   UNL     1      -9.628   8.946  66.667  1.00  0.00    -0.281 C  
HETATM   10  C   UNL     1     -10.649   8.082  68.833  1.00  0.00    -0.140 A  
HETATM   11  C   UNL     1     -10.058   5.474  68.150  1.00  0.00    -0.221 A  
HETATM   12  N   UNL     1     -10.952   7.074  69.701  1.00  0.00    -0.248 NA 
HETATM   13  C   UNL     1     -10.619   5.813  69.361  1.00  0.00    -0.313 A  
BRANCH  10  14
HETATM   14  C   UNL     1     -11.150   9.450  69.255  1.00  0.00    -0.045 C  
BRANCH  14  15
HETATM   15  S   UNL     1     -11.845   9.423  70.924  1.00  0.00    -0.284 S  
HETATM   16  O   UNL     1     -10.804   9.248  71.992  1.00  0.00    -0.309 OA 
BRANCH  15  17
HETATM   17  C   UNL     1     -12.404  11.060  71.063  1.00  0.00    -0.385 A  
HETATM   18  N   UNL     1     -13.239  11.519  71.970  1.00  0.00    -0.520 NA 
HETATM   19  C   UNL     1     -13.296  12.878  71.754  1.00  0.00    -0.359 A  
HETATM   20  H   UNL     1     -13.739  10.983  72.680  1.00  0.00     0.000 HD 
HETATM   21  C   UNL     1     -14.028  13.865  72.432  1.00  0.00    -0.633 A  
HETATM   22  C   UNL     1     -13.861  15.205  72.058  1.00  0.00    -0.608 A  
HETATM   23  C   UNL     1     -12.983  15.558  71.029  1.00  0.00    -0.550 A  
HETATM   24  C   UNL     1     -12.264  14.585  70.323  1.00  0.00    -0.391 A  
HETATM   25  C   UNL     1     -12.458  13.255  70.709  1.00  0.00    -0.324 A  
HETATM   26  N   UNL     1     -11.949  12.068  70.248  1.00  0.00    -0.345 NA 
ENDBRANCH  15  17
ENDBRANCH  14  15
ENDBRANCH  10  14
ENDBRANCH   6   7
ENDBRANCH   5   6
ENDBRANCH   4   5
ENDBRANCH   3   4
ENDBRANCH   2   3
TORSDOF 8
ENDMDL
MODEL      200
REMARK 921   NORMALIZED FREE ENERGY PREDICTED BY IDOCK:   -3.93 KCAL/MOL
REMARK 922        TOTAL FREE ENERGY PREDICTED BY IDOCK:   -6.64 KCAL/MOL
REMARK 923 INTER-LIGAND FREE ENERGY PREDICTED BY IDOCK:   -5.79 KCAL/MOL
REMARK 924 INTRA-LIGAND FREE ENERGY PREDICTED BY IDOCK:   -0.85 KCAL/MOL
REMARK 927      BINDING AFFINITY PREDICTED BY RF-SCORE:    0.00 PKD
ROOT
HETATM    1  C   UNL     1      -9.615  10.367  64.433  1.00  0.00    -0.316 C  
HETATM    2  O   UNL     1      -8.711   9.640  65.256  1.00  0.00    -0.141 OA 
ENDROOT
BRANCH   2   3
HETATM    3  C   UNL     1      -7.943   8.700  64.508  1.00  0.00    -0.144 C  
BRANCH   3   4
HETATM    4  C   UNL     1      -7.916   7.369  65.250  1.00  0.00    -0.127 C  
BRANCH   4   5
HETATM    5  C   UNL     1      -8.046   7.558  66.761  1.00  0.00    -0.123 C  
BRANCH   5   6
HETATM    6  O   UNL     1      -8.074   6.266  67.390  1.00  0.00    -0.108 OA 
BRANCH   6   7
HETATM    7  C   UNL     1      -9.106   6.074  68.279  1.00  0.00    -0.111 A  
HETATM    8  C   UNL     1      -8.804   5.442  69.501  1.00  0.00    -0.118 A  
HETATM    9  C   UNL     1      -7.423   4.905  69.754  1.00  0.00    -0.056 C  
HETATM   10  C   UNL     1      -9.819   5.376  70.472  1.00  0.00    -0.203 A  
HETATM   11  C   UNL     1     -10.413   6.469  68.008  1.00  0.00    -0.265 A  
HETATM   12  N   UNL     1     -11.085   5.815  70.219  1.00  0.00    -0.287 NA 
HETATM   13  C   UNL     1     -11.360   6.310  68.995  1.00  0.00    -0.242 A  
BRANCH  10  14
HETATM   14  C   UNL     1      -9.579   4.931  71.902  1.00  0.00    -0.154 C  
BRANCH  14  15
HETATM   15  S   UNL     1      -8.887   6.264  72.910  1.00  0.00    -0.123 S  
HETATM   16  O   UNL     1      -7.466   6.593  72.555  1.00  0.00    -0.088 OA 
BRANCH  15  17
HETATM   17  C   UNL     1      -9.840   7.607  72.359  1.00  0.00    -0.181 A  
HETATM   18  N   UNL     1      -9.535   8.420  71.370  1.00  0.00    -0.174 NA 
HETATM   19  C   UNL     1     -10.628   9.245  71.230  1.00  0.00    -0.347 A  
HETATM   20  H   UNL     1      -8.673   8.435  70.825  1.00  0.00     0.000 HD 
HETATM   21  C   UNL     1     -10.850  10.296  70.327  1.00  0.00    -0.349 A  
HETATM   22  C   UNL     1     -12.090  10.949  70.343  1.00  0.00    -0.453 A  
HETATM   23  C   UNL     1     -13.089  10.566  71.241  1.00  0.00    -0.478 A  
HETATM   24  C   UNL     1     -12.878   9.539  72.169  1.00  0.00    -0.471 A  
HETATM   25  C   UNL     1     -11.628   8.911  72.139  1.00  0.00    -0.330 A  
HETATM   26  N   UNL     1     -11.074   7.902  72.885  1.00  0.00    -0.402 NA 
ENDBRANCH  15  17
ENDBRANCH  14  15
ENDBRANCH  10  14
ENDBRANCH   6   7
ENDBRANCH   5   6
ENDBRANCH   4   5
ENDBRANCH   3   4
ENDBRANCH   2   3
TORSDOF 8
ENDMDL
MODEL      201
REMARK 921   NORMALIZED FREE ENERGY PREDICTED BY IDOCK:   -3.93 KCAL/MOL
REMARK 922        TOTAL FREE ENERGY PREDICTED BY IDOCK:   -6.64 KCAL/MOL
REMARK 923 INTER-LIGAND FREE ENERGY PREDICTED BY IDOCK:   -5.68 KCAL/MOL
REMARK 924 INTRA-LIGAND FREE ENERGY PREDICTED BY IDOCK:   -0.96 KCAL/MOL
REMARK 927      BINDING AFFINITY PREDICTED BY RF-SCORE:    0.00 PKD
ROOT
HETATM    1  C   UNL     1     -12.198   8.573  71.964  1.00  0.00    -0.366 C  
HETATM    2  O   UNL     1     -11.779   7.235  72.201  1.00  0.00    -0.276 OA 
ENDROOT
BRANCH   2   3
HETATM    3  C   UNL     1     -10.582   6.915  71.495  1.00  0.00    -0.217 C  
BRANCH   3   4
HETATM    4  C   UNL     1     -10.778   5.606  70.739  1.00  0.00    -0.320 C  
BRANCH   4   5
HETATM    5  C   UNL     1      -9.914   5.542  69.480  1.00  0.00    -0.210 C  
BRANCH   5   6
HETATM    6  O   UNL     1      -9.098   6.722  69.415  1.00  0.00    -0.143 OA 
BRANCH   6   7
HETATM    7  C   UNL     1      -8.794   7.152  68.144  1.00  0.00    -0.126 A  
HETATM    8  C   UNL     1      -8.781   8.541  67.911  1.00  0.00    -0.138 A  
HETATM    9  C   UNL     1      -9.196   9.494  68.997  1.00  0.00    -0.155 C  
HETATM   10  C   UNL     1      -8.328   8.989  66.658  1.00  0.00    -0.118 A  
HETATM   11  C   UNL     1      -8.515   6.272  67.102  1.00  0.00    -0.108 A  
HETATM   12  N   UNL     1      -8.003   8.121  65.658  1.00  0.00    -0.102 NA 
HETATM   13  C   UNL     1      -8.140   6.799  65.886  1.00  0.00    -0.123 A  
BRANCH  10  14
HETATM   14  C   UNL     1      -8.048  10.447  66.344  1.00  0.00    -0.129 C  
BRANCH  14  15
HETATM   15  S   UNL     1      -9.356  11.174  65.328  1.00  0.00    -0.201 S  
HETATM   16  O   UNL     1     -10.574  10.303  65.226  1.00  0.00    -0.147 OA 
BRANCH  15  17
HETATM   17  C   UNL     1      -9.815  12.524  66.319  1.00  0.00    -0.252 A  
HETATM   18  N   UNL     1      -9.597  13.793  66.048  1.00  0.00    -0.468 NA 
HETATM   19  C   UNL     1     -10.229  14.491  67.053  1.00  0.00    -0.262 A  
HETATM   20  H   UNL     1      -9.071  14.178  65.263  1.00  0.00     0.000 HD 
HETATM   21  C   UNL     1     -10.324  15.875  67.262  1.00  0.00    -0.293 A  
HETATM   22  C   UNL     1     -11.091  16.344  68.337  1.00  0.00    -0.351 A  
HETATM   23  C   UNL     1     -11.750  15.453  69.190  1.00  0.00    -0.364 A  
HETATM   24  C   UNL     1     -11.645  14.068  69.014  1.00  0.00    -0.345 A  
HETATM   25  C   UNL     1     -10.865  13.627  67.940  1.00  0.00    -0.250 A  
HETATM   26  N   UNL     1     -10.532  12.378  67.481  1.00  0.00    -0.213 NA 
ENDBRANCH  15  17
ENDBRANCH  14  15
ENDBRANCH  10  14
ENDBRANCH   6   7
ENDBRANCH   5   6
ENDBRANCH   4   5
ENDBRANCH   3   4
ENDBRANCH   2   3
TORSDOF 8
ENDMDL
MODEL      202
REMARK 921   NORMALIZED FREE ENERGY PREDICTED BY IDOCK:   -3.93 KCAL/MOL
REMARK 922        TOTAL FREE ENERGY PREDICTED BY IDOCK:   -6.64 KCAL/MOL
REMARK 923 INTER-LIGAND FREE ENERGY PREDICTED BY IDOCK:   -5.86 KCAL/MOL
REMARK 924 INTRA-LIGAND FREE ENERGY PREDICTED BY IDOCK:   -0.77 KCAL/MOL
REMARK 927      BINDING AFFINITY PREDICTED BY RF-SCORE:    0.00 PKD
ROOT
HETATM    1  C   UNL     1      -6.777  16.462  68.869  1.00  0.00    -0.174 C  
HETATM    2  O   UNL     1      -7.243  15.355  68.106  1.00  0.00    -0.108 OA 
ENDROOT
BRANCH   2   3
HETATM    3  C   UNL     1      -8.483  14.850  68.595  1.00  0.00    -0.166 C  
BRANCH   3   4
HETATM    4  C   UNL     1      -9.487  14.788  67.450  1.00  0.00    -0.207 C  
BRANCH   4   5
HETATM    5  C   UNL     1     -10.918  14.607  67.957  1.00  0.00    -0.267 C  
BRANCH   5   6
HETATM    6  O   UNL     1     -11.239  13.207  67.954  1.00  0.00    -0.246 OA 
BRANCH   6   7
HETATM    7  C   UNL     1     -11.749  12.724  69.137  1.00  0.00    -0.322 A  
HETATM    8  C   UNL     1     -11.823  11.326  69.291  1.00  0.00    -0.423 A  
HETATM    9  C   UNL     1     -11.460  10.418  68.149  1.00  0.00    -0.194 C  
HETATM   10  C   UNL     1     -12.203  10.826  70.550  1.00  0.00    -0.366 A  
HETATM   11  C   UNL     1     -12.192  13.558  70.159  1.00  0.00    -0.400 A  
HETATM   12  N   UNL     1     -12.583  11.652  71.566  1.00  0.00    -0.286 NA 
HETATM   13  C   UNL     1     -12.607  12.980  71.338  1.00  0.00    -0.232 A  
BRANCH  10  14
HETATM   14  C   UNL     1     -12.111   9.360  70.927  1.00  0.00    -0.255 C  
BRANCH  14  15
HETATM   15  S   UNL     1     -10.449   8.915  71.484  1.00  0.00    -0.347 S  
HETATM   16  O   UNL     1     -10.416   8.421  72.901  1.00  0.00    -0.262 OA 
BRANCH  15  17
HETATM   17  C   UNL     1     -10.140   7.528  70.486  1.00  0.00    -0.188 A  
HETATM   18  N   UNL     1      -9.665   7.547  69.259  1.00  0.00    -0.162 NA 
HETATM   19  C   UNL     1      -9.485   6.224  68.922  1.00  0.00    -0.127 A  
HETATM   20  H   UNL     1      -9.473   8.366  68.682  1.00  0.00     0.000 HD 
HETATM   21  C   UNL     1      -9.000   5.660  67.732  1.00  0.00    -0.107 A  
HETATM   22  C   UNL     1      -8.848   4.268  67.659  1.00  0.00    -0.124 A  
HETATM   23  C   UNL     1      -9.173   3.454  68.747  1.00  0.00    -0.229 A  
HETATM   24  C   UNL     1      -9.684   3.996  69.932  1.00  0.00    -0.263 A  
HETATM   25  C   UNL     1      -9.837   5.385  69.975  1.00  0.00    -0.207 A  
HETATM   26  N   UNL     1     -10.308   6.242  70.937  1.00  0.00    -0.199 NA 
ENDBRANCH  15  17
ENDBRANCH  14  15
ENDBRANCH  10  14
ENDBRANCH   6   7
ENDBRANCH   5   6
ENDBRANCH   4   5
ENDBRANCH   3   4
ENDBRANCH   2   3
TORSDOF 8
ENDMDL
MODEL      203
REMARK 921   NORMALIZED FREE ENERGY PREDICTED BY IDOCK:   -3.92 KCAL/MOL
REMARK 922        TOTAL FREE ENERGY PREDICTED BY IDOCK:   -6.62 KCAL/MOL
REMARK 923 INTER-LIGAND FREE ENERGY PREDICTED BY IDOCK:   -7.19 KCAL/MOL
REMARK 924 INTRA-LIGAND FREE ENERGY PREDICTED BY IDOCK:    0.56 KCAL/MOL
REMARK 927      BINDING AFFINITY PREDICTED BY RF-SCORE:    0.00 PKD
ROOT
HETATM    1  C   UNL     1      -5.582   8.744  66.628  1.00  0.00    -0.040 C  
HETATM    2  O   UNL     1      -6.520   7.767  66.193  1.00  0.00    -0.045 OA 
ENDROOT
BRANCH   2   3
HETATM    3  C   UNL     1      -7.125   8.120  64.950  1.00  0.00    -0.079 C  
BRANCH   3   4
HETATM    4  C   UNL     1      -7.029   9.629  64.755  1.00  0.00    -0.111 C  
BRANCH   4   5
HETATM    5  C   UNL     1      -8.328  10.214  64.201  1.00  0.00    -0.168 C  
BRANCH   5   6
HETATM    6  O   UNL     1      -9.437   9.629  64.902  1.00  0.00    -0.267 OA 
BRANCH   6   7
HETATM    7  C   UNL     1     -10.179  10.509  65.656  1.00  0.00    -0.246 A  
HETATM    8  C   UNL     1     -10.876  11.525  64.975  1.00  0.00    -0.336 A  
HETATM    9  C   UNL     1     -10.711  11.690  63.490  1.00  0.00    -0.495 C  
HETATM   10  C   UNL     1     -11.751  12.333  65.723  1.00  0.00    -0.385 A  
HETATM   11  C   UNL     1     -10.250  10.432  67.045  1.00  0.00    -0.277 A  
HETATM   12  N   UNL     1     -11.857  12.216  67.077  1.00  0.00    -0.594 NA 
HETATM   13  C   UNL     1     -11.085  11.306  67.704  1.00  0.00    -0.277 A  
BRANCH  10  14
HETATM   14  C   UNL     1     -12.727  13.310  65.095  1.00  0.00    -0.402 C  
BRANCH  14  15
HETATM   15  S   UNL     1     -11.871  14.639  64.217  1.00  0.00    -0.267 S  
HETATM   16  O   UNL     1     -12.775  15.782  63.856  1.00  0.00    -0.672 OA 
BRANCH  15  17
HETATM   17  C   UNL     1     -10.830  15.231  65.473  1.00  0.00    -0.372 A  
HETATM   18  N   UNL     1     -10.773  14.781  66.708  1.00  0.00    -0.302 NA 
HETATM   19  C   UNL     1      -9.736  15.471  67.296  1.00  0.00    -0.218 A  
HETATM   20  H   UNL     1     -11.369  14.074  67.138  1.00  0.00     0.000 HD 
HETATM   21  C   UNL     1      -9.231  15.389  68.603  1.00  0.00    -0.199 A  
HETATM   22  C   UNL     1      -8.111  16.160  68.943  1.00  0.00    -0.228 A  
HETATM   23  C   UNL     1      -7.505  16.997  68.002  1.00  0.00    -0.185 A  
HETATM   24  C   UNL     1      -8.011  17.113  66.702  1.00  0.00    -0.300 A  
HETATM   25  C   UNL     1      -9.136  16.342  66.392  1.00  0.00    -0.301 A  
HETATM   26  N   UNL     1      -9.893  16.212  65.255  1.00  0.00    -0.420 NA 
ENDBRANCH  15  17
ENDBRANCH  14  15
ENDBRANCH  10  14
ENDBRANCH   6   7
ENDBRANCH   5   6
ENDBRANCH   4   5
ENDBRANCH   3   4
ENDBRANCH   2   3
TORSDOF 8
ENDMDL
MODEL      204
REMARK 921   NORMALIZED FREE ENERGY PREDICTED BY IDOCK:   -3.91 KCAL/MOL
REMARK 922        TOTAL FREE ENERGY PREDICTED BY IDOCK:   -6.61 KCAL/MOL
REMARK 923 INTER-LIGAND FREE ENERGY PREDICTED BY IDOCK:   -5.75 KCAL/MOL
REMARK 924 INTRA-LIGAND FREE ENERGY PREDICTED BY IDOCK:   -0.86 KCAL/MOL
REMARK 927      BINDING AFFINITY PREDICTED BY RF-SCORE:    0.00 PKD
ROOT
HETATM    1  C   UNL     1      -6.566   6.326  68.378  1.00  0.00    -0.058 C  
HETATM    2  O   UNL     1      -7.702   5.508  68.633  1.00  0.00    -0.085 OA 
ENDROOT
BRANCH   2   3
HETATM    3  C   UNL     1      -8.324   5.063  67.429  1.00  0.00    -0.106 C  
BRANCH   3   4
HETATM    4  C   UNL     1      -9.779   4.712  67.715  1.00  0.00    -0.205 C  
BRANCH   4   5
HETATM    5  C   UNL     1     -10.476   5.798  68.534  1.00  0.00    -0.225 C  
BRANCH   5   6
HETATM    6  O   UNL     1     -10.582   6.986  67.735  1.00  0.00    -0.201 OA 
BRANCH   6   7
HETATM    7  C   UNL     1     -10.359   8.164  68.409  1.00  0.00    -0.199 A  
HETATM    8  C   UNL     1      -9.757   9.220  67.697  1.00  0.00    -0.195 A  
HETATM    9  C   UNL     1      -9.283   9.006  66.286  1.00  0.00    -0.258 C  
HETATM   10  C   UNL     1      -9.662  10.469  68.335  1.00  0.00    -0.159 A  
HETATM   11  C   UNL     1     -10.694   8.336  69.750  1.00  0.00    -0.221 A  
HETATM   12  N   UNL     1     -10.043  10.644  69.633  1.00  0.00    -0.145 NA 
HETATM   13  C   UNL     1     -10.508   9.578  70.314  1.00  0.00    -0.268 A  
BRANCH  10  14
HETATM   14  C   UNL     1      -9.247  11.741  67.621  1.00  0.00    -0.180 C  
BRANCH  14  15
HETATM   15  S   UNL     1     -10.659  12.563  66.846  1.00  0.00    -0.239 S  
HETATM   16  O   UNL     1     -11.953  12.313  67.565  1.00  0.00    -0.513 OA 
BRANCH  15  17
HETATM   17  C   UNL     1     -10.261  14.227  67.142  1.00  0.00    -0.254 A  
HETATM   18  N   UNL     1     -11.090  15.246  67.071  1.00  0.00    -0.325 NA 
HETATM   19  C   UNL     1     -10.361  16.335  67.494  1.00  0.00    -0.288 A  
HETATM   20  H   UNL     1     -12.064  15.233  66.767  1.00  0.00     0.000 HD 
HETATM   21  C   UNL     1     -10.746  17.678  67.621  1.00  0.00    -0.318 A  
HETATM   22  C   UNL     1      -9.826  18.597  68.144  1.00  0.00    -0.391 A  
HETATM   23  C   UNL     1      -8.547  18.189  68.531  1.00  0.00    -0.307 A  
HETATM   24  C   UNL     1      -8.135  16.858  68.385  1.00  0.00    -0.237 A  
HETATM   25  C   UNL     1      -9.068  15.964  67.851  1.00  0.00    -0.190 A  
HETATM   26  N   UNL     1      -9.015  14.625  67.559  1.00  0.00    -0.182 NA 
ENDBRANCH  15  17
ENDBRANCH  14  15
ENDBRANCH  10  14
ENDBRANCH   6   7
ENDBRANCH   5   6
ENDBRANCH   4   5
ENDBRANCH   3   4
ENDBRANCH   2   3
TORSDOF 8
ENDMDL
MODEL      205
REMARK 921   NORMALIZED FREE ENERGY PREDICTED BY IDOCK:   -3.90 KCAL/MOL
REMARK 922        TOTAL FREE ENERGY PREDICTED BY IDOCK:   -6.60 KCAL/MOL
REMARK 923 INTER-LIGAND FREE ENERGY PREDICTED BY IDOCK:   -5.73 KCAL/MOL
REMARK 924 INTRA-LIGAND FREE ENERGY PREDICTED BY IDOCK:   -0.87 KCAL/MOL
REMARK 927      BINDING AFFINITY PREDICTED BY RF-SCORE:    0.00 PKD
ROOT
HETATM    1  C   UNL     1     -12.454  16.150  73.567  1.00  0.00    -0.564 C  
HETATM    2  O   UNL     1     -12.184  15.073  72.679  1.00  0.00    -0.342 OA 
ENDROOT
BRANCH   2   3
HETATM    3  C   UNL     1     -13.093  15.042  71.580  1.00  0.00    -0.364 C  
BRANCH   3   4
HETATM    4  C   UNL     1     -12.417  15.636  70.350  1.00  0.00    -0.409 C  
BRANCH   4   5
HETATM    5  C   UNL     1     -11.056  14.993  70.083  1.00  0.00    -0.242 C  
BRANCH   5   6
HETATM    6  O   UNL     1     -10.903  14.801  68.668  1.00  0.00    -0.238 OA 
BRANCH   6   7
HETATM    7  C   UNL     1     -10.769  13.491  68.269  1.00  0.00    -0.258 A  
HETATM    8  C   UNL     1      -9.563  13.121  67.643  1.00  0.00    -0.210 A  
HETATM    9  C   UNL     1      -8.522  14.160  67.331  1.00  0.00    -0.214 C  
HETATM   10  C   UNL     1      -9.361  11.757  67.368  1.00  0.00    -0.174 A  
HETATM   11  C   UNL     1     -11.772  12.544  68.454  1.00  0.00    -0.375 A  
HETATM   12  N   UNL     1     -10.328  10.825  67.602  1.00  0.00    -0.191 NA 
HETATM   13  C   UNL     1     -11.512  11.240  68.097  1.00  0.00    -0.306 A  
BRANCH  10  14
HETATM   14  C   UNL     1      -8.033  11.186  66.906  1.00  0.00    -0.151 C  
BRANCH  14  15
HETATM   15  S   UNL     1      -6.936  10.834  68.301  1.00  0.00    -0.071 S  
HETATM   16  O   UNL     1      -6.801  11.990  69.248  1.00  0.00    -0.106 OA 
BRANCH  15  17
HETATM   17  C   UNL     1      -7.865   9.633  69.141  1.00  0.00    -0.090 A  
HETATM   18  N   UNL     1      -8.475   8.603  68.594  1.00  0.00    -0.129 NA 
HETATM   19  C   UNL     1      -8.978   7.878  69.651  1.00  0.00    -0.146 A  
HETATM   20  H   UNL     1      -8.558   8.388  67.600  1.00  0.00     0.000 HD 
HETATM   21  C   UNL     1      -9.714   6.683  69.651  1.00  0.00    -0.162 A  
HETATM   22  C   UNL     1     -10.057   6.102  70.879  1.00  0.00    -0.237 A  
HETATM   23  C   UNL     1      -9.678   6.698  72.085  1.00  0.00    -0.159 A  
HETATM   24  C   UNL     1      -8.967   7.904  72.106  1.00  0.00    -0.199 A  
HETATM   25  C   UNL     1      -8.646   8.468  70.867  1.00  0.00    -0.158 A  
HETATM   26  N   UNL     1      -7.989   9.618  70.509  1.00  0.00    -0.239 NA 
ENDBRANCH  15  17
ENDBRANCH  14  15
ENDBRANCH  10  14
ENDBRANCH   6   7
ENDBRANCH   5   6
ENDBRANCH   4   5
ENDBRANCH   3   4
ENDBRANCH   2   3
TORSDOF 8
ENDMDL
MODEL      206
REMARK 921   NORMALIZED FREE ENERGY PREDICTED BY IDOCK:   -3.89 KCAL/MOL
REMARK 922        TOTAL FREE ENERGY PREDICTED BY IDOCK:   -6.58 KCAL/MOL
REMARK 923 INTER-LIGAND FREE ENERGY PREDICTED BY IDOCK:   -5.93 KCAL/MOL
REMARK 924 INTRA-LIGAND FREE ENERGY PREDICTED BY IDOCK:   -0.65 KCAL/MOL
REMARK 927      BINDING AFFINITY PREDICTED BY RF-SCORE:    0.00 PKD
ROOT
HETATM    1  C   UNL     1      -9.871  17.054  67.049  1.00  0.00    -0.270 C  
HETATM    2  O   UNL     1     -10.255  16.723  65.720  1.00  0.00    -0.461 OA 
ENDROOT
BRANCH   2   3
HETATM    3  C   UNL     1     -10.983  15.498  65.661  1.00  0.00    -0.303 C  
BRANCH   3   4
HETATM    4  C   UNL     1     -10.020  14.332  65.850  1.00  0.00    -0.340 C  
BRANCH   4   5
HETATM    5  C   UNL     1     -10.691  13.145  66.541  1.00  0.00    -0.279 C  
BRANCH   5   6
HETATM    6  O   UNL     1     -10.339  13.159  67.934  1.00  0.00    -0.221 OA 
BRANCH   6   7
HETATM    7  C   UNL     1      -9.925  11.950  68.442  1.00  0.00    -0.203 A  
HETATM    8  C   UNL     1     -10.864  11.189  69.164  1.00  0.00    -0.284 A  
HETATM    9  C   UNL     1     -12.229  11.748  69.452  1.00  0.00    -0.219 C  
HETATM   10  C   UNL     1     -10.492   9.891  69.556  1.00  0.00    -0.241 A  
HETATM   11  C   UNL     1      -8.628  11.471  68.274  1.00  0.00    -0.161 A  
HETATM   12  N   UNL     1      -9.235   9.407  69.341  1.00  0.00    -0.157 NA 
HETATM   13  C   UNL     1      -8.331  10.212  68.747  1.00  0.00    -0.122 A  
BRANCH  10  14
HETATM   14  C   UNL     1     -11.465   8.883  70.137  1.00  0.00    -0.036 C  
BRANCH  14  15
HETATM   15  S   UNL     1     -11.668   9.101  71.921  1.00  0.00    -0.332 S  
HETATM   16  O   UNL     1     -13.091   8.947  72.374  1.00  0.00    -0.407 OA 
BRANCH  15  17
HETATM   17  C   UNL     1     -10.825   7.703  72.510  1.00  0.00    -0.314 A  
HETATM   18  N   UNL     1     -11.325   6.768  73.289  1.00  0.00    -0.487 NA 
HETATM   19  C   UNL     1     -10.334   5.818  73.396  1.00  0.00    -0.225 A  
HETATM   20  H   UNL     1     -12.250   6.750  73.721  1.00  0.00     0.000 HD 
HETATM   21  C   UNL     1     -10.325   4.606  74.103  1.00  0.00    -0.300 A  
HETATM   22  C   UNL     1      -9.203   3.772  73.998  1.00  0.00    -0.098 A  
HETATM   23  C   UNL     1      -8.110   4.138  73.208  1.00  0.00    -0.090 A  
HETATM   24  C   UNL     1      -8.089   5.356  72.518  1.00  0.00    -0.103 A  
HETATM   25  C   UNL     1      -9.216   6.174  72.648  1.00  0.00    -0.140 A  
HETATM   26  N   UNL     1      -9.535   7.409  72.143  1.00  0.00    -0.138 NA 
ENDBRANCH  15  17
ENDBRANCH  14  15
ENDBRANCH  10  14
ENDBRANCH   6   7
ENDBRANCH   5   6
ENDBRANCH   4   5
ENDBRANCH   3   4
ENDBRANCH   2   3
TORSDOF 8
ENDMDL
MODEL      207
REMARK 921   NORMALIZED FREE ENERGY PREDICTED BY IDOCK:   -3.87 KCAL/MOL
REMARK 922        TOTAL FREE ENERGY PREDICTED BY IDOCK:   -6.56 KCAL/MOL
REMARK 923 INTER-LIGAND FREE ENERGY PREDICTED BY IDOCK:   -5.61 KCAL/MOL
REMARK 924 INTRA-LIGAND FREE ENERGY PREDICTED BY IDOCK:   -0.95 KCAL/MOL
REMARK 927      BINDING AFFINITY PREDICTED BY RF-SCORE:    0.00 PKD
ROOT
HETATM    1  C   UNL     1     -11.035  12.673  67.264  1.00  0.00    -0.256 C  
HETATM    2  O   UNL     1     -11.870  11.523  67.258  1.00  0.00    -0.609 OA 
ENDROOT
BRANCH   2   3
HETATM    3  C   UNL     1     -11.406  10.518  68.157  1.00  0.00    -0.254 C  
BRANCH   3   4
HETATM    4  C   UNL     1     -11.756  10.919  69.585  1.00  0.00    -0.403 C  
BRANCH   4   5
HETATM    5  C   UNL     1     -11.143   9.967  70.610  1.00  0.00    -0.340 C  
BRANCH   5   6
HETATM    6  O   UNL     1     -11.974   8.799  70.715  1.00  0.00    -0.246 OA 
BRANCH   6   7
HETATM    7  C   UNL     1     -11.446   7.775  71.467  1.00  0.00    -0.264 A  
HETATM    8  C   UNL     1     -11.109   6.582  70.798  1.00  0.00    -0.354 A  
HETATM    9  C   UNL     1     -11.427   6.418  69.338  1.00  0.00    -0.374 C  
HETATM   10  C   UNL     1     -10.434   5.589  71.531  1.00  0.00    -0.235 A  
HETATM   11  C   UNL     1     -11.250   7.877  72.841  1.00  0.00    -0.429 A  
HETATM   12  N   UNL     1     -10.196   5.720  72.867  1.00  0.00    -0.184 NA 
HETATM   13  C   UNL     1     -10.638   6.829  73.492  1.00  0.00    -0.332 A  
BRANCH  10  14
HETATM   14  C   UNL     1      -9.815   4.359  70.895  1.00  0.00    -0.196 C  
BRANCH  14  15
HETATM   15  S   UNL     1      -8.085   4.638  70.446  1.00  0.00    -0.072 S  
HETATM   16  O   UNL     1      -7.228   3.419  70.622  1.00  0.00    -0.037 OA 
BRANCH  15  17
HETATM   17  C   UNL     1      -8.235   4.873  68.733  1.00  0.00    -0.083 A  
HETATM   18  N   UNL     1      -7.565   5.743  68.008  1.00  0.00    -0.084 NA 
HETATM   19  C   UNL     1      -7.932   5.489  66.706  1.00  0.00    -0.101 A  
HETATM   20  H   UNL     1      -6.912   6.454  68.340  1.00  0.00     0.000 HD 
HETATM   21  C   UNL     1      -7.521   6.114  65.519  1.00  0.00    -0.082 A  
HETATM   22  C   UNL     1      -7.998   5.621  64.297  1.00  0.00    -0.125 A  
HETATM   23  C   UNL     1      -8.867   4.527  64.255  1.00  0.00    -0.152 A  
HETATM   24  C   UNL     1      -9.310   3.907  65.430  1.00  0.00    -0.159 A  
HETATM   25  C   UNL     1      -8.828   4.426  66.636  1.00  0.00    -0.114 A  
HETATM   26  N   UNL     1      -9.050   4.093  67.949  1.00  0.00    -0.126 NA 
ENDBRANCH  15  17
ENDBRANCH  14  15
ENDBRANCH  10  14
ENDBRANCH   6   7
ENDBRANCH   5   6
ENDBRANCH   4   5
ENDBRANCH   3   4
ENDBRANCH   2   3
TORSDOF 8
ENDMDL
MODEL      208
REMARK 921   NORMALIZED FREE ENERGY PREDICTED BY IDOCK:   -3.87 KCAL/MOL
REMARK 922        TOTAL FREE ENERGY PREDICTED BY IDOCK:   -6.55 KCAL/MOL
REMARK 923 INTER-LIGAND FREE ENERGY PREDICTED BY IDOCK:   -6.46 KCAL/MOL
REMARK 924 INTRA-LIGAND FREE ENERGY PREDICTED BY IDOCK:   -0.09 KCAL/MOL
REMARK 927      BINDING AFFINITY PREDICTED BY RF-SCORE:    0.00 PKD
ROOT
HETATM    1  C   UNL     1     -11.356   8.849  69.905  1.00  0.00     0.017 C  
HETATM    2  O   UNL     1     -10.244   8.760  69.024  1.00  0.00    -0.197 OA 
ENDROOT
BRANCH   2   3
HETATM    3  C   UNL     1     -10.144   7.474  68.414  1.00  0.00    -0.180 C  
BRANCH   3   4
HETATM    4  C   UNL     1     -10.078   7.640  66.900  1.00  0.00    -0.348 C  
BRANCH   4   5
HETATM    5  C   UNL     1      -8.792   8.337  66.459  1.00  0.00    -0.150 C  
BRANCH   5   6
HETATM    6  O   UNL     1      -9.076   9.154  65.313  1.00  0.00    -0.209 OA 
BRANCH   6   7
HETATM    7  C   UNL     1      -9.194  10.500  65.572  1.00  0.00    -0.188 A  
HETATM    8  C   UNL     1      -9.969  11.270  64.683  1.00  0.00    -0.331 A  
HETATM    9  C   UNL     1     -10.542  10.643  63.442  1.00  0.00     0.223 C  
HETATM   10  C   UNL     1     -10.215  12.612  65.023  1.00  0.00    -0.273 A  
HETATM   11  C   UNL     1      -8.576  11.112  66.659  1.00  0.00    -0.165 A  
HETATM   12  N   UNL     1      -9.650  13.190  66.121  1.00  0.00    -0.240 NA 
HETATM   13  C   UNL     1      -8.822  12.448  66.883  1.00  0.00    -0.205 A  
BRANCH  10  14
HETATM   14  C   UNL     1     -11.207  13.491  64.286  1.00  0.00    -0.360 C  
BRANCH  14  15
HETATM   15  S   UNL     1     -10.968  15.241  64.676  1.00  0.00    -0.211 S  
HETATM   16  O   UNL     1     -11.978  16.134  64.016  1.00  0.00    -0.897 OA 
BRANCH  15  17
HETATM   17  C   UNL     1     -11.359  15.246  66.368  1.00  0.00    -0.161 A  
HETATM   18  N   UNL     1     -12.051  14.326  67.005  1.00  0.00    -0.521 NA 
HETATM   19  C   UNL     1     -12.006  14.695  68.331  1.00  0.00    -0.254 A  
HETATM   20  H   UNL     1     -12.520  13.514  66.603  1.00  0.00     0.000 HD 
HETATM   21  C   UNL     1     -12.572  14.073  69.455  1.00  0.00     0.007 A  
HETATM   22  C   UNL     1     -12.324  14.617  70.723  1.00  0.00    -0.398 A  
HETATM   23  C   UNL     1     -11.530  15.758  70.870  1.00  0.00    -0.438 A  
HETATM   24  C   UNL     1     -10.979  16.407  69.759  1.00  0.00    -0.341 A  
HETATM   25  C   UNL     1     -11.251  15.851  68.505  1.00  0.00    -0.362 A  
HETATM   26  N   UNL     1     -10.902  16.213  67.229  1.00  0.00    -0.281 NA 
ENDBRANCH  15  17
ENDBRANCH  14  15
ENDBRANCH  10  14
ENDBRANCH   6   7
ENDBRANCH   5   6
ENDBRANCH   4   5
ENDBRANCH   3   4
ENDBRANCH   2   3
TORSDOF 8
ENDMDL
MODEL      209
REMARK 921   NORMALIZED FREE ENERGY PREDICTED BY IDOCK:   -3.86 KCAL/MOL
REMARK 922        TOTAL FREE ENERGY PREDICTED BY IDOCK:   -6.54 KCAL/MOL
REMARK 923 INTER-LIGAND FREE ENERGY PREDICTED BY IDOCK:   -5.83 KCAL/MOL
REMARK 924 INTRA-LIGAND FREE ENERGY PREDICTED BY IDOCK:   -0.71 KCAL/MOL
REMARK 927      BINDING AFFINITY PREDICTED BY RF-SCORE:    0.00 PKD
ROOT
HETATM    1  C   UNL     1     -10.213   2.557  74.328  1.00  0.00    -0.132 C  
HETATM    2  O   UNL     1     -10.456   3.949  74.494  1.00  0.00    -0.206 OA 
ENDROOT
BRANCH   2   3
HETATM    3  C   UNL     1     -11.380   4.451  73.531  1.00  0.00    -0.245 C  
BRANCH   3   4
HETATM    4  C   UNL     1     -10.880   5.791  73.005  1.00  0.00    -0.306 C  
BRANCH   4   5
HETATM    5  C   UNL     1     -10.710   5.779  71.486  1.00  0.00    -0.258 C  
BRANCH   5   6
HETATM    6  O   UNL     1      -9.643   6.672  71.131  1.00  0.00    -0.170 OA 
BRANCH   6   7
HETATM    7  C   UNL     1     -10.012   7.735  70.339  1.00  0.00    -0.188 A  
HETATM    8  C   UNL     1      -9.751   7.640  68.958  1.00  0.00    -0.160 A  
HETATM    9  C   UNL     1      -8.997   6.460  68.410  1.00  0.00    -0.120 C  
HETATM   10  C   UNL     1     -10.258   8.653  68.126  1.00  0.00    -0.205 A  
HETATM   11  C   UNL     1     -10.613   8.881  70.853  1.00  0.00    -0.295 A  
HETATM   12  N   UNL     1     -10.895   9.748  68.632  1.00  0.00    -0.213 NA 
HETATM   13  C   UNL     1     -11.021   9.855  69.970  1.00  0.00    -0.291 A  
BRANCH  10  14
HETATM   14  C   UNL     1     -10.251   8.571  66.611  1.00  0.00    -0.275 C  
BRANCH  14  15
HETATM   15  S   UNL     1      -8.949   9.600  65.892  1.00  0.00    -0.180 S  
HETATM   16  O   UNL     1      -8.868   9.486  64.397  1.00  0.00    -0.203 OA 
BRANCH  15  17
HETATM   17  C   UNL     1      -9.579  11.184  66.218  1.00  0.00    -0.206 A  
HETATM   18  N   UNL     1     -10.831  11.564  66.078  1.00  0.00    -0.286 NA 
HETATM   19  C   UNL     1     -10.873  12.854  66.557  1.00  0.00    -0.271 A  
HETATM   20  H   UNL     1     -11.604  11.019  65.695  1.00  0.00     0.000 HD 
HETATM   21  C   UNL     1     -11.957  13.741  66.651  1.00  0.00    -0.469 A  
HETATM   22  C   UNL     1     -11.753  14.994  67.246  1.00  0.00    -0.238 A  
HETATM   23  C   UNL     1     -10.496  15.358  67.737  1.00  0.00    -0.266 A  
HETATM   24  C   UNL     1      -9.397  14.497  67.628  1.00  0.00    -0.202 A  
HETATM   25  C   UNL     1      -9.625  13.258  67.020  1.00  0.00    -0.243 A  
HETATM   26  N   UNL     1      -8.806  12.195  66.735  1.00  0.00    -0.201 NA 
ENDBRANCH  15  17
ENDBRANCH  14  15
ENDBRANCH  10  14
ENDBRANCH   6   7
ENDBRANCH   5   6
ENDBRANCH   4   5
ENDBRANCH   3   4
ENDBRANCH   2   3
TORSDOF 8
ENDMDL
MODEL      210
REMARK 921   NORMALIZED FREE ENERGY PREDICTED BY IDOCK:   -3.85 KCAL/MOL
REMARK 922        TOTAL FREE ENERGY PREDICTED BY IDOCK:   -6.53 KCAL/MOL
REMARK 923 INTER-LIGAND FREE ENERGY PREDICTED BY IDOCK:   -6.08 KCAL/MOL
REMARK 924 INTRA-LIGAND FREE ENERGY PREDICTED BY IDOCK:   -0.45 KCAL/MOL
REMARK 927      BINDING AFFINITY PREDICTED BY RF-SCORE:    0.00 PKD
ROOT
HETATM    1  C   UNL     1     -12.167  12.342  63.731  1.00  0.00    -0.546 C  
HETATM    2  O   UNL     1     -13.063  12.679  64.782  1.00  0.00    -0.852 OA 
ENDROOT
BRANCH   2   3
HETATM    3  C   UNL     1     -12.774  13.957  65.346  1.00  0.00    -0.490 C  
BRANCH   3   4
HETATM    4  C   UNL     1     -11.291  14.260  65.168  1.00  0.00    -0.345 C  
BRANCH   4   5
HETATM    5  C   UNL     1     -10.514  14.088  66.473  1.00  0.00    -0.281 C  
BRANCH   5   6
HETATM    6  O   UNL     1      -9.181  13.650  66.166  1.00  0.00    -0.138 OA 
BRANCH   6   7
HETATM    7  C   UNL     1      -8.671  12.696  67.016  1.00  0.00    -0.198 A  
HETATM    8  C   UNL     1      -8.575  11.377  66.533  1.00  0.00    -0.175 A  
HETATM    9  C   UNL     1      -9.120  11.027  65.177  1.00  0.00    -0.199 C  
HETATM   10  C   UNL     1      -7.919  10.431  67.341  1.00  0.00    -0.107 A  
HETATM   11  C   UNL     1      -8.264  12.989  68.315  1.00  0.00    -0.150 A  
HETATM   12  N   UNL     1      -7.474  10.739  68.592  1.00  0.00    -0.094 NA 
HETATM   13  C   UNL     1      -7.689  11.985  69.061  1.00  0.00     0.096 A  
BRANCH  10  14
HETATM   14  C   UNL     1      -7.546   9.041  66.862  1.00  0.00    -0.094 C  
BRANCH  14  15
HETATM   15  S   UNL     1      -9.001   8.096  66.352  1.00  0.00    -0.181 S  
HETATM   16  O   UNL     1      -8.654   6.831  65.623  1.00  0.00    -0.152 OA 
BRANCH  15  17
HETATM   17  C   UNL     1      -9.619   7.604  67.897  1.00  0.00    -0.144 A  
HETATM   18  N   UNL     1     -10.880   7.635  68.273  1.00  0.00    -0.428 NA 
HETATM   19  C   UNL     1     -10.900   7.051  69.519  1.00  0.00    -0.238 A  
HETATM   20  H   UNL     1     -11.673   8.011  67.752  1.00  0.00     0.000 HD 
HETATM   21  C   UNL     1     -11.980   6.818  70.384  1.00  0.00    -0.343 A  
HETATM   22  C   UNL     1     -11.747   6.137  71.587  1.00  0.00    -0.290 A  
HETATM   23  C   UNL     1     -10.464   5.698  71.924  1.00  0.00    -0.279 A  
HETATM   24  C   UNL     1      -9.369   5.945  71.087  1.00  0.00    -0.170 A  
HETATM   25  C   UNL     1      -9.627   6.636  69.899  1.00  0.00    -0.155 A  
HETATM   26  N   UNL     1      -8.821   7.056  68.871  1.00  0.00    -0.131 NA 
ENDBRANCH  15  17
ENDBRANCH  14  15
ENDBRANCH  10  14
ENDBRANCH   6   7
ENDBRANCH   5   6
ENDBRANCH   4   5
ENDBRANCH   3   4
ENDBRANCH   2   3
TORSDOF 8
ENDMDL
MODEL      211
REMARK 921   NORMALIZED FREE ENERGY PREDICTED BY IDOCK:   -3.85 KCAL/MOL
REMARK 922        TOTAL FREE ENERGY PREDICTED BY IDOCK:   -6.53 KCAL/MOL
REMARK 923 INTER-LIGAND FREE ENERGY PREDICTED BY IDOCK:   -5.83 KCAL/MOL
REMARK 924 INTRA-LIGAND FREE ENERGY PREDICTED BY IDOCK:   -0.70 KCAL/MOL
REMARK 927      BINDING AFFINITY PREDICTED BY RF-SCORE:    0.00 PKD
ROOT
HETATM    1  C   UNL     1      -7.782   5.723  67.729  1.00  0.00    -0.097 C  
HETATM    2  O   UNL     1      -6.856   5.441  66.688  1.00  0.00    -0.060 OA 
ENDROOT
BRANCH   2   3
HETATM    3  C   UNL     1      -7.082   6.250  65.535  1.00  0.00    -0.068 C  
BRANCH   3   4
HETATM    4  C   UNL     1      -5.851   7.111  65.276  1.00  0.00    -0.037 C  
BRANCH   4   5
HETATM    5  C   UNL     1      -6.229   8.519  64.816  1.00  0.00    -0.064 C  
BRANCH   5   6
HETATM    6  O   UNL     1      -6.444   9.343  65.972  1.00  0.00    -0.067 OA 
BRANCH   6   7
HETATM    7  C   UNL     1      -7.579  10.120  65.930  1.00  0.00    -0.128 A  
HETATM    8  C   UNL     1      -8.195  10.442  67.155  1.00  0.00    -0.122 A  
HETATM    9  C   UNL     1      -7.680   9.852  68.438  1.00  0.00    -0.084 C  
HETATM   10  C   UNL     1      -9.264  11.355  67.129  1.00  0.00    -0.166 A  
HETATM   11  C   UNL     1      -8.128  10.581  64.736  1.00  0.00    -0.078 A  
HETATM   12  N   UNL     1      -9.763  11.845  65.959  1.00  0.00    -0.234 NA 
HETATM   13  C   UNL     1      -9.216  11.422  64.801  1.00  0.00    -0.031 A  
BRANCH  10  14
HETATM   14  C   UNL     1      -9.874  11.961  68.379  1.00  0.00    -0.201 C  
BRANCH  14  15
HETATM   15  S   UNL     1     -11.648  12.253  68.183  1.00  0.00    -0.353 S  
HETATM   16  O   UNL     1     -12.471  11.011  68.363  1.00  0.00    -0.352 OA 
BRANCH  15  17
HETATM   17  C   UNL     1     -11.963  13.241  69.575  1.00  0.00    -0.307 A  
HETATM   18  N   UNL     1     -12.541  12.847  70.690  1.00  0.00    -0.231 NA 
HETATM   19  C   UNL     1     -12.472  13.932  71.535  1.00  0.00    -0.297 A  
HETATM   20  H   UNL     1     -12.953  11.934  70.885  1.00  0.00     0.000 HD 
HETATM   21  C   UNL     1     -12.930  14.072  72.854  1.00  0.00    -0.437 A  
HETATM   22  C   UNL     1     -12.676  15.273  73.532  1.00  0.00    -0.690 A  
HETATM   23  C   UNL     1     -11.983  16.314  72.910  1.00  0.00    -0.615 A  
HETATM   24  C   UNL     1     -11.542  16.203  71.585  1.00  0.00    -0.503 A  
HETATM   25  C   UNL     1     -11.817  15.000  70.929  1.00  0.00    -0.324 A  
HETATM   26  N   UNL     1     -11.558  14.551  69.658  1.00  0.00    -0.283 NA 
ENDBRANCH  15  17
ENDBRANCH  14  15
ENDBRANCH  10  14
ENDBRANCH   6   7
ENDBRANCH   5   6
ENDBRANCH   4   5
ENDBRANCH   3   4
ENDBRANCH   2   3
TORSDOF 8
ENDMDL
MODEL      212
REMARK 921   NORMALIZED FREE ENERGY PREDICTED BY IDOCK:   -3.84 KCAL/MOL
REMARK 922        TOTAL FREE ENERGY PREDICTED BY IDOCK:   -6.51 KCAL/MOL
REMARK 923 INTER-LIGAND FREE ENERGY PREDICTED BY IDOCK:   -5.59 KCAL/MOL
REMARK 924 INTRA-LIGAND FREE ENERGY PREDICTED BY IDOCK:   -0.91 KCAL/MOL
REMARK 927      BINDING AFFINITY PREDICTED BY RF-SCORE:    0.00 PKD
ROOT
HETATM    1  C   UNL     1      -9.631  11.659  66.073  1.00  0.00    -0.228 C  
HETATM    2  O   UNL     1      -9.361  10.837  67.203  1.00  0.00    -0.154 OA 
ENDROOT
BRANCH   2   3
HETATM    3  C   UNL     1      -7.965  10.606  67.378  1.00  0.00    -0.111 C  
BRANCH   3   4
HETATM    4  C   UNL     1      -7.456   9.718  66.248  1.00  0.00    -0.100 C  
BRANCH   4   5
HETATM    5  C   UNL     1      -6.888   8.400  66.773  1.00  0.00    -0.069 C  
BRANCH   5   6
HETATM    6  O   UNL     1      -7.561   7.311  66.121  1.00  0.00    -0.084 OA 
BRANCH   6   7
HETATM    7  C   UNL     1      -8.690   6.857  66.761  1.00  0.00    -0.122 A  
HETATM    8  C   UNL     1      -8.545   5.777  67.653  1.00  0.00    -0.101 A  
HETATM    9  C   UNL     1      -7.216   5.090  67.798  1.00  0.00    -0.070 C  
HETATM   10  C   UNL     1      -9.664   5.406  68.419  1.00  0.00    -0.136 A  
HETATM   11  C   UNL     1      -9.948   7.416  66.551  1.00  0.00    -0.194 A  
HETATM   12  N   UNL     1     -10.881   5.996  68.246  1.00  0.00    -0.290 NA 
HETATM   13  C   UNL     1     -11.004   6.948  67.301  1.00  0.00    -0.336 A  
BRANCH  10  14
HETATM   14  C   UNL     1      -9.598   4.419  69.570  1.00  0.00    -0.201 C  
BRANCH  14  15
HETATM   15  S   UNL     1      -9.214   5.242  71.134  1.00  0.00    -0.148 S  
HETATM   16  O   UNL     1      -7.949   6.048  71.079  1.00  0.00    -0.111 OA 
BRANCH  15  17
HETATM   17  C   UNL     1     -10.511   6.392  71.216  1.00  0.00    -0.216 A  
HETATM   18  N   UNL     1     -11.793   6.109  71.304  1.00  0.00    -0.178 NA 
HETATM   19  C   UNL     1     -12.422   7.325  71.454  1.00  0.00    -0.383 A  
HETATM   20  H   UNL     1     -12.228   5.187  71.268  1.00  0.00     0.000 HD 
HETATM   21  C   UNL     1     -13.787   7.618  71.598  1.00  0.00    -0.480 A  
HETATM   22  C   UNL     1     -14.173   8.949  71.804  1.00  0.00    -0.392 A  
HETATM   23  C   UNL     1     -13.221   9.970  71.864  1.00  0.00    -0.557 A  
HETATM   24  C   UNL     1     -11.857   9.702  71.695  1.00  0.00    -0.457 A  
HETATM   25  C   UNL     1     -11.500   8.367  71.480  1.00  0.00    -0.278 A  
HETATM   26  N   UNL     1     -10.294   7.748  71.265  1.00  0.00    -0.198 NA 
ENDBRANCH  15  17
ENDBRANCH  14  15
ENDBRANCH  10  14
ENDBRANCH   6   7
ENDBRANCH   5   6
ENDBRANCH   4   5
ENDBRANCH   3   4
ENDBRANCH   2   3
TORSDOF 8
ENDMDL
MODEL      213
REMARK 921   NORMALIZED FREE ENERGY PREDICTED BY IDOCK:   -3.83 KCAL/MOL
REMARK 922        TOTAL FREE ENERGY PREDICTED BY IDOCK:   -6.50 KCAL/MOL
REMARK 923 INTER-LIGAND FREE ENERGY PREDICTED BY IDOCK:   -6.34 KCAL/MOL
REMARK 924 INTRA-LIGAND FREE ENERGY PREDICTED BY IDOCK:   -0.16 KCAL/MOL
REMARK 927      BINDING AFFINITY PREDICTED BY RF-SCORE:    0.00 PKD
ROOT
HETATM    1  C   UNL     1     -10.488   3.005  74.463  1.00  0.00    -0.155 C  
HETATM    2  O   UNL     1     -10.178   4.389  74.563  1.00  0.00    -0.195 OA 
ENDROOT
BRANCH   2   3
HETATM    3  C   UNL     1     -10.680   5.133  73.454  1.00  0.00    -0.278 C  
BRANCH   3   4
HETATM    4  C   UNL     1      -9.739   6.295  73.161  1.00  0.00    -0.164 C  
BRANCH   4   5
HETATM    5  C   UNL     1      -8.670   5.917  72.136  1.00  0.00    -0.136 C  
BRANCH   5   6
HETATM    6  O   UNL     1      -8.034   7.116  71.664  1.00  0.00    -0.096 OA 
BRANCH   6   7
HETATM    7  C   UNL     1      -8.797   7.885  70.816  1.00  0.00    -0.139 A  
HETATM    8  C   UNL     1      -8.769   7.566  69.444  1.00  0.00    -0.137 A  
HETATM    9  C   UNL     1      -7.846   6.493  68.936  1.00  0.00    -0.110 C  
HETATM   10  C   UNL     1      -9.657   8.250  68.595  1.00  0.00    -0.149 A  
HETATM   11  C   UNL     1      -9.571   8.952  71.263  1.00  0.00    -0.348 A  
HETATM   12  N   UNL     1     -10.454   9.259  69.051  1.00  0.00    -0.215 NA 
HETATM   13  C   UNL     1     -10.365   9.609  70.350  1.00  0.00    -0.291 A  
BRANCH  10  14
HETATM   14  C   UNL     1      -9.897   7.860  67.149  1.00  0.00    -0.208 C  
BRANCH  14  15
HETATM   15  S   UNL     1      -8.687   8.623  66.042  1.00  0.00    -0.180 S  
HETATM   16  O   UNL     1      -8.404   7.796  64.822  1.00  0.00    -0.130 OA 
BRANCH  15  17
HETATM   17  C   UNL     1      -9.587  10.000  65.489  1.00  0.00    -0.266 A  
HETATM   18  N   UNL     1      -9.846  10.304  64.235  1.00  0.00    -0.324 NA 
HETATM   19  C   UNL     1     -10.673  11.403  64.292  1.00  0.00    -0.356 A  
HETATM   20  H   UNL     1      -9.505   9.827  63.399  1.00  0.00     0.000 HD 
HETATM   21  C   UNL     1     -11.258  12.141  63.252  1.00  0.00    -0.409 A  
HETATM   22  C   UNL     1     -12.127  13.192  63.576  1.00  0.00    -0.585 A  
HETATM   23  C   UNL     1     -12.408  13.504  64.909  1.00  0.00    -0.447 A  
HETATM   24  C   UNL     1     -11.813  12.796  65.961  1.00  0.00    -0.495 A  
HETATM   25  C   UNL     1     -10.942  11.760  65.610  1.00  0.00    -0.295 A  
HETATM   26  N   UNL     1     -10.187  10.886  66.350  1.00  0.00    -0.231 NA 
ENDBRANCH  15  17
ENDBRANCH  14  15
ENDBRANCH  10  14
ENDBRANCH   6   7
ENDBRANCH   5   6
ENDBRANCH   4   5
ENDBRANCH   3   4
ENDBRANCH   2   3
TORSDOF 8
ENDMDL
MODEL      214
REMARK 921   NORMALIZED FREE ENERGY PREDICTED BY IDOCK:   -3.83 KCAL/MOL
REMARK 922        TOTAL FREE ENERGY PREDICTED BY IDOCK:   -6.50 KCAL/MOL
REMARK 923 INTER-LIGAND FREE ENERGY PREDICTED BY IDOCK:   -6.39 KCAL/MOL
REMARK 924 INTRA-LIGAND FREE ENERGY PREDICTED BY IDOCK:   -0.10 KCAL/MOL
REMARK 927      BINDING AFFINITY PREDICTED BY RF-SCORE:    0.00 PKD
ROOT
HETATM    1  C   UNL     1      -6.577   8.549  68.418  1.00  0.00    -0.060 C  
HETATM    2  O   UNL     1      -7.479   7.612  68.994  1.00  0.00    -0.091 OA 
ENDROOT
BRANCH   2   3
HETATM    3  C   UNL     1      -6.813   6.677  69.840  1.00  0.00    -0.055 C  
BRANCH   3   4
HETATM    4  C   UNL     1      -7.013   5.270  69.290  1.00  0.00    -0.055 C  
BRANCH   4   5
HETATM    5  C   UNL     1      -8.047   5.240  68.165  1.00  0.00    -0.095 C  
BRANCH   5   6
HETATM    6  O   UNL     1      -9.168   4.448  68.586  1.00  0.00    -0.117 OA 
BRANCH   6   7
HETATM    7  C   UNL     1      -9.792   4.883  69.732  1.00  0.00    -0.221 A  
HETATM    8  C   UNL     1     -10.682   5.969  69.618  1.00  0.00    -0.405 A  
HETATM    9  C   UNL     1     -10.843   6.680  68.303  1.00  0.00    -0.322 C  
HETATM   10  C   UNL     1     -11.432   6.322  70.754  1.00  0.00    -0.316 A  
HETATM   11  C   UNL     1      -9.566   4.301  70.977  1.00  0.00    -0.253 A  
HETATM   12  N   UNL     1     -11.245   5.710  71.958  1.00  0.00    -0.240 NA 
HETATM   13  C   UNL     1     -10.300   4.753  72.051  1.00  0.00    -0.179 A  
BRANCH  10  14
HETATM   14  C   UNL     1     -12.580   7.313  70.721  1.00  0.00    -0.106 C  
BRANCH  14  15
HETATM   15  S   UNL     1     -12.389   8.600  71.977  1.00  0.00    -0.395 S  
HETATM   16  O   UNL     1     -11.131   8.452  72.783  1.00  0.00    -0.327 OA 
BRANCH  15  17
HETATM   17  C   UNL     1     -12.152   9.994  70.971  1.00  0.00    -0.373 A  
HETATM   18  N   UNL     1     -11.923   9.985  69.675  1.00  0.00    -0.475 NA 
HETATM   19  C   UNL     1     -11.916  11.309  69.300  1.00  0.00    -0.342 A  
HETATM   20  H   UNL     1     -11.781   9.170  69.077  1.00  0.00     0.000 HD 
HETATM   21  C   UNL     1     -11.722  11.882  68.034  1.00  0.00    -0.382 A  
HETATM   22  C   UNL     1     -11.829  13.273  67.899  1.00  0.00    -0.388 A  
HETATM   23  C   UNL     1     -12.122  14.079  69.002  1.00  0.00    -0.358 A  
HETATM   24  C   UNL     1     -12.292  13.529  70.279  1.00  0.00    -0.370 A  
HETATM   25  C   UNL     1     -12.169  12.140  70.387  1.00  0.00    -0.294 A  
HETATM   26  N   UNL     1     -12.255  11.277  71.450  1.00  0.00    -0.174 NA 
ENDBRANCH  15  17
ENDBRANCH  14  15
ENDBRANCH  10  14
ENDBRANCH   6   7
ENDBRANCH   5   6
ENDBRANCH   4   5
ENDBRANCH   3   4
ENDBRANCH   2   3
TORSDOF 8
ENDMDL
MODEL      215
REMARK 921   NORMALIZED FREE ENERGY PREDICTED BY IDOCK:   -3.78 KCAL/MOL
REMARK 922        TOTAL FREE ENERGY PREDICTED BY IDOCK:   -6.43 KCAL/MOL
REMARK 923 INTER-LIGAND FREE ENERGY PREDICTED BY IDOCK:   -5.48 KCAL/MOL
REMARK 924 INTRA-LIGAND FREE ENERGY PREDICTED BY IDOCK:   -0.95 KCAL/MOL
REMARK 927      BINDING AFFINITY PREDICTED BY RF-SCORE:    0.00 PKD
ROOT
HETATM    1  C   UNL     1      -8.463   9.073  62.433  1.00  0.00    -0.211 C  
HETATM    2  O   UNL     1      -7.217   9.748  62.559  1.00  0.00    -0.107 OA 
ENDROOT
BRANCH   2   3
HETATM    3  C   UNL     1      -6.130   8.842  62.733  1.00  0.00    -0.090 C  
BRANCH   3   4
HETATM    4  C   UNL     1      -6.397   7.965  63.951  1.00  0.00    -0.062 C  
BRANCH   4   5
HETATM    5  C   UNL     1      -6.132   8.710  65.258  1.00  0.00    -0.049 C  
BRANCH   5   6
HETATM    6  O   UNL     1      -7.388   9.116  65.824  1.00  0.00    -0.088 OA 
BRANCH   6   7
HETATM    7  C   UNL     1      -7.384  10.355  66.423  1.00  0.00    -0.120 A  
HETATM    8  C   UNL     1      -8.582  11.095  66.400  1.00  0.00    -0.172 A  
HETATM    9  C   UNL     1      -9.776  10.578  65.646  1.00  0.00    -0.289 C  
HETATM   10  C   UNL     1      -8.626  12.292  67.136  1.00  0.00    -0.187 A  
HETATM   11  C   UNL     1      -6.251  10.891  67.029  1.00  0.00    -0.076 A  
HETATM   12  N   UNL     1      -7.526  12.784  67.774  1.00  0.00    -0.120 NA 
HETATM   13  C   UNL     1      -6.368  12.102  67.675  1.00  0.00    -0.109 A  
BRANCH  10  14
HETATM   14  C   UNL     1      -9.903  13.072  67.386  1.00  0.00    -0.215 C  
BRANCH  14  15
HETATM   15  S   UNL     1     -10.332  14.121  65.976  1.00  0.00    -0.320 S  
HETATM   16  O   UNL     1     -11.807  14.163  65.702  1.00  0.00    -0.351 OA 
BRANCH  15  17
HETATM   17  C   UNL     1      -9.917  15.685  66.606  1.00  0.00    -0.258 A  
HETATM   18  N   UNL     1      -8.918  15.952  67.419  1.00  0.00    -0.189 NA 
HETATM   19  C   UNL     1      -8.917  17.323  67.551  1.00  0.00    -0.222 A  
HETATM   20  H   UNL     1      -8.282  15.287  67.858  1.00  0.00     0.000 HD 
HETATM   21  C   UNL     1      -8.066  18.152  68.297  1.00  0.00    -0.306 A  
HETATM   22  C   UNL     1      -8.232  19.541  68.213  1.00  0.00    -0.373 A  
HETATM   23  C   UNL     1      -9.227  20.096  67.402  1.00  0.00    -0.495 A  
HETATM   24  C   UNL     1     -10.103  19.284  66.672  1.00  0.00    -0.487 A  
HETATM   25  C   UNL     1      -9.923  17.902  66.783  1.00  0.00    -0.339 A  
HETATM   26  N   UNL     1     -10.583  16.829  66.239  1.00  0.00    -0.242 NA 
ENDBRANCH  15  17
ENDBRANCH  14  15
ENDBRANCH  10  14
ENDBRANCH   6   7
ENDBRANCH   5   6
ENDBRANCH   4   5
ENDBRANCH   3   4
ENDBRANCH   2   3
TORSDOF 8
ENDMDL
MODEL      216
REMARK 921   NORMALIZED FREE ENERGY PREDICTED BY IDOCK:   -3.72 KCAL/MOL
REMARK 922        TOTAL FREE ENERGY PREDICTED BY IDOCK:   -6.33 KCAL/MOL
REMARK 923 INTER-LIGAND FREE ENERGY PREDICTED BY IDOCK:   -5.51 KCAL/MOL
REMARK 924 INTRA-LIGAND FREE ENERGY PREDICTED BY IDOCK:   -0.82 KCAL/MOL
REMARK 927      BINDING AFFINITY PREDICTED BY RF-SCORE:    0.00 PKD
ROOT
HETATM    1  C   UNL     1     -12.446  16.169  73.568  1.00  0.00    -0.564 C  
HETATM    2  O   UNL     1     -12.155  15.154  72.615  1.00  0.00    -0.363 OA 
ENDROOT
BRANCH   2   3
HETATM    3  C   UNL     1     -12.971  15.262  71.451  1.00  0.00    -0.431 C  
BRANCH   3   4
HETATM    4  C   UNL     1     -12.163  15.903  70.328  1.00  0.00    -0.264 C  
BRANCH   4   5
HETATM    5  C   UNL     1     -10.853  15.159  70.073  1.00  0.00    -0.254 C  
BRANCH   5   6
HETATM    6  O   UNL     1     -10.574  15.179  68.664  1.00  0.00    -0.223 OA 
BRANCH   6   7
HETATM    7  C   UNL     1     -10.622  13.952  68.043  1.00  0.00    -0.248 A  
HETATM    8  C   UNL     1      -9.416  13.429  67.539  1.00  0.00    -0.219 A  
HETATM    9  C   UNL     1      -8.157  14.248  67.589  1.00  0.00    -0.188 C  
HETATM   10  C   UNL     1      -9.432  12.115  67.038  1.00  0.00    -0.201 A  
HETATM   11  C   UNL     1     -11.805  13.233  67.894  1.00  0.00    -0.388 A  
HETATM   12  N   UNL     1     -10.586  11.395  66.945  1.00  0.00    -0.240 NA 
HETATM   13  C   UNL     1     -11.738  11.977  67.333  1.00  0.00    -0.281 A  
BRANCH  10  14
HETATM   14  C   UNL     1      -8.176  11.346  66.673  1.00  0.00    -0.163 C  
BRANCH  14  15
HETATM   15  S   UNL     1      -7.530  10.414  68.082  1.00  0.00    -0.091 S  
HETATM   16  O   UNL     1      -8.037  10.918  69.402  1.00  0.00    -0.103 OA 
BRANCH  15  17
HETATM   17  C   UNL     1      -8.299   8.879  67.828  1.00  0.00    -0.110 A  
HETATM   18  N   UNL     1      -8.475   8.283  66.668  1.00  0.00    -0.120 NA 
HETATM   19  C   UNL     1      -9.019   7.055  66.972  1.00  0.00    -0.125 A  
HETATM   20  H   UNL     1      -8.256   8.652  65.743  1.00  0.00     0.000 HD 
HETATM   21  C   UNL     1      -9.405   6.009  66.120  1.00  0.00    -0.140 A  
HETATM   22  C   UNL     1      -9.878   4.818  66.686  1.00  0.00    -0.233 A  
HETATM   23  C   UNL     1      -9.967   4.669  68.073  1.00  0.00    -0.129 A  
HETATM   24  C   UNL     1      -9.613   5.711  68.938  1.00  0.00    -0.168 A  
HETATM   25  C   UNL     1      -9.155   6.893  68.347  1.00  0.00    -0.126 A  
HETATM   26  N   UNL     1      -8.744   8.095  68.865  1.00  0.00    -0.137 NA 
ENDBRANCH  15  17
ENDBRANCH  14  15
ENDBRANCH  10  14
ENDBRANCH   6   7
ENDBRANCH   5   6
ENDBRANCH   4   5
ENDBRANCH   3   4
ENDBRANCH   2   3
TORSDOF 8
ENDMDL
MODEL      217
REMARK 921   NORMALIZED FREE ENERGY PREDICTED BY IDOCK:   -3.71 KCAL/MOL
REMARK 922        TOTAL FREE ENERGY PREDICTED BY IDOCK:   -6.32 KCAL/MOL
REMARK 923 INTER-LIGAND FREE ENERGY PREDICTED BY IDOCK:   -5.50 KCAL/MOL
REMARK 924 INTRA-LIGAND FREE ENERGY PREDICTED BY IDOCK:   -0.82 KCAL/MOL
REMARK 927      BINDING AFFINITY PREDICTED BY RF-SCORE:    0.00 PKD
ROOT
HETATM    1  C   UNL     1      -8.444   9.753  63.990  1.00  0.00    -0.182 C  
HETATM    2  O   UNL     1      -9.259  10.912  63.866  1.00  0.00    -0.205 OA 
ENDROOT
BRANCH   2   3
HETATM    3  C   UNL     1     -10.396  10.863  64.726  1.00  0.00    -0.323 C  
BRANCH   3   4
HETATM    4  C   UNL     1     -10.524  12.189  65.467  1.00  0.00    -0.300 C  
BRANCH   4   5
HETATM    5  C   UNL     1     -10.745  11.985  66.965  1.00  0.00    -0.242 C  
BRANCH   5   6
HETATM    6  O   UNL     1     -11.021  10.597  67.209  1.00  0.00    -0.296 OA 
BRANCH   6   7
HETATM    7  C   UNL     1     -10.264  10.018  68.201  1.00  0.00    -0.175 A  
HETATM    8  C   UNL     1     -10.853   9.873  69.472  1.00  0.00    -0.274 A  
HETATM    9  C   UNL     1     -12.220  10.440  69.740  1.00  0.00    -0.166 C  
HETATM   10  C   UNL     1     -10.141   9.150  70.445  1.00  0.00    -0.218 A  
HETATM   11  C   UNL     1      -8.955   9.589  67.992  1.00  0.00    -0.123 A  
HETATM   12  N   UNL     1      -8.880   8.685  70.215  1.00  0.00    -0.144 NA 
HETATM   13  C   UNL     1      -8.308   8.945  69.022  1.00  0.00    -0.124 A  
BRANCH  10  14
HETATM   14  C   UNL     1     -10.739   8.725  71.772  1.00  0.00    -0.343 C  
BRANCH  14  15
HETATM   15  S   UNL     1     -11.610   7.145  71.638  1.00  0.00    -0.292 S  
HETATM   16  O   UNL     1     -13.052   7.301  71.253  1.00  0.00    -0.369 OA 
BRANCH  15  17
HETATM   17  C   UNL     1     -10.816   6.462  70.253  1.00  0.00    -0.293 A  
HETATM   18  N   UNL     1      -9.642   5.868  70.248  1.00  0.00    -0.160 NA 
HETATM   19  C   UNL     1      -9.482   5.395  68.965  1.00  0.00    -0.133 A  
HETATM   20  H   UNL     1      -8.990   5.777  71.028  1.00  0.00     0.000 HD 
HETATM   21  C   UNL     1      -8.416   4.680  68.399  1.00  0.00    -0.094 A  
HETATM   22  C   UNL     1      -8.523   4.250  67.069  1.00  0.00    -0.104 A  
HETATM   23  C   UNL     1      -9.667   4.526  66.316  1.00  0.00    -0.216 A  
HETATM   24  C   UNL     1     -10.730   5.262  66.855  1.00  0.00    -0.208 A  
HETATM   25  C   UNL     1     -10.593   5.688  68.180  1.00  0.00    -0.183 A  
HETATM   26  N   UNL     1     -11.401   6.422  69.011  1.00  0.00    -0.335 NA 
ENDBRANCH  15  17
ENDBRANCH  14  15
ENDBRANCH  10  14
ENDBRANCH   6   7
ENDBRANCH   5   6
ENDBRANCH   4   5
ENDBRANCH   3   4
ENDBRANCH   2   3
TORSDOF 8
ENDMDL
MODEL      218
REMARK 921   NORMALIZED FREE ENERGY PREDICTED BY IDOCK:   -3.70 KCAL/MOL
REMARK 922        TOTAL FREE ENERGY PREDICTED BY IDOCK:   -6.31 KCAL/MOL
REMARK 923 INTER-LIGAND FREE ENERGY PREDICTED BY IDOCK:   -5.13 KCAL/MOL
REMARK 924 INTRA-LIGAND FREE ENERGY PREDICTED BY IDOCK:   -1.18 KCAL/MOL
REMARK 927      BINDING AFFINITY PREDICTED BY RF-SCORE:    0.00 PKD
ROOT
HETATM    1  C   UNL     1     -11.311  10.819  67.692  1.00  0.00    -0.252 C  
HETATM    2  O   UNL     1     -10.143  11.000  68.483  1.00  0.00    -0.176 OA 
ENDROOT
BRANCH   2   3
HETATM    3  C   UNL     1      -9.596   9.759  68.925  1.00  0.00    -0.167 C  
BRANCH   3   4
HETATM    4  C   UNL     1      -8.928   9.958  70.280  1.00  0.00    -0.094 C  
BRANCH   4   5
HETATM    5  C   UNL     1      -7.407   9.846  70.188  1.00  0.00    -0.160 C  
BRANCH   5   6
HETATM    6  O   UNL     1      -6.954  10.600  69.052  1.00  0.00    -0.066 OA 
BRANCH   6   7
HETATM    7  C   UNL     1      -6.446  11.845  69.344  1.00  0.00    -0.119 A  
HETATM    8  C   UNL     1      -6.493  12.822  68.331  1.00  0.00    -0.080 A  
HETATM    9  C   UNL     1      -6.981  12.463  66.956  1.00  0.00    -0.006 C  
HETATM   10  C   UNL     1      -6.113  14.133  68.670  1.00  0.00    -0.088 A  
HETATM   11  C   UNL     1      -5.890  12.156  70.582  1.00  0.00    -0.066 A  
HETATM   12  N   UNL     1      -5.620  14.443  69.903  1.00  0.00    -0.098 NA 
HETATM   13  C   UNL     1      -5.485  13.453  70.807  1.00  0.00    -0.166 A  
BRANCH  10  14
HETATM   14  C   UNL     1      -6.323  15.325  67.755  1.00  0.00    -0.160 C  
BRANCH  14  15
HETATM   15  S   UNL     1      -7.607  16.433  68.385  1.00  0.00    -0.187 S  
HETATM   16  O   UNL     1      -7.355  17.874  68.050  1.00  0.00    -0.218 OA 
BRANCH  15  17
HETATM   17  C   UNL     1      -8.956  15.943  67.409  1.00  0.00    -0.192 A  
HETATM   18  N   UNL     1      -9.027  16.009  66.096  1.00  0.00    -0.342 NA 
HETATM   19  C   UNL     1     -10.223  15.412  65.769  1.00  0.00    -0.354 A  
HETATM   20  H   UNL     1      -8.342  16.415  65.458  1.00  0.00     0.000 HD 
HETATM   21  C   UNL     1     -10.807  15.203  64.510  1.00  0.00    -0.145 A  
HETATM   22  C   UNL     1     -12.019  14.502  64.436  1.00  0.00    -0.467 A  
HETATM   23  C   UNL     1     -12.639  14.020  65.592  1.00  0.00    -0.542 A  
HETATM   24  C   UNL     1     -12.086  14.242  66.859  1.00  0.00    -0.440 A  
HETATM   25  C   UNL     1     -10.883  14.953  66.905  1.00  0.00    -0.319 A  
HETATM   26  N   UNL     1     -10.080  15.360  67.940  1.00  0.00    -0.225 NA 
ENDBRANCH  15  17
ENDBRANCH  14  15
ENDBRANCH  10  14
ENDBRANCH   6   7
ENDBRANCH   5   6
ENDBRANCH   4   5
ENDBRANCH   3   4
ENDBRANCH   2   3
TORSDOF 8
ENDMDL
MODEL      219
REMARK 921   NORMALIZED FREE ENERGY PREDICTED BY IDOCK:   -3.70 KCAL/MOL
REMARK 922        TOTAL FREE ENERGY PREDICTED BY IDOCK:   -6.30 KCAL/MOL
REMARK 923 INTER-LIGAND FREE ENERGY PREDICTED BY IDOCK:   -5.46 KCAL/MOL
REMARK 924 INTRA-LIGAND FREE ENERGY PREDICTED BY IDOCK:   -0.84 KCAL/MOL
REMARK 927      BINDING AFFINITY PREDICTED BY RF-SCORE:    0.00 PKD
ROOT
HETATM    1  C   UNL     1     -12.015  15.919  70.647  1.00  0.00    -0.348 C  
HETATM    2  O   UNL     1     -11.616  14.594  70.972  1.00  0.00    -0.295 OA 
ENDROOT
BRANCH   2   3
HETATM    3  C   UNL     1     -12.332  13.618  70.218  1.00  0.00    -0.322 C  
BRANCH   3   4
HETATM    4  C   UNL     1     -11.932  13.722  68.752  1.00  0.00    -0.400 C  
BRANCH   4   5
HETATM    5  C   UNL     1     -10.468  13.341  68.533  1.00  0.00    -0.250 C  
BRANCH   5   6
HETATM    6  O   UNL     1     -10.342  12.688  67.260  1.00  0.00    -0.223 OA 
BRANCH   6   7
HETATM    7  C   UNL     1     -10.018  11.352  67.321  1.00  0.00    -0.194 A  
HETATM    8  C   UNL     1      -8.651  11.013  67.340  1.00  0.00    -0.132 A  
HETATM    9  C   UNL     1      -7.605  12.081  67.185  1.00  0.00    -0.146 C  
HETATM   10  C   UNL     1      -8.315   9.664  67.551  1.00  0.00    -0.118 A  
HETATM   11  C   UNL     1     -10.982  10.347  67.353  1.00  0.00    -0.335 A  
HETATM   12  N   UNL     1      -9.267   8.691  67.636  1.00  0.00    -0.134 NA 
HETATM   13  C   UNL     1     -10.560   9.044  67.498  1.00  0.00    -0.237 A  
BRANCH  10  14
HETATM   14  C   UNL     1      -6.900   9.188  67.817  1.00  0.00    -0.076 C  
BRANCH  14  15
HETATM   15  S   UNL     1      -6.476   9.302  69.571  1.00  0.00    -0.044 S  
HETATM   16  O   UNL     1      -6.511  10.708  70.095  1.00  0.00    -0.127 OA 
BRANCH  15  17
HETATM   17  C   UNL     1      -7.838   8.493  70.281  1.00  0.00    -0.090 A  
HETATM   18  N   UNL     1      -8.167   7.231  70.105  1.00  0.00    -0.132 NA 
HETATM   19  C   UNL     1      -9.237   7.017  70.945  1.00  0.00    -0.156 A  
HETATM   20  H   UNL     1      -7.726   6.557  69.479  1.00  0.00     0.000 HD 
HETATM   21  C   UNL     1      -9.985   5.850  71.165  1.00  0.00    -0.236 A  
HETATM   22  C   UNL     1     -10.998   5.871  72.134  1.00  0.00    -0.317 A  
HETATM   23  C   UNL     1     -11.263   7.030  72.868  1.00  0.00    -0.273 A  
HETATM   24  C   UNL     1     -10.546   8.212  72.643  1.00  0.00    -0.414 A  
HETATM   25  C   UNL     1      -9.549   8.167  71.663  1.00  0.00    -0.180 A  
HETATM   26  N   UNL     1      -8.679   9.108  71.175  1.00  0.00    -0.284 NA 
ENDBRANCH  15  17
ENDBRANCH  14  15
ENDBRANCH  10  14
ENDBRANCH   6   7
ENDBRANCH   5   6
ENDBRANCH   4   5
ENDBRANCH   3   4
ENDBRANCH   2   3
TORSDOF 8
ENDMDL
MODEL      220
REMARK 921   NORMALIZED FREE ENERGY PREDICTED BY IDOCK:   -3.70 KCAL/MOL
REMARK 922        TOTAL FREE ENERGY PREDICTED BY IDOCK:   -6.30 KCAL/MOL
REMARK 923 INTER-LIGAND FREE ENERGY PREDICTED BY IDOCK:   -5.54 KCAL/MOL
REMARK 924 INTRA-LIGAND FREE ENERGY PREDICTED BY IDOCK:   -0.76 KCAL/MOL
REMARK 927      BINDING AFFINITY PREDICTED BY RF-SCORE:    0.00 PKD
ROOT
HETATM    1  C   UNL     1      -7.609   2.424  66.876  1.00  0.00    -0.070 C  
HETATM    2  O   UNL     1      -8.371   3.194  65.955  1.00  0.00    -0.093 OA 
ENDROOT
BRANCH   2   3
HETATM    3  C   UNL     1      -7.562   3.741  64.914  1.00  0.00    -0.077 C  
BRANCH   3   4
HETATM    4  C   UNL     1      -7.234   5.192  65.242  1.00  0.00    -0.067 C  
BRANCH   4   5
HETATM    5  C   UNL     1      -8.442   5.934  65.814  1.00  0.00    -0.148 C  
BRANCH   5   6
HETATM    6  O   UNL     1      -7.998   6.801  66.869  1.00  0.00    -0.106 OA 
BRANCH   6   7
HETATM    7  C   UNL     1      -8.934   7.058  67.845  1.00  0.00    -0.122 A  
HETATM    8  C   UNL     1      -8.935   8.341  68.425  1.00  0.00    -0.136 A  
HETATM    9  C   UNL     1      -7.873   9.339  68.057  1.00  0.00    -0.092 C  
HETATM   10  C   UNL     1      -9.980   8.657  69.313  1.00  0.00    -0.195 A  
HETATM   11  C   UNL     1      -9.854   6.104  68.272  1.00  0.00    -0.138 A  
HETATM   12  N   UNL     1     -10.910   7.732  69.685  1.00  0.00    -0.223 NA 
HETATM   13  C   UNL     1     -10.805   6.482  69.193  1.00  0.00    -0.302 A  
BRANCH  10  14
HETATM   14  C   UNL     1     -10.236  10.057  69.836  1.00  0.00    -0.260 C  
BRANCH  14  15
HETATM   15  S   UNL     1     -11.865  10.668  69.341  1.00  0.00    -0.214 S  
HETATM   16  O   UNL     1     -12.539  11.477  70.410  1.00  0.00    -0.239 OA 
BRANCH  15  17
HETATM   17  C   UNL     1     -11.417  11.795  68.099  1.00  0.00    -0.316 A  
HETATM   18  N   UNL     1     -11.853  11.793  66.857  1.00  0.00    -0.585 NA 
HETATM   19  C   UNL     1     -11.318  12.925  66.285  1.00  0.00    -0.323 A  
HETATM   20  H   UNL     1     -12.458  11.101  66.414  1.00  0.00     0.000 HD 
HETATM   21  C   UNL     1     -11.456  13.422  64.979  1.00  0.00    -0.331 A  
HETATM   22  C   UNL     1     -10.857  14.647  64.657  1.00  0.00    -0.332 A  
HETATM   23  C   UNL     1     -10.133  15.364  65.613  1.00  0.00    -0.406 A  
HETATM   24  C   UNL     1      -9.961  14.872  66.913  1.00  0.00    -0.245 A  
HETATM   25  C   UNL     1     -10.560  13.643  67.205  1.00  0.00    -0.272 A  
HETATM   26  N   UNL     1     -10.591  12.866  68.336  1.00  0.00    -0.248 NA 
ENDBRANCH  15  17
ENDBRANCH  14  15
ENDBRANCH  10  14
ENDBRANCH   6   7
ENDBRANCH   5   6
ENDBRANCH   4   5
ENDBRANCH   3   4
ENDBRANCH   2   3
TORSDOF 8
ENDMDL
MODEL      221
REMARK 921   NORMALIZED FREE ENERGY PREDICTED BY IDOCK:   -3.70 KCAL/MOL
REMARK 922        TOTAL FREE ENERGY PREDICTED BY IDOCK:   -6.30 KCAL/MOL
REMARK 923 INTER-LIGAND FREE ENERGY PREDICTED BY IDOCK:   -5.76 KCAL/MOL
REMARK 924 INTRA-LIGAND FREE ENERGY PREDICTED BY IDOCK:   -0.54 KCAL/MOL
REMARK 927      BINDING AFFINITY PREDICTED BY RF-SCORE:    0.00 PKD
ROOT
HETATM    1  C   UNL     1      -7.991   4.646  67.926  1.00  0.00    -0.089 C  
HETATM    2  O   UNL     1      -8.750   5.846  67.841  1.00  0.00    -0.106 OA 
ENDROOT
BRANCH   2   3
HETATM    3  C   UNL     1      -8.166   6.788  66.942  1.00  0.00    -0.113 C  
BRANCH   3   4
HETATM    4  C   UNL     1      -9.209   7.833  66.562  1.00  0.00    -0.229 C  
BRANCH   4   5
HETATM    5  C   UNL     1      -9.724   8.593  67.783  1.00  0.00    -0.165 C  
BRANCH   5   6
HETATM    6  O   UNL     1     -11.021   9.131  67.482  1.00  0.00    -0.176 OA 
BRANCH   6   7
HETATM    7  C   UNL     1     -11.216  10.435  67.876  1.00  0.00    -0.263 A  
HETATM    8  C   UNL     1     -11.287  11.417  66.869  1.00  0.00    -0.284 A  
HETATM    9  C   UNL     1     -11.043  11.046  65.433  1.00  0.00     0.001 C  
HETATM   10  C   UNL     1     -11.633  12.725  67.253  1.00  0.00    -0.360 A  
HETATM   11  C   UNL     1     -11.334  10.805  69.213  1.00  0.00    -0.352 A  
HETATM   12  N   UNL     1     -11.801  13.068  68.562  1.00  0.00    -0.330 NA 
HETATM   13  C   UNL     1     -11.611  12.122  69.503  1.00  0.00    -0.315 A  
BRANCH  10  14
HETATM   14  C   UNL     1     -11.964  13.825  66.263  1.00  0.00    -0.429 C  
BRANCH  14  15
HETATM   15  S   UNL     1     -10.553  14.214  65.200  1.00  0.00    -0.422 S  
HETATM   16  O   UNL     1     -10.716  15.508  64.458  1.00  0.00    -0.321 OA 
BRANCH  15  17
HETATM   17  C   UNL     1      -9.324  14.497  66.392  1.00  0.00    -0.273 A  
HETATM   18  N   UNL     1      -8.390  13.646  66.760  1.00  0.00    -0.428 NA 
HETATM   19  C   UNL     1      -7.590  14.344  67.636  1.00  0.00    -0.179 A  
HETATM   20  H   UNL     1      -8.283  12.676  66.460  1.00  0.00     0.000 HD 
HETATM   21  C   UNL     1      -6.443  13.928  68.330  1.00  0.00    -0.111 A  
HETATM   22  C   UNL     1      -5.759  14.860  69.122  1.00  0.00    -0.096 A  
HETATM   23  C   UNL     1      -6.206  16.180  69.223  1.00  0.00    -0.163 A  
HETATM   24  C   UNL     1      -7.363  16.606  68.560  1.00  0.00    -0.201 A  
HETATM   25  C   UNL     1      -8.033  15.654  67.786  1.00  0.00    -0.144 A  
HETATM   26  N   UNL     1      -9.176  15.705  67.028  1.00  0.00    -0.213 NA 
ENDBRANCH  15  17
ENDBRANCH  14  15
ENDBRANCH  10  14
ENDBRANCH   6   7
ENDBRANCH   5   6
ENDBRANCH   4   5
ENDBRANCH   3   4
ENDBRANCH   2   3
TORSDOF 8
ENDMDL
MODEL      222
REMARK 921   NORMALIZED FREE ENERGY PREDICTED BY IDOCK:   -3.69 KCAL/MOL
REMARK 922        TOTAL FREE ENERGY PREDICTED BY IDOCK:   -6.29 KCAL/MOL
REMARK 923 INTER-LIGAND FREE ENERGY PREDICTED BY IDOCK:   -5.68 KCAL/MOL
REMARK 924 INTRA-LIGAND FREE ENERGY PREDICTED BY IDOCK:   -0.61 KCAL/MOL
REMARK 927      BINDING AFFINITY PREDICTED BY RF-SCORE:    0.00 PKD
ROOT
HETATM    1  C   UNL     1     -12.479  14.833  69.821  1.00  0.00    -0.191 C  
HETATM    2  O   UNL     1     -11.468  13.834  69.756  1.00  0.00    -0.253 OA 
ENDROOT
BRANCH   2   3
HETATM    3  C   UNL     1     -11.917  12.659  69.085  1.00  0.00    -0.243 C  
BRANCH   3   4
HETATM    4  C   UNL     1     -11.509  12.730  67.618  1.00  0.00    -0.387 C  
BRANCH   4   5
HETATM    5  C   UNL     1     -10.003  12.542  67.436  1.00  0.00    -0.207 C  
BRANCH   5   6
HETATM    6  O   UNL     1      -9.778  11.515  66.458  1.00  0.00    -0.195 OA 
BRANCH   6   7
HETATM    7  C   UNL     1      -9.667  10.241  66.966  1.00  0.00    -0.176 A  
HETATM    8  C   UNL     1      -8.457   9.893  67.595  1.00  0.00    -0.114 A  
HETATM    9  C   UNL     1      -7.303  10.857  67.601  1.00  0.00    -0.094 C  
HETATM   10  C   UNL     1      -8.392   8.648  68.245  1.00  0.00    -0.127 A  
HETATM   11  C   UNL     1     -10.692   9.303  66.868  1.00  0.00    -0.164 A  
HETATM   12  N   UNL     1      -9.421   7.754  68.191  1.00  0.00    -0.145 NA 
HETATM   13  C   UNL     1     -10.518   8.082  67.480  1.00  0.00    -0.260 A  
BRANCH  10  14
HETATM   14  C   UNL     1      -7.244   8.236  69.147  1.00  0.00    -0.072 C  
BRANCH  14  15
HETATM   15  S   UNL     1      -7.336   9.050  70.759  1.00  0.00    -0.117 S  
HETATM   16  O   UNL     1      -7.123  10.533  70.682  1.00  0.00    -0.250 OA 
BRANCH  15  17
HETATM   17  C   UNL     1      -9.016   8.827  71.133  1.00  0.00    -0.222 A  
HETATM   18  N   UNL     1      -9.971   9.717  70.968  1.00  0.00    -0.300 NA 
HETATM   19  C   UNL     1     -11.137   9.059  71.290  1.00  0.00    -0.312 A  
HETATM   20  H   UNL     1      -9.869  10.686  70.667  1.00  0.00     0.000 HD 
HETATM   21  C   UNL     1     -12.461   9.527  71.288  1.00  0.00    -0.432 A  
HETATM   22  C   UNL     1     -13.493   8.630  71.597  1.00  0.00    -0.392 A  
HETATM   23  C   UNL     1     -13.215   7.295  71.903  1.00  0.00    -0.289 A  
HETATM   24  C   UNL     1     -11.899   6.817  71.937  1.00  0.00    -0.366 A  
HETATM   25  C   UNL     1     -10.887   7.735  71.636  1.00  0.00    -0.229 A  
HETATM   26  N   UNL     1      -9.520   7.632  71.585  1.00  0.00    -0.145 NA 
ENDBRANCH  15  17
ENDBRANCH  14  15
ENDBRANCH  10  14
ENDBRANCH   6   7
ENDBRANCH   5   6
ENDBRANCH   4   5
ENDBRANCH   3   4
ENDBRANCH   2   3
TORSDOF 8
ENDMDL
MODEL      223
REMARK 921   NORMALIZED FREE ENERGY PREDICTED BY IDOCK:   -3.69 KCAL/MOL
REMARK 922        TOTAL FREE ENERGY PREDICTED BY IDOCK:   -6.29 KCAL/MOL
REMARK 923 INTER-LIGAND FREE ENERGY PREDICTED BY IDOCK:   -5.49 KCAL/MOL
REMARK 924 INTRA-LIGAND FREE ENERGY PREDICTED BY IDOCK:   -0.80 KCAL/MOL
REMARK 927      BINDING AFFINITY PREDICTED BY RF-SCORE:    0.00 PKD
ROOT
HETATM    1  C   UNL     1      -9.416   4.645  69.237  1.00  0.00    -0.162 C  
HETATM    2  O   UNL     1      -9.174   4.491  70.630  1.00  0.00    -0.118 OA 
ENDROOT
BRANCH   2   3
HETATM    3  C   UNL     1      -9.563   5.645  71.373  1.00  0.00    -0.152 C  
BRANCH   3   4
HETATM    4  C   UNL     1      -8.637   6.803  71.023  1.00  0.00    -0.136 C  
BRANCH   4   5
HETATM    5  C   UNL     1      -9.393   7.957  70.364  1.00  0.00    -0.159 C  
BRANCH   5   6
HETATM    6  O   UNL     1      -8.914   8.119  69.020  1.00  0.00    -0.143 OA 
BRANCH   6   7
HETATM    7  C   UNL     1      -8.811   9.423  68.592  1.00  0.00    -0.132 A  
HETATM    8  C   UNL     1      -9.498   9.778  67.414  1.00  0.00    -0.178 A  
HETATM    9  C   UNL     1     -10.217   8.729  66.613  1.00  0.00    -0.340 C  
HETATM   10  C   UNL     1      -9.518  11.137  67.054  1.00  0.00    -0.177 A  
HETATM   11  C   UNL     1      -8.056  10.377  69.268  1.00  0.00    -0.159 A  
HETATM   12  N   UNL     1      -8.820  12.077  67.754  1.00  0.00    -0.158 NA 
HETATM   13  C   UNL     1      -8.083  11.675  68.808  1.00  0.00    -0.072 A  
BRANCH  10  14
HETATM   14  C   UNL     1     -10.395  11.694  65.949  1.00  0.00    -0.248 C  
BRANCH  14  15
HETATM   15  S   UNL     1     -11.826  12.579  66.614  1.00  0.00    -0.280 S  
HETATM   16  O   UNL     1     -12.276  12.052  67.946  1.00  0.00    -0.470 OA 
BRANCH  15  17
HETATM   17  C   UNL     1     -11.122  14.134  66.926  1.00  0.00    -0.307 A  
HETATM   18  N   UNL     1     -10.083  14.653  66.308  1.00  0.00    -0.281 NA 
HETATM   19  C   UNL     1      -9.965  15.929  66.809  1.00  0.00    -0.248 A  
HETATM   20  H   UNL     1      -9.492  14.204  65.608  1.00  0.00     0.000 HD 
HETATM   21  C   UNL     1      -9.031  16.931  66.501  1.00  0.00    -0.303 A  
HETATM   22  C   UNL     1      -9.165  18.187  67.109  1.00  0.00    -0.256 A  
HETATM   23  C   UNL     1     -10.205  18.442  68.006  1.00  0.00    -0.406 A  
HETATM   24  C   UNL     1     -11.130  17.447  68.347  1.00  0.00     0.028 A  
HETATM   25  C   UNL     1     -10.967  16.200  67.735  1.00  0.00    -0.293 A  
HETATM   26  N   UNL     1     -11.654  15.017  67.834  1.00  0.00    -0.340 NA 
ENDBRANCH  15  17
ENDBRANCH  14  15
ENDBRANCH  10  14
ENDBRANCH   6   7
ENDBRANCH   5   6
ENDBRANCH   4   5
ENDBRANCH   3   4
ENDBRANCH   2   3
TORSDOF 8
ENDMDL
MODEL      224
REMARK 921   NORMALIZED FREE ENERGY PREDICTED BY IDOCK:   -3.68 KCAL/MOL
REMARK 922        TOTAL FREE ENERGY PREDICTED BY IDOCK:   -6.28 KCAL/MOL
REMARK 923 INTER-LIGAND FREE ENERGY PREDICTED BY IDOCK:   -5.64 KCAL/MOL
REMARK 924 INTRA-LIGAND FREE ENERGY PREDICTED BY IDOCK:   -0.64 KCAL/MOL
REMARK 927      BINDING AFFINITY PREDICTED BY RF-SCORE:    0.00 PKD
ROOT
HETATM    1  C   UNL     1      -7.006  17.787  66.229  1.00  0.00    -0.280 C  
HETATM    2  O   UNL     1      -7.691  18.528  67.231  1.00  0.00    -0.221 OA 
ENDROOT
BRANCH   2   3
HETATM    3  C   UNL     1      -8.598  19.476  66.672  1.00  0.00    -0.340 C  
BRANCH   3   4
HETATM    4  C   UNL     1      -9.972  18.832  66.529  1.00  0.00    -0.415 C  
BRANCH   4   5
HETATM    5  C   UNL     1     -10.232  17.796  67.622  1.00  0.00    -0.358 C  
BRANCH   5   6
HETATM    6  O   UNL     1      -9.943  16.489  67.101  1.00  0.00    -0.254 OA 
BRANCH   6   7
HETATM    7  C   UNL     1     -10.545  15.448  67.771  1.00  0.00    -0.274 A  
HETATM    8  C   UNL     1      -9.958  14.173  67.659  1.00  0.00    -0.233 A  
HETATM    9  C   UNL     1      -8.782  13.960  66.747  1.00  0.00    -0.119 C  
HETATM   10  C   UNL     1     -10.481  13.140  68.457  1.00  0.00    -0.251 A  
HETATM   11  C   UNL     1     -11.700  15.615  68.531  1.00  0.00    -0.339 A  
HETATM   12  N   UNL     1     -11.580  13.325  69.242  1.00  0.00    -0.297 NA 
HETATM   13  C   UNL     1     -12.181  14.531  69.231  1.00  0.00    -0.229 A  
BRANCH  10  14
HETATM   14  C   UNL     1      -9.815  11.786  68.609  1.00  0.00    -0.144 C  
BRANCH  14  15
HETATM   15  S   UNL     1     -10.703  10.499  67.700  1.00  0.00    -0.295 S  
HETATM   16  O   UNL     1     -11.731  11.050  66.755  1.00  0.00    -0.267 OA 
BRANCH  15  17
HETATM   17  C   UNL     1      -9.426   9.873  66.705  1.00  0.00    -0.169 A  
HETATM   18  N   UNL     1      -9.560   9.000  65.730  1.00  0.00    -0.395 NA 
HETATM   19  C   UNL     1      -8.309   8.896  65.164  1.00  0.00    -0.161 A  
HETATM   20  H   UNL     1     -10.409   8.507  65.453  1.00  0.00     0.000 HD 
HETATM   21  C   UNL     1      -7.875   8.110  64.085  1.00  0.00    -0.142 A  
HETATM   22  C   UNL     1      -6.548   8.233  63.652  1.00  0.00    -0.076 A  
HETATM   23  C   UNL     1      -5.668   9.119  64.281  1.00  0.00    -0.069 A  
HETATM   24  C   UNL     1      -6.075   9.890  65.376  1.00  0.00    -0.084 A  
HETATM   25  C   UNL     1      -7.401   9.741  65.795  1.00  0.00    -0.105 A  
HETATM   26  N   UNL     1      -8.127  10.306  66.812  1.00  0.00    -0.119 NA 
ENDBRANCH  15  17
ENDBRANCH  14  15
ENDBRANCH  10  14
ENDBRANCH   6   7
ENDBRANCH   5   6
ENDBRANCH   4   5
ENDBRANCH   3   4
ENDBRANCH   2   3
TORSDOF 8
ENDMDL
MODEL      225
REMARK 921   NORMALIZED FREE ENERGY PREDICTED BY IDOCK:   -3.68 KCAL/MOL
REMARK 922        TOTAL FREE ENERGY PREDICTED BY IDOCK:   -6.27 KCAL/MOL
REMARK 923 INTER-LIGAND FREE ENERGY PREDICTED BY IDOCK:   -5.64 KCAL/MOL
REMARK 924 INTRA-LIGAND FREE ENERGY PREDICTED BY IDOCK:   -0.63 KCAL/MOL
REMARK 927      BINDING AFFINITY PREDICTED BY RF-SCORE:    0.00 PKD
ROOT
HETATM    1  C   UNL     1     -10.896   3.942  64.044  1.00  0.00    -0.151 C  
HETATM    2  O   UNL     1      -9.481   3.806  64.023  1.00  0.00    -0.136 OA 
ENDROOT
BRANCH   2   3
HETATM    3  C   UNL     1      -9.073   2.440  63.994  1.00  0.00    -0.107 C  
BRANCH   3   4
HETATM    4  C   UNL     1      -8.759   1.979  65.413  1.00  0.00    -0.117 C  
BRANCH   4   5
HETATM    5  C   UNL     1      -8.430   3.155  66.333  1.00  0.00    -0.109 C  
BRANCH   5   6
HETATM    6  O   UNL     1      -9.560   3.412  67.181  1.00  0.00    -0.198 OA 
BRANCH   6   7
HETATM    7  C   UNL     1      -9.371   3.111  68.510  1.00  0.00    -0.177 A  
HETATM    8  C   UNL     1      -9.311   4.185  69.419  1.00  0.00    -0.238 A  
HETATM    9  C   UNL     1      -9.341   5.602  68.919  1.00  0.00    -0.144 C  
HETATM   10  C   UNL     1      -9.268   3.879  70.791  1.00  0.00    -0.128 A  
HETATM   11  C   UNL     1      -9.232   1.805  68.971  1.00  0.00    -0.193 A  
HETATM   12  N   UNL     1      -9.186   2.593  71.238  1.00  0.00    -0.110 NA 
HETATM   13  C   UNL     1      -9.131   1.600  70.329  1.00  0.00    -0.085 A  
BRANCH  10  14
HETATM   14  C   UNL     1      -9.425   4.919  71.883  1.00  0.00    -0.149 C  
BRANCH  14  15
HETATM   15  S   UNL     1     -11.073   4.865  72.626  1.00  0.00    -0.107 S  
HETATM   16  O   UNL     1     -11.041   4.835  74.127  1.00  0.00    -0.302 OA 
BRANCH  15  17
HETATM   17  C   UNL     1     -11.670   6.435  72.191  1.00  0.00    -0.321 A  
HETATM   18  N   UNL     1     -12.895   6.877  72.378  1.00  0.00    -0.473 NA 
HETATM   19  C   UNL     1     -12.867   8.197  71.985  1.00  0.00    -0.318 A  
HETATM   20  H   UNL     1     -13.695   6.355  72.737  1.00  0.00     0.000 HD 
HETATM   21  C   UNL     1     -13.895   9.152  71.974  1.00  0.00    -0.480 A  
HETATM   22  C   UNL     1     -13.592  10.464  71.585  1.00  0.00    -0.211 A  
HETATM   23  C   UNL     1     -12.293  10.819  71.212  1.00  0.00    -0.470 A  
HETATM   24  C   UNL     1     -11.261   9.874  71.190  1.00  0.00    -0.404 A  
HETATM   25  C   UNL     1     -11.592   8.570  71.572  1.00  0.00    -0.292 A  
HETATM   26  N   UNL     1     -10.864   7.410  71.657  1.00  0.00    -0.219 NA 
ENDBRANCH  15  17
ENDBRANCH  14  15
ENDBRANCH  10  14
ENDBRANCH   6   7
ENDBRANCH   5   6
ENDBRANCH   4   5
ENDBRANCH   3   4
ENDBRANCH   2   3
TORSDOF 8
ENDMDL
MODEL      226
REMARK 921   NORMALIZED FREE ENERGY PREDICTED BY IDOCK:   -3.64 KCAL/MOL
REMARK 922        TOTAL FREE ENERGY PREDICTED BY IDOCK:   -6.22 KCAL/MOL
REMARK 923 INTER-LIGAND FREE ENERGY PREDICTED BY IDOCK:   -4.85 KCAL/MOL
REMARK 924 INTRA-LIGAND FREE ENERGY PREDICTED BY IDOCK:   -1.37 KCAL/MOL
REMARK 927      BINDING AFFINITY PREDICTED BY RF-SCORE:    0.00 PKD
ROOT
HETATM    1  C   UNL     1     -11.568  12.164  65.824  1.00  0.00    -0.355 C  
HETATM    2  O   UNL     1     -12.173  12.586  67.040  1.00  0.00    -0.490 OA 
ENDROOT
BRANCH   2   3
HETATM    3  C   UNL     1     -11.743  11.806  68.153  1.00  0.00    -0.307 C  
BRANCH   3   4
HETATM    4  C   UNL     1     -10.959  10.600  67.649  1.00  0.00    -0.370 C  
BRANCH   4   5
HETATM    5  C   UNL     1     -10.229   9.881  68.784  1.00  0.00    -0.189 C  
BRANCH   5   6
HETATM    6  O   UNL     1     -11.202   9.336  69.689  1.00  0.00    -0.170 OA 
BRANCH   6   7
HETATM    7  C   UNL     1     -10.689   8.525  70.675  1.00  0.00    -0.220 A  
HETATM    8  C   UNL     1     -10.842   7.133  70.520  1.00  0.00    -0.269 A  
HETATM    9  C   UNL     1     -11.637   6.584  69.369  1.00  0.00    -0.249 C  
HETATM   10  C   UNL     1     -10.193   6.297  71.446  1.00  0.00    -0.201 A  
HETATM   11  C   UNL     1     -10.046   9.029  71.803  1.00  0.00    -0.373 A  
HETATM   12  N   UNL     1      -9.518   6.800  72.519  1.00  0.00    -0.140 NA 
HETATM   13  C   UNL     1      -9.493   8.136  72.692  1.00  0.00    -0.276 A  
BRANCH  10  14
HETATM   14  C   UNL     1     -10.082   4.794  71.277  1.00  0.00    -0.188 C  
BRANCH  14  15
HETATM   15  S   UNL     1      -8.416   4.298  70.775  1.00  0.00    -0.079 S  
HETATM   16  O   UNL     1      -8.364   2.914  70.198  1.00  0.00    -0.044 OA 
BRANCH  15  17
HETATM   17  C   UNL     1      -8.150   5.381  69.444  1.00  0.00    -0.093 A  
HETATM   18  N   UNL     1      -8.708   5.299  68.255  1.00  0.00    -0.102 NA 
HETATM   19  C   UNL     1      -8.288   6.424  67.581  1.00  0.00    -0.117 A  
HETATM   20  H   UNL     1      -9.320   4.561  67.908  1.00  0.00     0.000 HD 
HETATM   21  C   UNL     1      -8.580   6.849  66.276  1.00  0.00    -0.138 A  
HETATM   22  C   UNL     1      -8.075   8.081  65.839  1.00  0.00    -0.117 A  
HETATM   23  C   UNL     1      -7.293   8.875  66.683  1.00  0.00    -0.085 A  
HETATM   24  C   UNL     1      -6.968   8.455  67.979  1.00  0.00    -0.081 A  
HETATM   25  C   UNL     1      -7.475   7.217  68.386  1.00  0.00    -0.106 A  
HETATM   26  N   UNL     1      -7.356   6.497  69.547  1.00  0.00    -0.089 NA 
ENDBRANCH  15  17
ENDBRANCH  14  15
ENDBRANCH  10  14
ENDBRANCH   6   7
ENDBRANCH   5   6
ENDBRANCH   4   5
ENDBRANCH   3   4
ENDBRANCH   2   3
TORSDOF 8
ENDMDL
MODEL      227
REMARK 921   NORMALIZED FREE ENERGY PREDICTED BY IDOCK:   -3.64 KCAL/MOL
REMARK 922        TOTAL FREE ENERGY PREDICTED BY IDOCK:   -6.22 KCAL/MOL
REMARK 923 INTER-LIGAND FREE ENERGY PREDICTED BY IDOCK:   -5.58 KCAL/MOL
REMARK 924 INTRA-LIGAND FREE ENERGY PREDICTED BY IDOCK:   -0.63 KCAL/MOL
REMARK 927      BINDING AFFINITY PREDICTED BY RF-SCORE:    0.00 PKD
ROOT
HETATM    1  C   UNL     1      -8.275   3.692  62.405  1.00  0.00    -0.072 C  
HETATM    2  O   UNL     1      -8.258   4.688  63.420  1.00  0.00    -0.090 OA 
ENDROOT
BRANCH   2   3
HETATM    3  C   UNL     1      -7.140   5.564  63.295  1.00  0.00    -0.043 C  
BRANCH   3   4
HETATM    4  C   UNL     1      -7.628   7.007  63.291  1.00  0.00    -0.108 C  
BRANCH   4   5
HETATM    5  C   UNL     1      -7.673   7.596  64.701  1.00  0.00    -0.121 C  
BRANCH   5   6
HETATM    6  O   UNL     1      -8.774   8.514  64.786  1.00  0.00    -0.135 OA 
BRANCH   6   7
HETATM    7  C   UNL     1      -9.297   8.681  66.048  1.00  0.00    -0.218 A  
HETATM    8  C   UNL     1      -9.148   9.944  66.654  1.00  0.00    -0.171 A  
HETATM    9  C   UNL     1      -8.345  11.018  65.974  1.00  0.00    -0.147 C  
HETATM   10  C   UNL     1      -9.807  10.165  67.876  1.00  0.00    -0.151 A  
HETATM   11  C   UNL     1      -9.947   7.658  66.732  1.00  0.00    -0.317 A  
HETATM   12  N   UNL     1     -10.488   9.172  68.515  1.00  0.00    -0.213 NA 
HETATM   13  C   UNL     1     -10.509   7.945  67.955  1.00  0.00    -0.185 A  
BRANCH  10  14
HETATM   14  C   UNL     1      -9.921  11.530  68.528  1.00  0.00    -0.204 C  
BRANCH  14  15
HETATM   15  S   UNL     1     -11.628  12.129  68.528  1.00  0.00    -0.334 S  
HETATM   16  O   UNL     1     -12.264  12.090  69.887  1.00  0.00    -0.254 OA 
BRANCH  15  17
HETATM   17  C   UNL     1     -11.375  13.808  68.166  1.00  0.00    -0.284 A  
HETATM   18  N   UNL     1     -11.297  14.786  69.042  1.00  0.00    -0.260 NA 
HETATM   19  C   UNL     1     -10.982  15.906  68.306  1.00  0.00    -0.329 A  
HETATM   20  H   UNL     1     -11.440  14.728  70.051  1.00  0.00     0.000 HD 
HETATM   21  C   UNL     1     -10.774  17.229  68.728  1.00  0.00    -0.247 A  
HETATM   22  C   UNL     1     -10.394  18.187  67.779  1.00  0.00    -0.413 A  
HETATM   23  C   UNL     1     -10.225  17.839  66.436  1.00  0.00    -0.365 A  
HETATM   24  C   UNL     1     -10.454  16.531  65.991  1.00  0.00    -0.320 A  
HETATM   25  C   UNL     1     -10.843  15.597  66.956  1.00  0.00    -0.294 A  
HETATM   26  N   UNL     1     -11.159  14.264  66.888  1.00  0.00    -0.304 NA 
ENDBRANCH  15  17
ENDBRANCH  14  15
ENDBRANCH  10  14
ENDBRANCH   6   7
ENDBRANCH   5   6
ENDBRANCH   4   5
ENDBRANCH   3   4
ENDBRANCH   2   3
TORSDOF 8
ENDMDL
MODEL      228
REMARK 921   NORMALIZED FREE ENERGY PREDICTED BY IDOCK:   -3.63 KCAL/MOL
REMARK 922        TOTAL FREE ENERGY PREDICTED BY IDOCK:   -6.20 KCAL/MOL
REMARK 923 INTER-LIGAND FREE ENERGY PREDICTED BY IDOCK:   -5.34 KCAL/MOL
REMARK 924 INTRA-LIGAND FREE ENERGY PREDICTED BY IDOCK:   -0.86 KCAL/MOL
REMARK 927      BINDING AFFINITY PREDICTED BY RF-SCORE:    0.00 PKD
ROOT
HETATM    1  C   UNL     1      -5.204  15.156  69.436  1.00  0.00    -0.092 C  
HETATM    2  O   UNL     1      -5.219  13.761  69.163  1.00  0.00    -0.077 OA 
ENDROOT
BRANCH   2   3
HETATM    3  C   UNL     1      -5.598  12.994  70.304  1.00  0.00    -0.145 C  
BRANCH   3   4
HETATM    4  C   UNL     1      -5.490  11.510  69.972  1.00  0.00    -0.094 C  
BRANCH   4   5
HETATM    5  C   UNL     1      -6.452  11.106  68.855  1.00  0.00    -0.056 C  
BRANCH   5   6
HETATM    6  O   UNL     1      -7.709  11.770  69.061  1.00  0.00    -0.083 OA 
BRANCH   6   7
HETATM    7  C   UNL     1      -8.600  11.668  68.018  1.00  0.00    -0.152 A  
HETATM    8  C   UNL     1      -8.869  12.833  67.274  1.00  0.00    -0.198 A  
HETATM    9  C   UNL     1      -8.280  14.151  67.694  1.00  0.00    -0.193 C  
HETATM   10  C   UNL     1      -9.661  12.703  66.120  1.00  0.00    -0.251 A  
HETATM   11  C   UNL     1      -9.237  10.474  67.689  1.00  0.00    -0.153 A  
HETATM   12  N   UNL     1     -10.238  11.517  65.773  1.00  0.00    -0.239 NA 
HETATM   13  C   UNL     1     -10.048  10.452  66.577  1.00  0.00    -0.228 A  
BRANCH  10  14
HETATM   14  C   UNL     1      -9.848  13.817  65.107  1.00  0.00    -0.093 C  
BRANCH  14  15
HETATM   15  S   UNL     1     -11.214  14.912  65.561  1.00  0.00    -0.340 S  
HETATM   16  O   UNL     1     -11.816  14.578  66.895  1.00  0.00    -0.392 OA 
BRANCH  15  17
HETATM   17  C   UNL     1     -10.362  16.408  65.782  1.00  0.00    -0.369 A  
HETATM   18  N   UNL     1     -10.897  17.561  66.122  1.00  0.00    -0.071 NA 
HETATM   19  C   UNL     1      -9.833  18.419  66.285  1.00  0.00    -0.331 A  
HETATM   20  H   UNL     1     -11.888  17.774  66.239  1.00  0.00     0.000 HD 
HETATM   21  C   UNL     1      -9.820  19.775  66.648  1.00  0.00    -0.538 A  
HETATM   22  C   UNL     1      -8.585  20.417  66.813  1.00  0.00    -0.281 A  
HETATM   23  C   UNL     1      -7.387  19.726  66.619  1.00  0.00    -0.269 A  
HETATM   24  C   UNL     1      -7.379  18.381  66.230  1.00  0.00    -0.293 A  
HETATM   25  C   UNL     1      -8.624  17.767  66.062  1.00  0.00    -0.009 A  
HETATM   26  N   UNL     1      -8.996  16.501  65.684  1.00  0.00    -0.391 NA 
ENDBRANCH  15  17
ENDBRANCH  14  15
ENDBRANCH  10  14
ENDBRANCH   6   7
ENDBRANCH   5   6
ENDBRANCH   4   5
ENDBRANCH   3   4
ENDBRANCH   2   3
TORSDOF 8
ENDMDL
MODEL      229
REMARK 921   NORMALIZED FREE ENERGY PREDICTED BY IDOCK:   -3.63 KCAL/MOL
REMARK 922        TOTAL FREE ENERGY PREDICTED BY IDOCK:   -6.20 KCAL/MOL
REMARK 923 INTER-LIGAND FREE ENERGY PREDICTED BY IDOCK:   -5.23 KCAL/MOL
REMARK 924 INTRA-LIGAND FREE ENERGY PREDICTED BY IDOCK:   -0.97 KCAL/MOL
REMARK 927      BINDING AFFINITY PREDICTED BY RF-SCORE:    0.00 PKD
ROOT
HETATM    1  C   UNL     1     -10.763  14.803  66.707  1.00  0.00    -0.309 C  
HETATM    2  O   UNL     1     -12.090  14.343  66.485  1.00  0.00    -0.418 OA 
ENDROOT
BRANCH   2   3
HETATM    3  C   UNL     1     -12.118  13.108  65.772  1.00  0.00    -0.447 C  
BRANCH   3   4
HETATM    4  C   UNL     1     -10.765  12.419  65.906  1.00  0.00    -0.299 C  
BRANCH   4   5
HETATM    5  C   UNL     1     -10.879  11.073  66.620  1.00  0.00    -0.225 C  
BRANCH   5   6
HETATM    6  O   UNL     1      -9.911  10.169  66.064  1.00  0.00    -0.229 OA 
BRANCH   6   7
HETATM    7  C   UNL     1      -9.687   9.030  66.803  1.00  0.00    -0.216 A  
HETATM    8  C   UNL     1      -8.412   8.868  67.381  1.00  0.00    -0.115 A  
HETATM    9  C   UNL     1      -7.321   9.861  67.094  1.00  0.00    -0.091 C  
HETATM   10  C   UNL     1      -8.224   7.784  68.256  1.00  0.00    -0.124 A  
HETATM   11  C   UNL     1     -10.658   8.049  66.983  1.00  0.00    -0.364 A  
HETATM   12  N   UNL     1      -9.200   6.856  68.471  1.00  0.00    -0.130 NA 
HETATM   13  C   UNL     1     -10.366   6.986  67.808  1.00  0.00    -0.202 A  
BRANCH  10  14
HETATM   14  C   UNL     1      -6.988   7.612  69.118  1.00  0.00    -0.068 C  
BRANCH  14  15
HETATM   15  S   UNL     1      -7.160   8.455  70.709  1.00  0.00    -0.055 S  
HETATM   16  O   UNL     1      -7.905   9.754  70.608  1.00  0.00    -0.277 OA 
BRANCH  15  17
HETATM   17  C   UNL     1      -8.221   7.358  71.536  1.00  0.00    -0.104 A  
HETATM   18  N   UNL     1      -9.535   7.426  71.566  1.00  0.00    -0.152 NA 
HETATM   19  C   UNL     1      -9.939   6.295  72.240  1.00  0.00    -0.165 A  
HETATM   20  H   UNL     1     -10.127   8.159  71.175  1.00  0.00     0.000 HD 
HETATM   21  C   UNL     1     -11.233   5.854  72.558  1.00  0.00    -0.341 A  
HETATM   22  C   UNL     1     -11.386   4.619  73.202  1.00  0.00    -0.355 A  
HETATM   23  C   UNL     1     -10.274   3.836  73.524  1.00  0.00    -0.213 A  
HETATM   24  C   UNL     1      -8.974   4.271  73.239  1.00  0.00    -0.107 A  
HETATM   25  C   UNL     1      -8.849   5.512  72.607  1.00  0.00    -0.123 A  
HETATM   26  N   UNL     1      -7.763   6.245  72.198  1.00  0.00    -0.096 NA 
ENDBRANCH  15  17
ENDBRANCH  14  15
ENDBRANCH  10  14
ENDBRANCH   6   7
ENDBRANCH   5   6
ENDBRANCH   4   5
ENDBRANCH   3   4
ENDBRANCH   2   3
TORSDOF 8
ENDMDL
MODEL      230
REMARK 921   NORMALIZED FREE ENERGY PREDICTED BY IDOCK:   -3.60 KCAL/MOL
REMARK 922        TOTAL FREE ENERGY PREDICTED BY IDOCK:   -6.16 KCAL/MOL
REMARK 923 INTER-LIGAND FREE ENERGY PREDICTED BY IDOCK:   -5.36 KCAL/MOL
REMARK 924 INTRA-LIGAND FREE ENERGY PREDICTED BY IDOCK:   -0.80 KCAL/MOL
REMARK 927      BINDING AFFINITY PREDICTED BY RF-SCORE:    0.00 PKD
ROOT
HETATM    1  C   UNL     1      -8.724  16.398  68.497  1.00  0.00    -0.223 C  
HETATM    2  O   UNL     1      -8.424  15.057  68.129  1.00  0.00    -0.143 OA 
ENDROOT
BRANCH   2   3
HETATM    3  C   UNL     1      -9.442  14.147  68.541  1.00  0.00    -0.202 C  
BRANCH   3   4
HETATM    4  C   UNL     1      -9.879  13.308  67.346  1.00  0.00    -0.227 C  
BRANCH   4   5
HETATM    5  C   UNL     1     -11.393  13.101  67.319  1.00  0.00    -0.306 C  
BRANCH   5   6
HETATM    6  O   UNL     1     -11.672  11.694  67.391  1.00  0.00    -0.556 OA 
BRANCH   6   7
HETATM    7  C   UNL     1     -11.781  11.186  68.665  1.00  0.00    -0.320 A  
HETATM    8  C   UNL     1     -11.159   9.951  68.930  1.00  0.00    -0.181 A  
HETATM    9  C   UNL     1     -10.502   9.181  67.818  1.00  0.00    -0.306 C  
HETATM   10  C   UNL     1     -11.140   9.500  70.262  1.00  0.00    -0.271 A  
HETATM   11  C   UNL     1     -12.481  11.840  69.676  1.00  0.00    -0.017 A  
HETATM   12  N   UNL     1     -11.782  10.174  71.258  1.00  0.00    -0.365 NA 
HETATM   13  C   UNL     1     -12.463  11.294  70.939  1.00  0.00    -0.394 A  
BRANCH  10  14
HETATM   14  C   UNL     1     -10.321   8.312  70.729  1.00  0.00    -0.193 C  
BRANCH  14  15
HETATM   15  S   UNL     1     -11.348   6.840  70.955  1.00  0.00    -0.328 S  
HETATM   16  O   UNL     1     -11.760   6.207  69.659  1.00  0.00    -0.331 OA 
BRANCH  15  17
HETATM   17  C   UNL     1     -10.197   5.757  71.673  1.00  0.00    -0.203 A  
HETATM   18  N   UNL     1      -9.290   6.074  72.572  1.00  0.00    -0.142 NA 
HETATM   19  C   UNL     1      -8.694   4.883  72.920  1.00  0.00    -0.117 A  
HETATM   20  H   UNL     1      -9.075   7.004  72.933  1.00  0.00     0.000 HD 
HETATM   21  C   UNL     1      -7.664   4.629  73.839  1.00  0.00    -0.094 A  
HETATM   22  C   UNL     1      -7.273   3.302  74.065  1.00  0.00    -0.047 A  
HETATM   23  C   UNL     1      -7.893   2.248  73.389  1.00  0.00    -0.043 A  
HETATM   24  C   UNL     1      -8.904   2.483  72.449  1.00  0.00    -0.096 A  
HETATM   25  C   UNL     1      -9.267   3.816  72.234  1.00  0.00    -0.117 A  
HETATM   26  N   UNL     1     -10.181   4.410  71.401  1.00  0.00    -0.134 NA 
ENDBRANCH  15  17
ENDBRANCH  14  15
ENDBRANCH  10  14
ENDBRANCH   6   7
ENDBRANCH   5   6
ENDBRANCH   4   5
ENDBRANCH   3   4
ENDBRANCH   2   3
TORSDOF 8
ENDMDL
MODEL      231
REMARK 921   NORMALIZED FREE ENERGY PREDICTED BY IDOCK:   -3.58 KCAL/MOL
REMARK 922        TOTAL FREE ENERGY PREDICTED BY IDOCK:   -6.13 KCAL/MOL
REMARK 923 INTER-LIGAND FREE ENERGY PREDICTED BY IDOCK:   -5.45 KCAL/MOL
REMARK 924 INTRA-LIGAND FREE ENERGY PREDICTED BY IDOCK:   -0.68 KCAL/MOL
REMARK 927      BINDING AFFINITY PREDICTED BY RF-SCORE:    0.00 PKD
ROOT
HETATM    1  C   UNL     1     -12.180  14.564  64.274  1.00  0.00    -0.415 C  
HETATM    2  O   UNL     1     -12.612  13.265  63.887  1.00  0.00    -0.661 OA 
ENDROOT
BRANCH   2   3
HETATM    3  C   UNL     1     -11.863  12.237  64.531  1.00  0.00    -0.369 C  
BRANCH   3   4
HETATM    4  C   UNL     1     -11.020  12.849  65.643  1.00  0.00    -0.297 C  
BRANCH   4   5
HETATM    5  C   UNL     1     -11.424  12.321  67.019  1.00  0.00    -0.354 C  
BRANCH   5   6
HETATM    6  O   UNL     1     -10.355  11.515  67.540  1.00  0.00    -0.188 OA 
BRANCH   6   7
HETATM    7  C   UNL     1     -10.728  10.605  68.502  1.00  0.00    -0.217 A  
HETATM    8  C   UNL     1     -10.674   9.239  68.164  1.00  0.00    -0.205 A  
HETATM    9  C   UNL     1     -10.328   8.821  66.762  1.00  0.00    -0.328 C  
HETATM   10  C   UNL     1     -10.909   8.303  69.186  1.00  0.00    -0.017 A  
HETATM   11  C   UNL     1     -11.156  10.988  69.771  1.00  0.00    -0.303 A  
HETATM   12  N   UNL     1     -11.276   8.686  70.442  1.00  0.00    -0.245 NA 
HETATM   13  C   UNL     1     -11.427  10.002  70.693  1.00  0.00    -0.345 A  
BRANCH  10  14
HETATM   14  C   UNL     1     -10.667   6.814  69.026  1.00  0.00    -0.246 C  
BRANCH  14  15
HETATM   15  S   UNL     1      -8.935   6.383  69.319  1.00  0.00    -0.133 S  
HETATM   16  O   UNL     1      -8.703   5.771  70.670  1.00  0.00    -0.132 OA 
BRANCH  15  17
HETATM   17  C   UNL     1      -8.728   5.099  68.170  1.00  0.00    -0.102 A  
HETATM   18  N   UNL     1      -8.926   3.817  68.396  1.00  0.00    -0.114 NA 
HETATM   19  C   UNL     1      -8.749   3.204  67.176  1.00  0.00    -0.123 A  
HETATM   20  H   UNL     1      -9.159   3.374  69.285  1.00  0.00     0.000 HD 
HETATM   21  C   UNL     1      -8.842   1.846  66.833  1.00  0.00    -0.142 A  
HETATM   22  C   UNL     1      -8.680   1.478  65.490  1.00  0.00    -0.114 A  
HETATM   23  C   UNL     1      -8.428   2.440  64.508  1.00  0.00    -0.089 A  
HETATM   24  C   UNL     1      -8.305   3.796  64.836  1.00  0.00    -0.100 A  
HETATM   25  C   UNL     1      -8.460   4.135  66.183  1.00  0.00    -0.109 A  
HETATM   26  N   UNL     1      -8.393   5.328  66.858  1.00  0.00    -0.108 NA 
ENDBRANCH  15  17
ENDBRANCH  14  15
ENDBRANCH  10  14
ENDBRANCH   6   7
ENDBRANCH   5   6
ENDBRANCH   4   5
ENDBRANCH   3   4
ENDBRANCH   2   3
TORSDOF 8
ENDMDL
MODEL      232
REMARK 921   NORMALIZED FREE ENERGY PREDICTED BY IDOCK:   -3.56 KCAL/MOL
REMARK 922        TOTAL FREE ENERGY PREDICTED BY IDOCK:   -6.10 KCAL/MOL
REMARK 923 INTER-LIGAND FREE ENERGY PREDICTED BY IDOCK:   -5.45 KCAL/MOL
REMARK 924 INTRA-LIGAND FREE ENERGY PREDICTED BY IDOCK:   -0.65 KCAL/MOL
REMARK 927      BINDING AFFINITY PREDICTED BY RF-SCORE:    0.00 PKD
ROOT
HETATM    1  C   UNL     1      -9.163   9.396  70.313  1.00  0.00    -0.245 C  
HETATM    2  O   UNL     1      -7.959   9.557  71.053  1.00  0.00    -0.321 OA 
ENDROOT
BRANCH   2   3
HETATM    3  C   UNL     1      -6.867   9.948  70.223  1.00  0.00    -0.138 C  
BRANCH   3   4
HETATM    4  C   UNL     1      -7.333  11.027  69.253  1.00  0.00    -0.113 C  
BRANCH   4   5
HETATM    5  C   UNL     1      -6.508  11.031  67.966  1.00  0.00    -0.057 C  
BRANCH   5   6
HETATM    6  O   UNL     1      -7.386  11.253  66.852  1.00  0.00    -0.131 OA 
BRANCH   6   7
HETATM    7  C   UNL     1      -8.435  10.368  66.750  1.00  0.00    -0.125 A  
HETATM    8  C   UNL     1      -8.135   9.040  66.392  1.00  0.00    -0.110 A  
HETATM    9  C   UNL     1      -6.728   8.654  66.029  1.00  0.00    -0.061 C  
HETATM   10  C   UNL     1      -9.180   8.100  66.432  1.00  0.00    -0.199 A  
HETATM   11  C   UNL     1      -9.757  10.743  66.977  1.00  0.00    -0.205 A  
HETATM   12  N   UNL     1     -10.464   8.464  66.709  1.00  0.00    -0.298 NA 
HETATM   13  C   UNL     1     -10.727   9.767  66.934  1.00  0.00    -0.122 A  
BRANCH  10  14
HETATM   14  C   UNL     1      -8.963   6.605  66.291  1.00  0.00    -0.152 C  
BRANCH  14  15
HETATM   15  S   UNL     1     -10.498   5.681  66.538  1.00  0.00    -0.218 S  
HETATM   16  O   UNL     1     -10.381   4.234  66.157  1.00  0.00    -0.202 OA 
BRANCH  15  17
HETATM   17  C   UNL     1     -10.613   5.712  68.270  1.00  0.00    -0.181 A  
HETATM   18  N   UNL     1     -11.416   6.475  68.980  1.00  0.00    -0.615 NA 
HETATM   19  C   UNL     1     -11.236   6.073  70.285  1.00  0.00    -0.322 A  
HETATM   20  H   UNL     1     -12.037   7.208  68.637  1.00  0.00     0.000 HD 
HETATM   21  C   UNL     1     -11.841   6.543  71.460  1.00  0.00    -0.386 A  
HETATM   22  C   UNL     1     -11.534   5.916  72.675  1.00  0.00    -0.319 A  
HETATM   23  C   UNL     1     -10.640   4.842  72.721  1.00  0.00    -0.273 A  
HETATM   24  C   UNL     1     -10.005   4.377  71.563  1.00  0.00    -0.250 A  
HETATM   25  C   UNL     1     -10.321   5.028  70.366  1.00  0.00    -0.227 A  
HETATM   26  N   UNL     1      -9.895   4.859  69.073  1.00  0.00    -0.178 NA 
ENDBRANCH  15  17
ENDBRANCH  14  15
ENDBRANCH  10  14
ENDBRANCH   6   7
ENDBRANCH   5   6
ENDBRANCH   4   5
ENDBRANCH   3   4
ENDBRANCH   2   3
TORSDOF 8
ENDMDL
MODEL      233
REMARK 921   NORMALIZED FREE ENERGY PREDICTED BY IDOCK:   -3.54 KCAL/MOL
REMARK 922        TOTAL FREE ENERGY PREDICTED BY IDOCK:   -6.07 KCAL/MOL
REMARK 923 INTER-LIGAND FREE ENERGY PREDICTED BY IDOCK:   -5.24 KCAL/MOL
REMARK 924 INTRA-LIGAND FREE ENERGY PREDICTED BY IDOCK:   -0.83 KCAL/MOL
REMARK 927      BINDING AFFINITY PREDICTED BY RF-SCORE:    0.00 PKD
ROOT
HETATM    1  C   UNL     1     -14.032   9.131  72.256  1.00  0.00    -0.420 C  
HETATM    2  O   UNL     1     -14.371   7.954  71.534  1.00  0.00    -0.429 OA 
ENDROOT
BRANCH   2   3
HETATM    3  C   UNL     1     -13.326   6.984  71.568  1.00  0.00    -0.294 C  
BRANCH   3   4
HETATM    4  C   UNL     1     -12.097   7.591  72.232  1.00  0.00    -0.269 C  
BRANCH   4   5
HETATM    5  C   UNL     1     -10.982   6.562  72.416  1.00  0.00    -0.246 C  
BRANCH   5   6
HETATM    6  O   UNL     1     -10.472   6.193  71.125  1.00  0.00    -0.214 OA 
BRANCH   6   7
HETATM    7  C   UNL     1      -9.157   6.530  70.900  1.00  0.00    -0.154 A  
HETATM    8  C   UNL     1      -8.900   7.744  70.233  1.00  0.00    -0.144 A  
HETATM    9  C   UNL     1     -10.037   8.568  69.696  1.00  0.00    -0.202 C  
HETATM   10  C   UNL     1      -7.562   8.163  70.132  1.00  0.00    -0.077 A  
HETATM   11  C   UNL     1      -8.097   5.719  71.296  1.00  0.00    -0.114 A  
HETATM   12  N   UNL     1      -6.530   7.388  70.572  1.00  0.00    -0.038 NA 
HETATM   13  C   UNL     1      -6.815   6.181  71.101  1.00  0.00    -0.067 A  
BRANCH  10  14
HETATM   14  C   UNL     1      -7.154   9.541  69.645  1.00  0.00    -0.072 C  
BRANCH  14  15
HETATM   15  S   UNL     1      -7.097   9.621  67.839  1.00  0.00    -0.080 S  
HETATM   16  O   UNL     1      -7.495   8.333  67.181  1.00  0.00    -0.087 OA 
BRANCH  15  17
HETATM   17  C   UNL     1      -8.391  10.737  67.530  1.00  0.00    -0.115 A  
HETATM   18  N   UNL     1      -9.331  10.599  66.620  1.00  0.00    -0.163 NA 
HETATM   19  C   UNL     1     -10.186  11.660  66.821  1.00  0.00    -0.217 A  
HETATM   20  H   UNL     1      -9.409   9.865  65.916  1.00  0.00     0.000 HD 
HETATM   21  C   UNL     1     -11.361  12.007  66.137  1.00  0.00    -0.407 A  
HETATM   22  C   UNL     1     -12.099  13.112  66.582  1.00  0.00    -0.409 A  
HETATM   23  C   UNL     1     -11.675  13.860  67.684  1.00  0.00    -0.403 A  
HETATM   24  C   UNL     1     -10.491  13.546  68.362  1.00  0.00    -0.252 A  
HETATM   25  C   UNL     1      -9.768  12.445  67.891  1.00  0.00    -0.204 A  
HETATM   26  N   UNL     1      -8.588  11.867  68.285  1.00  0.00    -0.160 NA 
ENDBRANCH  15  17
ENDBRANCH  14  15
ENDBRANCH  10  14
ENDBRANCH   6   7
ENDBRANCH   5   6
ENDBRANCH   4   5
ENDBRANCH   3   4
ENDBRANCH   2   3
TORSDOF 8
ENDMDL
MODEL      234
REMARK 921   NORMALIZED FREE ENERGY PREDICTED BY IDOCK:   -3.52 KCAL/MOL
REMARK 922        TOTAL FREE ENERGY PREDICTED BY IDOCK:   -6.04 KCAL/MOL
REMARK 923 INTER-LIGAND FREE ENERGY PREDICTED BY IDOCK:   -5.25 KCAL/MOL
REMARK 924 INTRA-LIGAND FREE ENERGY PREDICTED BY IDOCK:   -0.79 KCAL/MOL
REMARK 927      BINDING AFFINITY PREDICTED BY RF-SCORE:    0.00 PKD
ROOT
HETATM    1  C   UNL     1      -6.664   5.547  66.612  1.00  0.00    -0.058 C  
HETATM    2  O   UNL     1      -7.997   5.302  67.042  1.00  0.00    -0.100 OA 
ENDROOT
BRANCH   2   3
HETATM    3  C   UNL     1      -8.957   5.951  66.212  1.00  0.00    -0.148 C  
BRANCH   3   4
HETATM    4  C   UNL     1      -8.958   7.445  66.518  1.00  0.00    -0.184 C  
BRANCH   4   5
HETATM    5  C   UNL     1      -8.784   8.284  65.253  1.00  0.00    -0.086 C  
BRANCH   5   6
HETATM    6  O   UNL     1      -8.175   9.536  65.606  1.00  0.00    -0.115 OA 
BRANCH   6   7
HETATM    7  C   UNL     1      -9.055  10.567  65.839  1.00  0.00    -0.168 A  
HETATM    8  C   UNL     1      -8.877  11.325  67.013  1.00  0.00    -0.153 A  
HETATM    9  C   UNL     1      -7.828  10.931  68.015  1.00  0.00    -0.107 C  
HETATM   10  C   UNL     1      -9.679  12.468  67.182  1.00  0.00    -0.205 A  
HETATM   11  C   UNL     1     -10.100  10.872  64.970  1.00  0.00    -0.362 A  
HETATM   12  N   UNL     1     -10.665  12.791  66.298  1.00  0.00    -0.267 NA 
HETATM   13  C   UNL     1     -10.877  11.974  65.246  1.00  0.00    -0.294 A  
BRANCH  10  14
HETATM   14  C   UNL     1      -9.449  13.494  68.274  1.00  0.00    -0.212 C  
BRANCH  14  15
HETATM   15  S   UNL     1     -10.674  14.824  68.211  1.00  0.00    -0.249 S  
HETATM   16  O   UNL     1     -11.437  14.981  69.494  1.00  0.00    -0.259 OA 
BRANCH  15  17
HETATM   17  C   UNL     1      -9.634  16.209  68.100  1.00  0.00    -0.217 A  
HETATM   18  N   UNL     1      -8.900  16.707  69.072  1.00  0.00    -0.239 NA 
HETATM   19  C   UNL     1      -8.168  17.718  68.491  1.00  0.00    -0.296 A  
HETATM   20  H   UNL     1      -8.877  16.407  70.047  1.00  0.00     0.000 HD 
HETATM   21  C   UNL     1      -7.222  18.583  69.061  1.00  0.00    -0.262 A  
HETATM   22  C   UNL     1      -6.558  19.498  68.232  1.00  0.00    -0.296 A  
HETATM   23  C   UNL     1      -6.832  19.554  66.863  1.00  0.00    -0.209 A  
HETATM   24  C   UNL     1      -7.793  18.718  66.281  1.00  0.00    -0.295 A  
HETATM   25  C   UNL     1      -8.448  17.823  67.132  1.00  0.00    -0.228 A  
HETATM   26  N   UNL     1      -9.430  16.888  66.923  1.00  0.00    -0.242 NA 
ENDBRANCH  15  17
ENDBRANCH  14  15
ENDBRANCH  10  14
ENDBRANCH   6   7
ENDBRANCH   5   6
ENDBRANCH   4   5
ENDBRANCH   3   4
ENDBRANCH   2   3
TORSDOF 8
ENDMDL
MODEL      235
REMARK 921   NORMALIZED FREE ENERGY PREDICTED BY IDOCK:   -3.50 KCAL/MOL
REMARK 922        TOTAL FREE ENERGY PREDICTED BY IDOCK:   -6.02 KCAL/MOL
REMARK 923 INTER-LIGAND FREE ENERGY PREDICTED BY IDOCK:   -5.75 KCAL/MOL
REMARK 924 INTRA-LIGAND FREE ENERGY PREDICTED BY IDOCK:   -0.26 KCAL/MOL
REMARK 927      BINDING AFFINITY PREDICTED BY RF-SCORE:    0.00 PKD
ROOT
HETATM    1  C   UNL     1     -12.350  14.280  63.843  1.00  0.00    -0.133 C  
HETATM    2  O   UNL     1     -12.661  13.024  64.434  1.00  0.00    -0.652 OA 
ENDROOT
BRANCH   2   3
HETATM    3  C   UNL     1     -12.419  11.937  63.543  1.00  0.00    -0.492 C  
BRANCH   3   4
HETATM    4  C   UNL     1     -10.918  11.797  63.317  1.00  0.00    -0.387 C  
BRANCH   4   5
HETATM    5  C   UNL     1     -10.151  11.698  64.635  1.00  0.00    -0.262 C  
BRANCH   5   6
HETATM    6  O   UNL     1     -10.071  10.318  65.023  1.00  0.00    -0.323 OA 
BRANCH   6   7
HETATM    7  C   UNL     1      -9.929  10.100  66.375  1.00  0.00    -0.234 A  
HETATM    8  C   UNL     1      -8.628   9.889  66.869  1.00  0.00    -0.131 A  
HETATM    9  C   UNL     1      -7.465   9.799  65.921  1.00  0.00    -0.103 C  
HETATM   10  C   UNL     1      -8.462   9.814  68.263  1.00  0.00    -0.114 A  
HETATM   11  C   UNL     1     -11.014  10.072  67.247  1.00  0.00    -0.225 A  
HETATM   12  N   UNL     1      -9.525   9.843  69.116  1.00  0.00    -0.184 NA 
HETATM   13  C   UNL     1     -10.765   9.931  68.594  1.00  0.00    -0.226 A  
BRANCH  10  14
HETATM   14  C   UNL     1      -7.106   9.815  68.943  1.00  0.00    -0.067 C  
BRANCH  14  15
HETATM   15  S   UNL     1      -6.446  11.491  69.117  1.00  0.00    -0.102 S  
HETATM   16  O   UNL     1      -5.269  11.754  68.224  1.00  0.00    -0.043 OA 
BRANCH  15  17
HETATM   17  C   UNL     1      -7.760  12.419  68.465  1.00  0.00    -0.120 A  
HETATM   18  N   UNL     1      -8.905  12.668  69.063  1.00  0.00    -0.210 NA 
HETATM   19  C   UNL     1      -9.575  13.524  68.219  1.00  0.00    -0.218 A  
HETATM   20  H   UNL     1      -9.227  12.304  69.960  1.00  0.00     0.000 HD 
HETATM   21  C   UNL     1     -10.841  14.114  68.358  1.00  0.00    -0.266 A  
HETATM   22  C   UNL     1     -11.277  15.015  67.376  1.00  0.00    -0.337 A  
HETATM   23  C   UNL     1     -10.472  15.321  66.277  1.00  0.00    -0.313 A  
HETATM   24  C   UNL     1      -9.218  14.722  66.106  1.00  0.00    -0.237 A  
HETATM   25  C   UNL     1      -8.811  13.820  67.094  1.00  0.00    -0.231 A  
HETATM   26  N   UNL     1      -7.684  13.053  67.249  1.00  0.00    -0.142 NA 
ENDBRANCH  15  17
ENDBRANCH  14  15
ENDBRANCH  10  14
ENDBRANCH   6   7
ENDBRANCH   5   6
ENDBRANCH   4   5
ENDBRANCH   3   4
ENDBRANCH   2   3
TORSDOF 8
ENDMDL
MODEL      236
REMARK 921   NORMALIZED FREE ENERGY PREDICTED BY IDOCK:   -3.44 KCAL/MOL
REMARK 922        TOTAL FREE ENERGY PREDICTED BY IDOCK:   -5.92 KCAL/MOL
REMARK 923 INTER-LIGAND FREE ENERGY PREDICTED BY IDOCK:   -5.17 KCAL/MOL
REMARK 924 INTRA-LIGAND FREE ENERGY PREDICTED BY IDOCK:   -0.75 KCAL/MOL
REMARK 927      BINDING AFFINITY PREDICTED BY RF-SCORE:    0.00 PKD
ROOT
HETATM    1  C   UNL     1     -14.306  15.057  71.847  1.00  0.00    -0.584 C  
HETATM    2  O   UNL     1     -13.306  15.849  71.218  1.00  0.00    -0.507 OA 
ENDROOT
BRANCH   2   3
HETATM    3  C   UNL     1     -12.021  15.232  71.270  1.00  0.00    -0.353 C  
BRANCH   3   4
HETATM    4  C   UNL     1     -12.046  13.949  70.447  1.00  0.00    -0.421 C  
BRANCH   4   5
HETATM    5  C   UNL     1     -12.129  14.235  68.948  1.00  0.00    -0.279 C  
BRANCH   5   6
HETATM    6  O   UNL     1     -11.907  13.012  68.229  1.00  0.00    -0.334 OA 
BRANCH   6   7
HETATM    7  C   UNL     1     -10.587  12.716  67.976  1.00  0.00    -0.221 A  
HETATM    8  C   UNL     1     -10.136  11.421  68.297  1.00  0.00    -0.204 A  
HETATM    9  C   UNL     1     -11.052  10.452  68.992  1.00  0.00    -0.297 C  
HETATM   10  C   UNL     1      -8.833  11.067  67.905  1.00  0.00    -0.134 A  
HETATM   11  C   UNL     1      -9.701  13.643  67.433  1.00  0.00    -0.228 A  
HETATM   12  N   UNL     1      -7.988  11.965  67.324  1.00  0.00    -0.163 NA 
HETATM   13  C   UNL     1      -8.422  13.228  67.139  1.00  0.00    -0.176 A  
BRANCH  10  14
HETATM   14  C   UNL     1      -8.295   9.651  67.981  1.00  0.00    -0.117 C  
BRANCH  14  15
HETATM   15  S   UNL     1      -8.132   8.909  66.340  1.00  0.00    -0.112 S  
HETATM   16  O   UNL     1      -6.829   9.241  65.672  1.00  0.00    -0.072 OA 
BRANCH  15  17
HETATM   17  C   UNL     1      -8.039   7.227  66.759  1.00  0.00    -0.119 A  
HETATM   18  N   UNL     1      -7.362   6.715  67.763  1.00  0.00    -0.094 NA 
HETATM   19  C   UNL     1      -7.676   5.374  67.766  1.00  0.00    -0.092 A  
HETATM   20  H   UNL     1      -6.736   7.205  68.403  1.00  0.00     0.000 HD 
HETATM   21  C   UNL     1      -7.241   4.351  68.622  1.00  0.00    -0.056 A  
HETATM   22  C   UNL     1      -7.766   3.062  68.455  1.00  0.00    -0.055 A  
HETATM   23  C   UNL     1      -8.704   2.795  67.455  1.00  0.00    -0.139 A  
HETATM   24  C   UNL     1      -9.130   3.796  66.573  1.00  0.00    -0.162 A  
HETATM   25  C   UNL     1      -8.583   5.070  66.754  1.00  0.00    -0.109 A  
HETATM   26  N   UNL     1      -8.749   6.259  66.091  1.00  0.00    -0.142 NA 
ENDBRANCH  15  17
ENDBRANCH  14  15
ENDBRANCH  10  14
ENDBRANCH   6   7
ENDBRANCH   5   6
ENDBRANCH   4   5
ENDBRANCH   3   4
ENDBRANCH   2   3
TORSDOF 8
ENDMDL
MODEL      237
REMARK 921   NORMALIZED FREE ENERGY PREDICTED BY IDOCK:   -3.43 KCAL/MOL
REMARK 922        TOTAL FREE ENERGY PREDICTED BY IDOCK:   -5.91 KCAL/MOL
REMARK 923 INTER-LIGAND FREE ENERGY PREDICTED BY IDOCK:   -6.09 KCAL/MOL
REMARK 924 INTRA-LIGAND FREE ENERGY PREDICTED BY IDOCK:    0.19 KCAL/MOL
REMARK 927      BINDING AFFINITY PREDICTED BY RF-SCORE:    0.00 PKD
ROOT
HETATM    1  C   UNL     1     -14.311  14.885  71.761  1.00  0.00    -0.578 C  
HETATM    2  O   UNL     1     -13.218  14.873  70.851  1.00  0.00    -0.375 OA 
ENDROOT
BRANCH   2   3
HETATM    3  C   UNL     1     -12.128  14.089  71.332  1.00  0.00    -0.168 C  
BRANCH   3   4
HETATM    4  C   UNL     1     -12.580  12.641  71.486  1.00  0.00    -0.256 C  
BRANCH   4   5
HETATM    5  C   UNL     1     -12.104  11.770  70.324  1.00  0.00    -0.342 C  
BRANCH   5   6
HETATM    6  O   UNL     1     -11.151  12.512  69.546  1.00  0.00    -0.144 OA 
BRANCH   6   7
HETATM    7  C   UNL     1     -11.206  12.288  68.190  1.00  0.00    -0.269 A  
HETATM    8  C   UNL     1     -11.904  13.224  67.402  1.00  0.00    -0.413 A  
HETATM    9  C   UNL     1     -12.648  14.356  68.055  1.00  0.00     0.509 C  
HETATM   10  C   UNL     1     -11.838  13.082  66.005  1.00  0.00    -0.417 A  
HETATM   11  C   UNL     1     -10.612  11.182  67.588  1.00  0.00    -0.250 A  
HETATM   12  N   UNL     1     -11.207  12.024  65.419  1.00  0.00    -0.325 NA 
HETATM   13  C   UNL     1     -10.650  11.089  66.214  1.00  0.00    -0.237 A  
BRANCH  10  14
HETATM   14  C   UNL     1     -12.347  14.131  65.035  1.00  0.00    -0.440 C  
BRANCH  14  15
HETATM   15  S   UNL     1     -11.029  15.255  64.514  1.00  0.00    -0.053 S  
HETATM   16  O   UNL     1     -11.480  16.683  64.415  1.00  0.00    -0.959 OA 
BRANCH  15  17
HETATM   17  C   UNL     1      -9.982  15.179  65.897  1.00  0.00    -0.328 A  
HETATM   18  N   UNL     1     -10.067  15.928  66.975  1.00  0.00    -0.262 NA 
HETATM   19  C   UNL     1      -9.109  15.436  67.833  1.00  0.00    -0.178 A  
HETATM   20  H   UNL     1     -10.706  16.706  67.140  1.00  0.00     0.000 HD 
HETATM   21  C   UNL     1      -8.763  15.854  69.128  1.00  0.00    -0.256 A  
HETATM   22  C   UNL     1      -7.784  15.138  69.829  1.00  0.00    -0.066 A  
HETATM   23  C   UNL     1      -7.159  14.028  69.254  1.00  0.00    -0.054 A  
HETATM   24  C   UNL     1      -7.471  13.612  67.954  1.00  0.00    -0.158 A  
HETATM   25  C   UNL     1      -8.443  14.350  67.272  1.00  0.00    -0.212 A  
HETATM   26  N   UNL     1      -8.979  14.248  66.014  1.00  0.00     0.135 NA 
ENDBRANCH  15  17
ENDBRANCH  14  15
ENDBRANCH  10  14
ENDBRANCH   6   7
ENDBRANCH   5   6
ENDBRANCH   4   5
ENDBRANCH   3   4
ENDBRANCH   2   3
TORSDOF 8
ENDMDL
MODEL      238
REMARK 921   NORMALIZED FREE ENERGY PREDICTED BY IDOCK:   -3.42 KCAL/MOL
REMARK 922        TOTAL FREE ENERGY PREDICTED BY IDOCK:   -5.89 KCAL/MOL
REMARK 923 INTER-LIGAND FREE ENERGY PREDICTED BY IDOCK:   -5.24 KCAL/MOL
REMARK 924 INTRA-LIGAND FREE ENERGY PREDICTED BY IDOCK:   -0.64 KCAL/MOL
REMARK 927      BINDING AFFINITY PREDICTED BY RF-SCORE:    0.00 PKD
ROOT
HETATM    1  C   UNL     1      -9.212  19.794  67.889  1.00  0.00    -0.340 C  
HETATM    2  O   UNL     1     -10.356  19.048  67.489  1.00  0.00    -0.369 OA 
ENDROOT
BRANCH   2   3
HETATM    3  C   UNL     1     -10.304  18.683  66.112  1.00  0.00    -0.443 C  
BRANCH   3   4
HETATM    4  C   UNL     1     -10.866  17.276  65.943  1.00  0.00    -0.003 C  
BRANCH   4   5
HETATM    5  C   UNL     1      -9.770  16.213  66.012  1.00  0.00    -0.344 C  
BRANCH   5   6
HETATM    6  O   UNL     1     -10.077  15.298  67.076  1.00  0.00    -0.243 OA 
BRANCH   6   7
HETATM    7  C   UNL     1      -9.940  13.967  66.757  1.00  0.00    -0.268 A  
HETATM    8  C   UNL     1      -9.255  13.144  67.672  1.00  0.00    -0.207 A  
HETATM    9  C   UNL     1      -8.608  13.743  68.890  1.00  0.00     0.138 C  
HETATM   10  C   UNL     1      -9.241  11.760  67.424  1.00  0.00    -0.174 A  
HETATM   11  C   UNL     1     -10.441  13.423  65.577  1.00  0.00    -0.297 A  
HETATM   12  N   UNL     1      -9.782  11.228  66.291  1.00  0.00    -0.209 NA 
HETATM   13  C   UNL     1     -10.328  12.064  65.386  1.00  0.00    -0.266 A  
BRANCH  10  14
HETATM   14  C   UNL     1      -8.741  10.738  68.426  1.00  0.00    -0.142 C  
BRANCH  14  15
HETATM   15  S   UNL     1     -10.102   9.987  69.351  1.00  0.00    -0.232 S  
HETATM   16  O   UNL     1     -10.786   8.883  68.597  1.00  0.00    -0.178 OA 
BRANCH  15  17
HETATM   17  C   UNL     1      -9.227   9.217  70.637  1.00  0.00    -0.258 A  
HETATM   18  N   UNL     1      -7.921   9.221  70.796  1.00  0.00    -0.194 NA 
HETATM   19  C   UNL     1      -7.702   8.588  71.999  1.00  0.00    -0.096 A  
HETATM   20  H   UNL     1      -7.221   9.609  70.163  1.00  0.00     0.000 HD 
HETATM   21  C   UNL     1      -6.496   8.316  72.663  1.00  0.00    -0.091 A  
HETATM   22  C   UNL     1      -6.543   7.709  73.925  1.00  0.00    -0.091 A  
HETATM   23  C   UNL     1      -7.765   7.377  74.516  1.00  0.00    -0.175 A  
HETATM   24  C   UNL     1      -8.978   7.615  73.857  1.00  0.00    -0.321 A  
HETATM   25  C   UNL     1      -8.902   8.211  72.594  1.00  0.00    -0.219 A  
HETATM   26  N   UNL     1      -9.854   8.571  71.674  1.00  0.00    -0.220 NA 
ENDBRANCH  15  17
ENDBRANCH  14  15
ENDBRANCH  10  14
ENDBRANCH   6   7
ENDBRANCH   5   6
ENDBRANCH   4   5
ENDBRANCH   3   4
ENDBRANCH   2   3
TORSDOF 8
ENDMDL
MODEL      239
REMARK 921   NORMALIZED FREE ENERGY PREDICTED BY IDOCK:   -3.41 KCAL/MOL
REMARK 922        TOTAL FREE ENERGY PREDICTED BY IDOCK:   -5.88 KCAL/MOL
REMARK 923 INTER-LIGAND FREE ENERGY PREDICTED BY IDOCK:   -5.28 KCAL/MOL
REMARK 924 INTRA-LIGAND FREE ENERGY PREDICTED BY IDOCK:   -0.60 KCAL/MOL
REMARK 927      BINDING AFFINITY PREDICTED BY RF-SCORE:    0.00 PKD
ROOT
HETATM    1  C   UNL     1      -9.645   5.255  70.410  1.00  0.00    -0.179 C  
HETATM    2  O   UNL     1      -9.787   4.394  69.287  1.00  0.00    -0.194 OA 
ENDROOT
BRANCH   2   3
HETATM    3  C   UNL     1      -8.667   3.524  69.133  1.00  0.00    -0.089 C  
BRANCH   3   4
HETATM    4  C   UNL     1      -7.390   4.354  69.068  1.00  0.00    -0.055 C  
BRANCH   4   5
HETATM    5  C   UNL     1      -7.503   5.493  68.055  1.00  0.00    -0.074 C  
BRANCH   5   6
HETATM    6  O   UNL     1      -6.586   6.535  68.423  1.00  0.00    -0.053 OA 
BRANCH   6   7
HETATM    7  C   UNL     1      -7.174   7.716  68.815  1.00  0.00    -0.082 A  
HETATM    8  C   UNL     1      -7.311   8.729  67.845  1.00  0.00    -0.088 A  
HETATM    9  C   UNL     1      -6.727   8.545  66.472  1.00  0.00    -0.067 C  
HETATM   10  C   UNL     1      -8.041   9.878  68.198  1.00  0.00    -0.104 A  
HETATM   11  C   UNL     1      -7.619   7.938  70.115  1.00  0.00    -0.083 A  
HETATM   12  N   UNL     1      -8.522  10.064  69.461  1.00  0.00    -0.164 NA 
HETATM   13  C   UNL     1      -8.270   9.120  70.389  1.00  0.00    -0.171 A  
BRANCH  10  14
HETATM   14  C   UNL     1      -8.458  10.941  67.200  1.00  0.00    -0.128 C  
BRANCH  14  15
HETATM   15  S   UNL     1     -10.111  10.624  66.538  1.00  0.00    -0.229 S  
HETATM   16  O   UNL     1     -10.347   9.177  66.213  1.00  0.00    -0.244 OA 
BRANCH  15  17
HETATM   17  C   UNL     1     -11.084  10.966  67.934  1.00  0.00    -0.302 A  
HETATM   18  N   UNL     1     -11.665  10.076  68.710  1.00  0.00    -0.509 NA 
HETATM   19  C   UNL     1     -12.224  10.803  69.737  1.00  0.00    -0.288 A  
HETATM   20  H   UNL     1     -11.696   9.065  68.578  1.00  0.00     0.000 HD 
HETATM   21  C   UNL     1     -12.960  10.366  70.849  1.00  0.00    -0.475 A  
HETATM   22  C   UNL     1     -13.369  11.310  71.801  1.00  0.00    -0.371 A  
HETATM   23  C   UNL     1     -13.053  12.662  71.650  1.00  0.00    -0.421 A  
HETATM   24  C   UNL     1     -12.343  13.122  70.534  1.00  0.00    -0.380 A  
HETATM   25  C   UNL     1     -11.957  12.161  69.594  1.00  0.00    -0.284 A  
HETATM   26  N   UNL     1     -11.280  12.242  68.403  1.00  0.00    -0.243 NA 
ENDBRANCH  15  17
ENDBRANCH  14  15
ENDBRANCH  10  14
ENDBRANCH   6   7
ENDBRANCH   5   6
ENDBRANCH   4   5
ENDBRANCH   3   4
ENDBRANCH   2   3
TORSDOF 8
ENDMDL
MODEL      240
REMARK 921   NORMALIZED FREE ENERGY PREDICTED BY IDOCK:   -3.40 KCAL/MOL
REMARK 922        TOTAL FREE ENERGY PREDICTED BY IDOCK:   -5.86 KCAL/MOL
REMARK 923 INTER-LIGAND FREE ENERGY PREDICTED BY IDOCK:   -5.01 KCAL/MOL
REMARK 924 INTRA-LIGAND FREE ENERGY PREDICTED BY IDOCK:   -0.85 KCAL/MOL
REMARK 927      BINDING AFFINITY PREDICTED BY RF-SCORE:    0.00 PKD
ROOT
HETATM    1  C   UNL     1      -8.729  16.393  68.489  1.00  0.00    -0.223 C  
HETATM    2  O   UNL     1      -8.377  15.078  68.080  1.00  0.00    -0.141 OA 
ENDROOT
BRANCH   2   3
HETATM    3  C   UNL     1      -9.360  14.116  68.458  1.00  0.00    -0.191 C  
BRANCH   3   4
HETATM    4  C   UNL     1      -9.760  13.298  67.236  1.00  0.00    -0.231 C  
BRANCH   4   5
HETATM    5  C   UNL     1     -11.256  12.986  67.225  1.00  0.00    -0.289 C  
BRANCH   5   6
HETATM    6  O   UNL     1     -11.434  11.561  67.222  1.00  0.00    -0.422 OA 
BRANCH   6   7
HETATM    7  C   UNL     1     -11.469  10.975  68.466  1.00  0.00    -0.309 A  
HETATM    8  C   UNL     1     -10.720   9.797  68.654  1.00  0.00    -0.247 A  
HETATM    9  C   UNL     1     -10.009   9.160  67.493  1.00  0.00    -0.258 C  
HETATM   10  C   UNL     1     -10.634   9.278  69.958  1.00  0.00    -0.228 A  
HETATM   11  C   UNL     1     -12.215  11.497  69.520  1.00  0.00    -0.287 A  
HETATM   12  N   UNL     1     -11.324   9.827  70.998  1.00  0.00    -0.359 NA 
HETATM   13  C   UNL     1     -12.120  10.887  70.750  1.00  0.00    -0.368 A  
BRANCH  10  14
HETATM   14  C   UNL     1      -9.691   8.156  70.348  1.00  0.00    -0.178 C  
BRANCH  14  15
HETATM   15  S   UNL     1     -10.558   6.576  70.498  1.00  0.00    -0.249 S  
HETATM   16  O   UNL     1     -11.613   6.383  69.447  1.00  0.00    -0.382 OA 
BRANCH  15  17
HETATM   17  C   UNL     1      -9.279   5.472  70.101  1.00  0.00    -0.141 A  
HETATM   18  N   UNL     1      -8.024   5.572  70.481  1.00  0.00    -0.100 NA 
HETATM   19  C   UNL     1      -7.416   4.424  70.026  1.00  0.00    -0.050 A  
HETATM   20  H   UNL     1      -7.593   6.337  71.001  1.00  0.00     0.000 HD 
HETATM   21  C   UNL     1      -6.083   4.003  70.152  1.00  0.00    -0.019 A  
HETATM   22  C   UNL     1      -5.722   2.745  69.651  1.00  0.00    -0.018 A  
HETATM   23  C   UNL     1      -6.668   1.920  69.036  1.00  0.00    -0.029 A  
HETATM   24  C   UNL     1      -7.996   2.333  68.877  1.00  0.00    -0.062 A  
HETATM   25  C   UNL     1      -8.327   3.598  69.375  1.00  0.00    -0.059 A  
HETATM   26  N   UNL     1      -9.494   4.319  69.385  1.00  0.00    -0.171 NA 
ENDBRANCH  15  17
ENDBRANCH  14  15
ENDBRANCH  10  14
ENDBRANCH   6   7
ENDBRANCH   5   6
ENDBRANCH   4   5
ENDBRANCH   3   4
ENDBRANCH   2   3
TORSDOF 8
ENDMDL
MODEL      241
REMARK 921   NORMALIZED FREE ENERGY PREDICTED BY IDOCK:   -3.38 KCAL/MOL
REMARK 922        TOTAL FREE ENERGY PREDICTED BY IDOCK:   -5.84 KCAL/MOL
REMARK 923 INTER-LIGAND FREE ENERGY PREDICTED BY IDOCK:   -5.13 KCAL/MOL
REMARK 924 INTRA-LIGAND FREE ENERGY PREDICTED BY IDOCK:   -0.71 KCAL/MOL
REMARK 927      BINDING AFFINITY PREDICTED BY RF-SCORE:    0.00 PKD
ROOT
HETATM    1  C   UNL     1      -5.794  14.905  68.512  1.00  0.00    -0.097 C  
HETATM    2  O   UNL     1      -6.377  14.348  67.341  1.00  0.00    -0.323 OA 
ENDROOT
BRANCH   2   3
HETATM    3  C   UNL     1      -7.781  14.143  67.486  1.00  0.00    -0.185 C  
BRANCH   3   4
HETATM    4  C   UNL     1      -8.522  14.996  66.464  1.00  0.00    -0.093 C  
BRANCH   4   5
HETATM    5  C   UNL     1      -9.927  15.364  66.941  1.00  0.00    -0.243 C  
BRANCH   5   6
HETATM    6  O   UNL     1     -10.822  14.285  66.628  1.00  0.00    -0.295 OA 
BRANCH   6   7
HETATM    7  C   UNL     1     -11.190  13.505  67.700  1.00  0.00    -0.279 A  
HETATM    8  C   UNL     1     -11.149  12.107  67.534  1.00  0.00    -0.328 A  
HETATM    9  C   UNL     1     -10.822  11.515  66.191  1.00  0.00    -0.330 C  
HETATM   10  C   UNL     1     -11.380  11.306  68.666  1.00  0.00    -0.273 A  
HETATM   11  C   UNL     1     -11.602  14.046  68.915  1.00  0.00    -0.351 A  
HETATM   12  N   UNL     1     -11.730  11.846  69.869  1.00  0.00    -0.319 NA 
HETATM   13  C   UNL     1     -11.870  13.184  69.955  1.00  0.00    -0.290 A  
BRANCH  10  14
HETATM   14  C   UNL     1     -11.151   9.807  68.689  1.00  0.00    -0.093 C  
BRANCH  14  15
HETATM   15  S   UNL     1      -9.519   9.391  69.349  1.00  0.00    -0.183 S  
HETATM   16  O   UNL     1      -8.953  10.462  70.236  1.00  0.00     0.266 OA 
BRANCH  15  17
HETATM   17  C   UNL     1      -9.927   8.068  70.396  1.00  0.00    -0.188 A  
HETATM   18  N   UNL     1     -10.889   8.059  71.294  1.00  0.00    -0.229 NA 
HETATM   19  C   UNL     1     -10.906   6.775  71.792  1.00  0.00    -0.229 A  
HETATM   20  H   UNL     1     -11.493   8.836  71.563  1.00  0.00     0.000 HD 
HETATM   21  C   UNL     1     -11.733   6.204  72.771  1.00  0.00    -0.110 A  
HETATM   22  C   UNL     1     -11.593   4.839  73.059  1.00  0.00    -0.252 A  
HETATM   23  C   UNL     1     -10.648   4.058  72.388  1.00  0.00    -0.095 A  
HETATM   24  C   UNL     1      -9.795   4.617  71.428  1.00  0.00    -0.264 A  
HETATM   25  C   UNL     1      -9.948   5.982  71.167  1.00  0.00    -0.186 A  
HETATM   26  N   UNL     1      -9.299   6.849  70.325  1.00  0.00    -0.162 NA 
ENDBRANCH  15  17
ENDBRANCH  14  15
ENDBRANCH  10  14
ENDBRANCH   6   7
ENDBRANCH   5   6
ENDBRANCH   4   5
ENDBRANCH   3   4
ENDBRANCH   2   3
TORSDOF 8
ENDMDL
MODEL      242
REMARK 921   NORMALIZED FREE ENERGY PREDICTED BY IDOCK:   -3.36 KCAL/MOL
REMARK 922        TOTAL FREE ENERGY PREDICTED BY IDOCK:   -5.81 KCAL/MOL
REMARK 923 INTER-LIGAND FREE ENERGY PREDICTED BY IDOCK:   -4.85 KCAL/MOL
REMARK 924 INTRA-LIGAND FREE ENERGY PREDICTED BY IDOCK:   -0.96 KCAL/MOL
REMARK 927      BINDING AFFINITY PREDICTED BY RF-SCORE:    0.00 PKD
ROOT
HETATM    1  C   UNL     1      -8.831   4.122  69.360  1.00  0.00    -0.094 C  
HETATM    2  O   UNL     1      -8.985   4.573  68.021  1.00  0.00    -0.108 OA 
ENDROOT
BRANCH   2   3
HETATM    3  C   UNL     1      -7.730   4.820  67.390  1.00  0.00    -0.090 C  
BRANCH   3   4
HETATM    4  C   UNL     1      -7.862   6.018  66.457  1.00  0.00    -0.104 C  
BRANCH   4   5
HETATM    5  C   UNL     1      -7.294   7.291  67.083  1.00  0.00    -0.094 C  
BRANCH   5   6
HETATM    6  O   UNL     1      -7.133   8.282  66.056  1.00  0.00    -0.067 OA 
BRANCH   6   7
HETATM    7  C   UNL     1      -7.406   9.573  66.444  1.00  0.00    -0.093 A  
HETATM    8  C   UNL     1      -8.700  10.071  66.193  1.00  0.00    -0.153 A  
HETATM    9  C   UNL     1      -9.692   9.242  65.426  1.00  0.00    -0.170 C  
HETATM   10  C   UNL     1      -9.029  11.333  66.718  1.00  0.00    -0.171 A  
HETATM   11  C   UNL     1      -6.458  10.389  67.057  1.00  0.00    -0.074 A  
HETATM   12  N   UNL     1      -8.110  12.104  67.366  1.00  0.00    -0.162 NA 
HETATM   13  C   UNL     1      -6.851  11.637  67.485  1.00  0.00    -0.104 A  
BRANCH  10  14
HETATM   14  C   UNL     1     -10.438  11.893  66.720  1.00  0.00    -0.221 C  
BRANCH  14  15
HETATM   15  S   UNL     1     -10.856  12.646  68.311  1.00  0.00    -0.250 S  
HETATM   16  O   UNL     1     -12.290  13.082  68.397  1.00  0.00    -0.095 OA 
BRANCH  15  17
HETATM   17  C   UNL     1     -10.709  11.273  69.362  1.00  0.00    -0.141 A  
HETATM   18  N   UNL     1      -9.584  10.727  69.771  1.00  0.00    -0.368 NA 
HETATM   19  C   UNL     1      -9.960   9.750  70.665  1.00  0.00    -0.146 A  
HETATM   20  H   UNL     1      -8.636  10.974  69.486  1.00  0.00     0.000 HD 
HETATM   21  C   UNL     1      -9.169   8.860  71.407  1.00  0.00    -0.328 A  
HETATM   22  C   UNL     1      -9.797   7.992  72.312  1.00  0.00    -0.301 A  
HETATM   23  C   UNL     1     -11.185   8.008  72.474  1.00  0.00    -0.452 A  
HETATM   24  C   UNL     1     -11.993   8.870  71.722  1.00  0.00    -0.429 A  
HETATM   25  C   UNL     1     -11.343   9.717  70.820  1.00  0.00    -0.342 A  
HETATM   26  N   UNL     1     -11.797  10.658  69.931  1.00  0.00    -0.296 NA 
ENDBRANCH  15  17
ENDBRANCH  14  15
ENDBRANCH  10  14
ENDBRANCH   6   7
ENDBRANCH   5   6
ENDBRANCH   4   5
ENDBRANCH   3   4
ENDBRANCH   2   3
TORSDOF 8
ENDMDL
MODEL      243
REMARK 921   NORMALIZED FREE ENERGY PREDICTED BY IDOCK:   -3.31 KCAL/MOL
REMARK 922        TOTAL FREE ENERGY PREDICTED BY IDOCK:   -5.73 KCAL/MOL
REMARK 923 INTER-LIGAND FREE ENERGY PREDICTED BY IDOCK:   -5.43 KCAL/MOL
REMARK 924 INTRA-LIGAND FREE ENERGY PREDICTED BY IDOCK:   -0.30 KCAL/MOL
REMARK 927      BINDING AFFINITY PREDICTED BY RF-SCORE:    0.00 PKD
ROOT
HETATM    1  C   UNL     1     -10.673   9.592  70.980  1.00  0.00    -0.323 C  
HETATM    2  O   UNL     1     -11.507   9.412  69.842  1.00  0.00    -0.161 OA 
ENDROOT
BRANCH   2   3
HETATM    3  C   UNL     1     -12.550  10.383  69.782  1.00  0.00     0.095 C  
BRANCH   3   4
HETATM    4  C   UNL     1     -12.057  11.689  70.393  1.00  0.00    -0.462 C  
BRANCH   4   5
HETATM    5  C   UNL     1     -11.356  12.572  69.361  1.00  0.00    -0.210 C  
BRANCH   5   6
HETATM    6  O   UNL     1     -12.199  13.695  69.061  1.00  0.00    -0.334 OA 
BRANCH   6   7
HETATM    7  C   UNL     1     -11.900  14.352  67.890  1.00  0.00    -0.349 A  
HETATM    8  C   UNL     1     -11.239  15.592  67.988  1.00  0.00    -0.332 A  
HETATM    9  C   UNL     1     -10.981  16.206  69.335  1.00  0.00    -0.333 C  
HETATM   10  C   UNL     1     -10.799  16.195  66.796  1.00  0.00    -0.162 A  
HETATM   11  C   UNL     1     -12.233  13.842  66.637  1.00  0.00    -0.465 A  
HETATM   12  N   UNL     1     -11.081  15.661  65.574  1.00  0.00    -0.271 NA 
HETATM   13  C   UNL     1     -11.816  14.532  65.521  1.00  0.00    -0.330 A  
BRANCH  10  14
HETATM   14  C   UNL     1      -9.886  17.405  66.761  1.00  0.00    -0.296 C  
BRANCH  14  15
HETATM   15  S   UNL     1      -8.144  16.933  66.887  1.00  0.00    -0.242 S  
HETATM   16  O   UNL     1      -7.459  17.528  68.082  1.00  0.00    -0.203 OA 
BRANCH  15  17
HETATM   17  C   UNL     1      -8.298  15.236  67.218  1.00  0.00    -0.200 A  
HETATM   18  N   UNL     1      -8.652  14.307  66.357  1.00  0.00    -0.400 NA 
HETATM   19  C   UNL     1      -8.525  13.117  67.036  1.00  0.00    -0.132 A  
HETATM   20  H   UNL     1      -8.955  14.441  65.392  1.00  0.00     0.000 HD 
HETATM   21  C   UNL     1      -8.768  11.805  66.601  1.00  0.00    -0.186 A  
HETATM   22  C   UNL     1      -8.497  10.743  67.476  1.00  0.00    -0.119 A  
HETATM   23  C   UNL     1      -7.996  10.982  68.758  1.00  0.00    -0.144 A  
HETATM   24  C   UNL     1      -7.774  12.285  69.220  1.00  0.00     0.388 A  
HETATM   25  C   UNL     1      -8.063  13.326  68.332  1.00  0.00    -0.134 A  
HETATM   26  N   UNL     1      -7.985  14.691  68.439  1.00  0.00    -0.130 NA 
ENDBRANCH  15  17
ENDBRANCH  14  15
ENDBRANCH  10  14
ENDBRANCH   6   7
ENDBRANCH   5   6
ENDBRANCH   4   5
ENDBRANCH   3   4
ENDBRANCH   2   3
TORSDOF 8
ENDMDL
MODEL      244
REMARK 921   NORMALIZED FREE ENERGY PREDICTED BY IDOCK:   -3.31 KCAL/MOL
REMARK 922        TOTAL FREE ENERGY PREDICTED BY IDOCK:   -5.73 KCAL/MOL
REMARK 923 INTER-LIGAND FREE ENERGY PREDICTED BY IDOCK:   -5.11 KCAL/MOL
REMARK 924 INTRA-LIGAND FREE ENERGY PREDICTED BY IDOCK:   -0.62 KCAL/MOL
REMARK 927      BINDING AFFINITY PREDICTED BY RF-SCORE:    0.00 PKD
ROOT
HETATM    1  C   UNL     1      -9.402  19.612  67.723  1.00  0.00    -0.337 C  
HETATM    2  O   UNL     1     -10.338  18.628  67.300  1.00  0.00    -0.358 OA 
ENDROOT
BRANCH   2   3
HETATM    3  C   UNL     1     -10.443  18.563  65.879  1.00  0.00    -0.347 C  
BRANCH   3   4
HETATM    4  C   UNL     1     -11.101  17.247  65.483  1.00  0.00     0.266 C  
BRANCH   4   5
HETATM    5  C   UNL     1     -10.084  16.109  65.388  1.00  0.00    -0.186 C  
BRANCH   5   6
HETATM    6  O   UNL     1     -10.648  14.931  65.985  1.00  0.00    -0.292 OA 
BRANCH   6   7
HETATM    7  C   UNL     1     -10.897  13.897  65.112  1.00  0.00    -0.358 A  
HETATM    8  C   UNL     1     -10.133  12.723  65.257  1.00  0.00    -0.263 A  
HETATM    9  C   UNL     1      -9.017  12.667  66.262  1.00  0.00     0.018 C  
HETATM   10  C   UNL     1     -10.483  11.614  64.467  1.00  0.00    -0.308 A  
HETATM   11  C   UNL     1     -11.855  13.980  64.104  1.00  0.00    -0.393 A  
HETATM   12  N   UNL     1     -11.460  11.686  63.518  1.00  0.00    -0.399 NA 
HETATM   13  C   UNL     1     -12.089  12.864  63.334  1.00  0.00    -0.530 A  
BRANCH  10  14
HETATM   14  C   UNL     1      -9.902  10.227  64.671  1.00  0.00    -0.327 C  
BRANCH  14  15
HETATM   15  S   UNL     1      -8.591   9.869  63.477  1.00  0.00    -0.220 S  
HETATM   16  O   UNL     1      -7.299  10.562  63.798  1.00  0.00    -0.049 OA 
BRANCH  15  17
HETATM   17  C   UNL     1      -8.322   8.184  63.796  1.00  0.00     0.011 A  
HETATM   18  N   UNL     1      -8.441   7.588  64.963  1.00  0.00    -0.332 NA 
HETATM   19  C   UNL     1      -8.243   6.250  64.707  1.00  0.00    -0.100 A  
HETATM   20  H   UNL     1      -8.638   8.024  65.864  1.00  0.00     0.000 HD 
HETATM   21  C   UNL     1      -8.260   5.156  65.585  1.00  0.00    -0.119 A  
HETATM   22  C   UNL     1      -8.092   3.867  65.061  1.00  0.00    -0.093 A  
HETATM   23  C   UNL     1      -7.910   3.669  63.690  1.00  0.00    -0.079 A  
HETATM   24  C   UNL     1      -7.863   4.750  62.801  1.00  0.00    -0.070 A  
HETATM   25  C   UNL     1      -8.021   6.026  63.351  1.00  0.00    -0.112 A  
HETATM   26  N   UNL     1      -8.017   7.284  62.804  1.00  0.00    -0.131 NA 
ENDBRANCH  15  17
ENDBRANCH  14  15
ENDBRANCH  10  14
ENDBRANCH   6   7
ENDBRANCH   5   6
ENDBRANCH   4   5
ENDBRANCH   3   4
ENDBRANCH   2   3
TORSDOF 8
ENDMDL
MODEL      245
REMARK 921   NORMALIZED FREE ENERGY PREDICTED BY IDOCK:   -3.31 KCAL/MOL
REMARK 922        TOTAL FREE ENERGY PREDICTED BY IDOCK:   -5.73 KCAL/MOL
REMARK 923 INTER-LIGAND FREE ENERGY PREDICTED BY IDOCK:   -4.79 KCAL/MOL
REMARK 924 INTRA-LIGAND FREE ENERGY PREDICTED BY IDOCK:   -0.94 KCAL/MOL
REMARK 927      BINDING AFFINITY PREDICTED BY RF-SCORE:    0.00 PKD
ROOT
HETATM    1  C   UNL     1     -11.588   8.240  71.238  1.00  0.00    -0.281 C  
HETATM    2  O   UNL     1     -12.079   7.179  70.427  1.00  0.00    -0.213 OA 
ENDROOT
BRANCH   2   3
HETATM    3  C   UNL     1     -11.115   6.141  70.261  1.00  0.00    -0.366 C  
BRANCH   3   4
HETATM    4  C   UNL     1      -9.892   6.448  71.117  1.00  0.00    -0.198 C  
BRANCH   4   5
HETATM    5  C   UNL     1      -8.656   5.688  70.637  1.00  0.00    -0.130 C  
BRANCH   5   6
HETATM    6  O   UNL     1      -8.746   5.506  69.215  1.00  0.00    -0.106 OA 
BRANCH   6   7
HETATM    7  C   UNL     1      -7.720   6.068  68.489  1.00  0.00    -0.095 A  
HETATM    8  C   UNL     1      -7.986   7.274  67.812  1.00  0.00    -0.115 A  
HETATM    9  C   UNL     1      -9.375   7.847  67.804  1.00  0.00    -0.153 C  
HETATM   10  C   UNL     1      -6.905   7.927  67.193  1.00  0.00    -0.073 A  
HETATM   11  C   UNL     1      -6.459   5.486  68.400  1.00  0.00    -0.039 A  
HETATM   12  N   UNL     1      -5.658   7.377  67.156  1.00  0.00    -0.029 NA 
HETATM   13  C   UNL     1      -5.474   6.166  67.719  1.00  0.00    -0.005 A  
BRANCH  10  14
HETATM   14  C   UNL     1      -6.994   9.331  66.624  1.00  0.00    -0.081 C  
BRANCH  14  15
HETATM   15  S   UNL     1      -7.421   9.314  64.867  1.00  0.00    -0.111 S  
HETATM   16  O   UNL     1      -7.967   7.993  64.408  1.00  0.00    -0.139 OA 
BRANCH  15  17
HETATM   17  C   UNL     1      -8.761  10.417  64.855  1.00  0.00    -0.184 A  
HETATM   18  N   UNL     1      -9.184  11.110  63.820  1.00  0.00    -0.362 NA 
HETATM   19  C   UNL     1     -10.325  11.748  64.254  1.00  0.00    -0.314 A  
HETATM   20  H   UNL     1      -8.758  11.165  62.894  1.00  0.00     0.000 HD 
HETATM   21  C   UNL     1     -11.186  12.615  63.564  1.00  0.00    -0.489 A  
HETATM   22  C   UNL     1     -12.333  13.087  64.217  1.00  0.00    -0.436 A  
HETATM   23  C   UNL     1     -12.617  12.706  65.531  1.00  0.00    -0.182 A  
HETATM   24  C   UNL     1     -11.755  11.864  66.245  1.00  0.00    -0.223 A  
HETATM   25  C   UNL     1     -10.613  11.416  65.574  1.00  0.00    -0.271 A  
HETATM   26  N   UNL     1      -9.565  10.614  65.950  1.00  0.00    -0.195 NA 
ENDBRANCH  15  17
ENDBRANCH  14  15
ENDBRANCH  10  14
ENDBRANCH   6   7
ENDBRANCH   5   6
ENDBRANCH   4   5
ENDBRANCH   3   4
ENDBRANCH   2   3
TORSDOF 8
ENDMDL
MODEL      246
REMARK 921   NORMALIZED FREE ENERGY PREDICTED BY IDOCK:   -3.30 KCAL/MOL
REMARK 922        TOTAL FREE ENERGY PREDICTED BY IDOCK:   -5.71 KCAL/MOL
REMARK 923 INTER-LIGAND FREE ENERGY PREDICTED BY IDOCK:   -4.96 KCAL/MOL
REMARK 924 INTRA-LIGAND FREE ENERGY PREDICTED BY IDOCK:   -0.75 KCAL/MOL
REMARK 927      BINDING AFFINITY PREDICTED BY RF-SCORE:    0.00 PKD
ROOT
HETATM    1  C   UNL     1      -7.195   7.987  70.873  1.00  0.00    -0.053 C  
HETATM    2  O   UNL     1      -8.163   8.715  71.618  1.00  0.00    -0.146 OA 
ENDROOT
BRANCH   2   3
HETATM    3  C   UNL     1      -9.326   9.007  70.846  1.00  0.00    -0.264 C  
BRANCH   3   4
HETATM    4  C   UNL     1     -10.379   7.935  71.098  1.00  0.00    -0.225 C  
BRANCH   4   5
HETATM    5  C   UNL     1     -10.048   6.630  70.373  1.00  0.00    -0.183 C  
BRANCH   5   6
HETATM    6  O   UNL     1     -10.626   6.670  69.059  1.00  0.00    -0.203 OA 
BRANCH   6   7
HETATM    7  C   UNL     1      -9.721   6.616  68.024  1.00  0.00    -0.123 A  
HETATM    8  C   UNL     1      -9.628   7.739  67.179  1.00  0.00    -0.220 A  
HETATM    9  C   UNL     1     -10.571   8.897  67.355  1.00  0.00    -0.305 C  
HETATM   10  C   UNL     1      -8.605   7.749  66.214  1.00  0.00    -0.150 A  
HETATM   11  C   UNL     1      -8.920   5.502  67.786  1.00  0.00    -0.108 A  
HETATM   12  N   UNL     1      -7.787   6.675  66.023  1.00  0.00    -0.100 NA 
HETATM   13  C   UNL     1      -7.986   5.575  66.776  1.00  0.00    -0.101 A  
BRANCH  10  14
HETATM   14  C   UNL     1      -8.245   8.972  65.393  1.00  0.00    -0.130 C  
BRANCH  14  15
HETATM   15  S   UNL     1      -7.304  10.175  66.363  1.00  0.00    -0.114 S  
HETATM   16  O   UNL     1      -6.098  10.699  65.639  1.00  0.00    -0.126 OA 
BRANCH  15  17
HETATM   17  C   UNL     1      -8.435  11.490  66.424  1.00  0.00    -0.138 A  
HETATM   18  N   UNL     1      -9.389  11.732  65.551  1.00  0.00    -0.381 NA 
HETATM   19  C   UNL     1     -10.091  12.797  66.069  1.00  0.00    -0.268 A  
HETATM   20  H   UNL     1      -9.569  11.237  64.677  1.00  0.00     0.000 HD 
HETATM   21  C   UNL     1     -11.211  13.468  65.556  1.00  0.00    -0.304 A  
HETATM   22  C   UNL     1     -11.789  14.494  66.315  1.00  0.00    -0.354 A  
HETATM   23  C   UNL     1     -11.263  14.847  67.561  1.00  0.00    -0.334 A  
HETATM   24  C   UNL     1     -10.129  14.208  68.077  1.00  0.00    -0.233 A  
HETATM   25  C   UNL     1      -9.566  13.196  67.294  1.00  0.00    -0.233 A  
HETATM   26  N   UNL     1      -8.473  12.383  67.466  1.00  0.00    -0.164 NA 
ENDBRANCH  15  17
ENDBRANCH  14  15
ENDBRANCH  10  14
ENDBRANCH   6   7
ENDBRANCH   5   6
ENDBRANCH   4   5
ENDBRANCH   3   4
ENDBRANCH   2   3
TORSDOF 8
ENDMDL
MODEL      247
REMARK 921   NORMALIZED FREE ENERGY PREDICTED BY IDOCK:   -3.29 KCAL/MOL
REMARK 922        TOTAL FREE ENERGY PREDICTED BY IDOCK:   -5.70 KCAL/MOL
REMARK 923 INTER-LIGAND FREE ENERGY PREDICTED BY IDOCK:   -4.65 KCAL/MOL
REMARK 924 INTRA-LIGAND FREE ENERGY PREDICTED BY IDOCK:   -1.04 KCAL/MOL
REMARK 927      BINDING AFFINITY PREDICTED BY RF-SCORE:    0.00 PKD
ROOT
HETATM    1  C   UNL     1      -7.264   5.246  72.246  1.00  0.00    -0.091 C  
HETATM    2  O   UNL     1      -7.903   6.461  72.620  1.00  0.00    -0.103 OA 
ENDROOT
BRANCH   2   3
HETATM    3  C   UNL     1      -9.015   6.238  73.485  1.00  0.00    -0.124 C  
BRANCH   3   4
HETATM    4  C   UNL     1      -9.908   7.473  73.484  1.00  0.00    -0.372 C  
BRANCH   4   5
HETATM    5  C   UNL     1      -9.536   8.443  72.363  1.00  0.00    -0.303 C  
BRANCH   5   6
HETATM    6  O   UNL     1     -10.712   8.737  71.593  1.00  0.00    -0.272 OA 
BRANCH   6   7
HETATM    7  C   UNL     1     -10.822   8.042  70.410  1.00  0.00    -0.247 A  
HETATM    8  C   UNL     1     -10.563   8.743  69.216  1.00  0.00    -0.210 A  
HETATM    9  C   UNL     1     -10.289  10.220  69.251  1.00  0.00    -0.250 C  
HETATM   10  C   UNL     1     -10.528   8.005  68.019  1.00  0.00    -0.184 A  
HETATM   11  C   UNL     1     -11.184   6.699  70.360  1.00  0.00    -0.398 A  
HETATM   12  N   UNL     1     -10.831   6.676  67.985  1.00  0.00    -0.267 NA 
HETATM   13  C   UNL     1     -11.186   6.069  69.136  1.00  0.00    -0.267 A  
BRANCH  10  14
HETATM   14  C   UNL     1     -10.046   8.577  66.700  1.00  0.00    -0.294 C  
BRANCH  14  15
HETATM   15  S   UNL     1      -8.283   8.264  66.441  1.00  0.00    -0.111 S  
HETATM   16  O   UNL     1      -7.523   8.087  67.723  1.00  0.00    -0.090 OA 
BRANCH  15  17
HETATM   17  C   UNL     1      -8.344   6.696  65.700  1.00  0.00    -0.144 A  
HETATM   18  N   UNL     1      -8.632   5.563  66.306  1.00  0.00    -0.121 NA 
HETATM   19  C   UNL     1      -8.668   4.618  65.306  1.00  0.00    -0.137 A  
HETATM   20  H   UNL     1      -8.793   5.418  67.303  1.00  0.00     0.000 HD 
HETATM   21  C   UNL     1      -8.932   3.241  65.381  1.00  0.00    -0.144 A  
HETATM   22  C   UNL     1      -8.975   2.497  64.194  1.00  0.00    -0.105 A  
HETATM   23  C   UNL     1      -8.759   3.109  62.956  1.00  0.00    -0.089 A  
HETATM   24  C   UNL     1      -8.468   4.475  62.863  1.00  0.00    -0.105 A  
HETATM   25  C   UNL     1      -8.420   5.192  64.063  1.00  0.00    -0.123 A  
HETATM   26  N   UNL     1      -8.157   6.507  64.353  1.00  0.00    -0.101 NA 
ENDBRANCH  15  17
ENDBRANCH  14  15
ENDBRANCH  10  14
ENDBRANCH   6   7
ENDBRANCH   5   6
ENDBRANCH   4   5
ENDBRANCH   3   4
ENDBRANCH   2   3
TORSDOF 8
ENDMDL
MODEL      248
REMARK 921   NORMALIZED FREE ENERGY PREDICTED BY IDOCK:   -3.28 KCAL/MOL
REMARK 922        TOTAL FREE ENERGY PREDICTED BY IDOCK:   -5.69 KCAL/MOL
REMARK 923 INTER-LIGAND FREE ENERGY PREDICTED BY IDOCK:   -4.66 KCAL/MOL
REMARK 924 INTRA-LIGAND FREE ENERGY PREDICTED BY IDOCK:   -1.03 KCAL/MOL
REMARK 927      BINDING AFFINITY PREDICTED BY RF-SCORE:    0.00 PKD
ROOT
HETATM    1  C   UNL     1      -9.112   8.432  72.754  1.00  0.00    -0.229 C  
HETATM    2  O   UNL     1     -10.531   8.359  72.681  1.00  0.00    -0.326 OA 
ENDROOT
BRANCH   2   3
HETATM    3  C   UNL     1     -11.007   8.491  71.343  1.00  0.00    -0.264 C  
BRANCH   3   4
HETATM    4  C   UNL     1     -11.777   7.234  70.957  1.00  0.00    -0.340 C  
BRANCH   4   5
HETATM    5  C   UNL     1     -10.841   6.067  70.643  1.00  0.00    -0.297 C  
BRANCH   5   6
HETATM    6  O   UNL     1     -11.096   5.614  69.304  1.00  0.00    -0.274 OA 
BRANCH   6   7
HETATM    7  C   UNL     1      -9.978   5.251  68.589  1.00  0.00    -0.168 A  
HETATM    8  C   UNL     1      -9.882   5.698  67.257  1.00  0.00    -0.163 A  
HETATM    9  C   UNL     1     -11.022   6.448  66.627  1.00  0.00    -0.192 C  
HETATM   10  C   UNL     1      -8.678   5.457  66.571  1.00  0.00    -0.117 A  
HETATM   11  C   UNL     1      -8.966   4.462  69.130  1.00  0.00    -0.151 A  
HETATM   12  N   UNL     1      -7.668   4.729  67.128  1.00  0.00    -0.090 NA 
HETATM   13  C   UNL     1      -7.847   4.222  68.363  1.00  0.00    -0.074 A  
BRANCH  10  14
HETATM   14  C   UNL     1      -8.348   6.069  65.224  1.00  0.00    -0.148 C  
BRANCH  14  15
HETATM   15  S   UNL     1      -6.952   7.214  65.334  1.00  0.00    -0.057 S  
HETATM   16  O   UNL     1      -6.224   7.380  64.031  1.00  0.00    -0.047 OA 
BRANCH  15  17
HETATM   17  C   UNL     1      -7.788   8.710  65.609  1.00  0.00    -0.101 A  
HETATM   18  N   UNL     1      -7.411   9.668  66.428  1.00  0.00    -0.093 NA 
HETATM   19  C   UNL     1      -8.313  10.689  66.228  1.00  0.00    -0.155 A  
HETATM   20  H   UNL     1      -6.620   9.657  67.073  1.00  0.00     0.000 HD 
HETATM   21  C   UNL     1      -8.387  11.953  66.834  1.00  0.00    -0.169 A  
HETATM   22  C   UNL     1      -9.374  12.851  66.404  1.00  0.00    -0.192 A  
HETATM   23  C   UNL     1     -10.271  12.498  65.392  1.00  0.00    -0.303 A  
HETATM   24  C   UNL     1     -10.231  11.232  64.795  1.00  0.00    -0.347 A  
HETATM   25  C   UNL     1      -9.244  10.352  65.250  1.00  0.00    -0.199 A  
HETATM   26  N   UNL     1      -8.921   9.061  64.917  1.00  0.00    -0.165 NA 
ENDBRANCH  15  17
ENDBRANCH  14  15
ENDBRANCH  10  14
ENDBRANCH   6   7
ENDBRANCH   5   6
ENDBRANCH   4   5
ENDBRANCH   3   4
ENDBRANCH   2   3
TORSDOF 8
ENDMDL
MODEL      249
REMARK 921   NORMALIZED FREE ENERGY PREDICTED BY IDOCK:   -3.27 KCAL/MOL
REMARK 922        TOTAL FREE ENERGY PREDICTED BY IDOCK:   -5.67 KCAL/MOL
REMARK 923 INTER-LIGAND FREE ENERGY PREDICTED BY IDOCK:   -4.63 KCAL/MOL
REMARK 924 INTRA-LIGAND FREE ENERGY PREDICTED BY IDOCK:   -1.05 KCAL/MOL
REMARK 927      BINDING AFFINITY PREDICTED BY RF-SCORE:    0.00 PKD
ROOT
HETATM    1  C   UNL     1      -7.269   5.249  72.246  1.00  0.00    -0.091 C  
HETATM    2  O   UNL     1      -7.910   6.459  72.631  1.00  0.00    -0.103 OA 
ENDROOT
BRANCH   2   3
HETATM    3  C   UNL     1      -9.008   6.228  73.511  1.00  0.00    -0.124 C  
BRANCH   3   4
HETATM    4  C   UNL     1      -9.901   7.463  73.535  1.00  0.00    -0.363 C  
BRANCH   4   5
HETATM    5  C   UNL     1      -9.547   8.444  72.417  1.00  0.00    -0.303 C  
BRANCH   5   6
HETATM    6  O   UNL     1     -10.735   8.747  71.670  1.00  0.00    -0.272 OA 
BRANCH   6   7
HETATM    7  C   UNL     1     -10.857   8.080  70.473  1.00  0.00    -0.241 A  
HETATM    8  C   UNL     1     -10.641   8.816  69.292  1.00  0.00    -0.210 A  
HETATM    9  C   UNL     1     -10.398  10.298  69.358  1.00  0.00    -0.256 C  
HETATM   10  C   UNL     1     -10.617   8.109  68.076  1.00  0.00    -0.126 A  
HETATM   11  C   UNL     1     -11.190   6.730  70.397  1.00  0.00    -0.378 A  
HETATM   12  N   UNL     1     -10.891   6.775  68.015  1.00  0.00    -0.241 NA 
HETATM   13  C   UNL     1     -11.206   6.131  69.157  1.00  0.00    -0.339 A  
BRANCH  10  14
HETATM   14  C   UNL     1     -10.177   8.725  66.762  1.00  0.00    -0.284 C  
BRANCH  14  15
HETATM   15  S   UNL     1      -8.420   8.436  66.443  1.00  0.00    -0.129 S  
HETATM   16  O   UNL     1      -8.068   8.511  64.986  1.00  0.00    -0.131 OA 
BRANCH  15  17
HETATM   17  C   UNL     1      -7.728   9.850  67.176  1.00  0.00    -0.092 A  
HETATM   18  N   UNL     1      -7.791  11.076  66.704  1.00  0.00    -0.148 NA 
HETATM   19  C   UNL     1      -7.206  11.865  67.669  1.00  0.00    -0.112 A  
HETATM   20  H   UNL     1      -8.187  11.378  65.814  1.00  0.00     0.000 HD 
HETATM   21  C   UNL     1      -7.005  13.254  67.693  1.00  0.00    -0.164 A  
HETATM   22  C   UNL     1      -6.437  13.833  68.836  1.00  0.00    -0.100 A  
HETATM   23  C   UNL     1      -6.074  13.048  69.933  1.00  0.00    -0.125 A  
HETATM   24  C   UNL     1      -6.242  11.657  69.917  1.00  0.00    -0.144 A  
HETATM   25  C   UNL     1      -6.800  11.103  68.761  1.00  0.00    -0.079 A  
HETATM   26  N   UNL     1      -7.091   9.814  68.392  1.00  0.00    -0.072 NA 
ENDBRANCH  15  17
ENDBRANCH  14  15
ENDBRANCH  10  14
ENDBRANCH   6   7
ENDBRANCH   5   6
ENDBRANCH   4   5
ENDBRANCH   3   4
ENDBRANCH   2   3
TORSDOF 8
ENDMDL
MODEL      250
REMARK 921   NORMALIZED FREE ENERGY PREDICTED BY IDOCK:   -3.26 KCAL/MOL
REMARK 922        TOTAL FREE ENERGY PREDICTED BY IDOCK:   -5.65 KCAL/MOL
REMARK 923 INTER-LIGAND FREE ENERGY PREDICTED BY IDOCK:   -4.91 KCAL/MOL
REMARK 924 INTRA-LIGAND FREE ENERGY PREDICTED BY IDOCK:   -0.74 KCAL/MOL
REMARK 927      BINDING AFFINITY PREDICTED BY RF-SCORE:    0.00 PKD
ROOT
HETATM    1  C   UNL     1      -6.744   8.703  67.812  1.00  0.00    -0.066 C  
HETATM    2  O   UNL     1      -7.492   7.508  67.997  1.00  0.00    -0.099 OA 
ENDROOT
BRANCH   2   3
HETATM    3  C   UNL     1      -6.689   6.447  68.512  1.00  0.00    -0.068 C  
BRANCH   3   4
HETATM    4  C   UNL     1      -7.193   5.120  67.957  1.00  0.00    -0.067 C  
BRANCH   4   5
HETATM    5  C   UNL     1      -8.532   5.276  67.237  1.00  0.00    -0.106 C  
BRANCH   5   6
HETATM    6  O   UNL     1      -9.502   4.427  67.872  1.00  0.00    -0.143 OA 
BRANCH   6   7
HETATM    7  C   UNL     1      -9.858   4.802  69.147  1.00  0.00    -0.184 A  
HETATM    8  C   UNL     1     -10.776   5.861  69.284  1.00  0.00    -0.401 A  
HETATM    9  C   UNL     1     -11.249   6.612  68.071  1.00  0.00    -0.217 C  
HETATM   10  C   UNL     1     -11.255   6.149  70.574  1.00  0.00    -0.334 A  
HETATM   11  C   UNL     1      -9.340   4.183  70.282  1.00  0.00    -0.232 A  
HETATM   12  N   UNL     1     -10.783   5.501  71.677  1.00  0.00    -0.245 NA 
HETATM   13  C   UNL     1      -9.820   4.572  71.513  1.00  0.00    -0.190 A  
BRANCH  10  14
HETATM   14  C   UNL     1     -12.403   7.102  70.844  1.00  0.00    -0.292 C  
BRANCH  14  15
HETATM   15  S   UNL     1     -11.832   8.812  70.993  1.00  0.00    -0.240 S  
HETATM   16  O   UNL     1     -12.703   9.646  71.887  1.00  0.00    -0.374 OA 
BRANCH  15  17
HETATM   17  C   UNL     1     -10.346   8.576  71.858  1.00  0.00    -0.308 A  
HETATM   18  N   UNL     1     -10.230   8.176  73.106  1.00  0.00    -0.222 NA 
HETATM   19  C   UNL     1      -8.877   8.028  73.315  1.00  0.00    -0.265 A  
HETATM   20  H   UNL     1     -10.982   8.010  73.775  1.00  0.00     0.000 HD 
HETATM   21  C   UNL     1      -8.186   7.620  74.466  1.00  0.00    -0.258 A  
HETATM   22  C   UNL     1      -6.792   7.486  74.403  1.00  0.00    -0.110 A  
HETATM   23  C   UNL     1      -6.099   7.752  73.220  1.00  0.00    -0.063 A  
HETATM   24  C   UNL     1      -6.768   8.186  72.069  1.00  0.00    -0.073 A  
HETATM   25  C   UNL     1      -8.157   8.324  72.161  1.00  0.00    -0.145 A  
HETATM   26  N   UNL     1      -9.115   8.728  71.267  1.00  0.00    -0.213 NA 
ENDBRANCH  15  17
ENDBRANCH  14  15
ENDBRANCH  10  14
ENDBRANCH   6   7
ENDBRANCH   5   6
ENDBRANCH   4   5
ENDBRANCH   3   4
ENDBRANCH   2   3
TORSDOF 8
ENDMDL
MODEL      251
REMARK 921   NORMALIZED FREE ENERGY PREDICTED BY IDOCK:   -3.26 KCAL/MOL
REMARK 922        TOTAL FREE ENERGY PREDICTED BY IDOCK:   -5.65 KCAL/MOL
REMARK 923 INTER-LIGAND FREE ENERGY PREDICTED BY IDOCK:   -4.82 KCAL/MOL
REMARK 924 INTRA-LIGAND FREE ENERGY PREDICTED BY IDOCK:   -0.83 KCAL/MOL
REMARK 927      BINDING AFFINITY PREDICTED BY RF-SCORE:    0.00 PKD
ROOT
HETATM    1  C   UNL     1     -11.964  12.884  67.723  1.00  0.00    -0.283 C  
HETATM    2  O   UNL     1     -11.678  14.016  66.911  1.00  0.00    -0.366 OA 
ENDROOT
BRANCH   2   3
HETATM    3  C   UNL     1     -12.307  13.935  65.634  1.00  0.00    -0.482 C  
BRANCH   3   4
HETATM    4  C   UNL     1     -12.293  12.487  65.158  1.00  0.00    -0.496 C  
BRANCH   4   5
HETATM    5  C   UNL     1     -11.054  12.176  64.319  1.00  0.00    -0.346 C  
BRANCH   5   6
HETATM    6  O   UNL     1      -9.887  12.314  65.146  1.00  0.00    -0.241 OA 
BRANCH   6   7
HETATM    7  C   UNL     1      -9.387  11.134  65.648  1.00  0.00    -0.219 A  
HETATM    8  C   UNL     1      -8.642  11.198  66.842  1.00  0.00    -0.148 A  
HETATM    9  C   UNL     1      -8.324  12.528  67.465  1.00  0.00    -0.175 C  
HETATM   10  C   UNL     1      -8.255   9.984  67.436  1.00  0.00    -0.118 A  
HETATM   11  C   UNL     1      -9.582   9.908  65.018  1.00  0.00    -0.364 A  
HETATM   12  N   UNL     1      -8.498   8.782  66.840  1.00  0.00    -0.111 NA 
HETATM   13  C   UNL     1      -9.114   8.773  65.640  1.00  0.00    -0.191 A  
BRANCH  10  14
HETATM   14  C   UNL     1      -7.651   9.890  68.824  1.00  0.00    -0.081 C  
BRANCH  14  15
HETATM   15  S   UNL     1      -8.926   9.815  70.105  1.00  0.00    -0.124 S  
HETATM   16  O   UNL     1     -10.298   9.558  69.553  1.00  0.00    -0.195 OA 
BRANCH  15  17
HETATM   17  C   UNL     1      -8.462   8.361  70.932  1.00  0.00    -0.140 A  
HETATM   18  N   UNL     1      -7.330   7.710  70.777  1.00  0.00    -0.066 NA 
HETATM   19  C   UNL     1      -7.364   6.699  71.711  1.00  0.00    -0.086 A  
HETATM   20  H   UNL     1      -6.586   7.911  70.109  1.00  0.00     0.000 HD 
HETATM   21  C   UNL     1      -6.415   5.704  71.992  1.00  0.00    -0.052 A  
HETATM   22  C   UNL     1      -6.660   4.818  73.051  1.00  0.00    -0.056 A  
HETATM   23  C   UNL     1      -7.825   4.919  73.814  1.00  0.00    -0.099 A  
HETATM   24  C   UNL     1      -8.796   5.888  73.532  1.00  0.00    -0.125 A  
HETATM   25  C   UNL     1      -8.533   6.751  72.464  1.00  0.00    -0.118 A  
HETATM   26  N   UNL     1      -9.242   7.784  71.904  1.00  0.00    -0.136 NA 
ENDBRANCH  15  17
ENDBRANCH  14  15
ENDBRANCH  10  14
ENDBRANCH   6   7
ENDBRANCH   5   6
ENDBRANCH   4   5
ENDBRANCH   3   4
ENDBRANCH   2   3
TORSDOF 8
ENDMDL
MODEL      252
REMARK 921   NORMALIZED FREE ENERGY PREDICTED BY IDOCK:   -3.22 KCAL/MOL
REMARK 922        TOTAL FREE ENERGY PREDICTED BY IDOCK:   -5.60 KCAL/MOL
REMARK 923 INTER-LIGAND FREE ENERGY PREDICTED BY IDOCK:   -4.93 KCAL/MOL
REMARK 924 INTRA-LIGAND FREE ENERGY PREDICTED BY IDOCK:   -0.67 KCAL/MOL
REMARK 927      BINDING AFFINITY PREDICTED BY RF-SCORE:    0.00 PKD
ROOT
HETATM    1  C   UNL     1     -10.124  19.793  68.216  1.00  0.00    -0.458 C  
HETATM    2  O   UNL     1     -11.003  19.053  67.378  1.00  0.00    -0.459 OA 
ENDROOT
BRANCH   2   3
HETATM    3  C   UNL     1     -10.627  19.130  66.005  1.00  0.00    -0.442 C  
BRANCH   3   4
HETATM    4  C   UNL     1     -11.026  17.838  65.301  1.00  0.00     0.380 C  
BRANCH   4   5
HETATM    5  C   UNL     1     -10.126  16.669  65.704  1.00  0.00    -0.217 C  
BRANCH   5   6
HETATM    6  O   UNL     1     -10.837  15.834  66.632  1.00  0.00    -0.310 OA 
BRANCH   6   7
HETATM    7  C   UNL     1     -10.948  14.514  66.260  1.00  0.00    -0.323 A  
HETATM    8  C   UNL     1     -10.190  13.569  66.979  1.00  0.00    -0.249 A  
HETATM    9  C   UNL     1      -9.219  14.023  68.032  1.00  0.00    -0.201 C  
HETATM   10  C   UNL     1     -10.411  12.208  66.703  1.00  0.00    -0.208 A  
HETATM   11  C   UNL     1     -11.763  14.096  65.212  1.00  0.00    -0.353 A  
HETATM   12  N   UNL     1     -11.252  11.803  65.710  1.00  0.00    -0.311 NA 
HETATM   13  C   UNL     1     -11.871  12.745  64.970  1.00  0.00    -0.382 A  
BRANCH  10  14
HETATM   14  C   UNL     1      -9.838  11.083  67.544  1.00  0.00    -0.169 C  
BRANCH  14  15
HETATM   15  S   UNL     1      -8.379  10.345  66.770  1.00  0.00    -0.128 S  
HETATM   16  O   UNL     1      -7.137  11.168  66.954  1.00  0.00    -0.114 OA 
BRANCH  15  17
HETATM   17  C   UNL     1      -8.171   8.936  67.762  1.00  0.00    -0.110 A  
HETATM   18  N   UNL     1      -8.481   8.833  69.037  1.00  0.00    -0.129 NA 
HETATM   19  C   UNL     1      -8.248   7.516  69.360  1.00  0.00    -0.130 A  
HETATM   20  H   UNL     1      -8.821   9.572  69.653  1.00  0.00     0.000 HD 
HETATM   21  C   UNL     1      -8.411   6.849  70.584  1.00  0.00    -0.136 A  
HETATM   22  C   UNL     1      -8.164   5.471  70.640  1.00  0.00    -0.116 A  
HETATM   23  C   UNL     1      -7.761   4.768  69.502  1.00  0.00    -0.062 A  
HETATM   24  C   UNL     1      -7.566   5.420  68.278  1.00  0.00    -0.081 A  
HETATM   25  C   UNL     1      -7.808   6.797  68.252  1.00  0.00    -0.110 A  
HETATM   26  N   UNL     1      -7.711   7.742  67.262  1.00  0.00    -0.110 NA 
ENDBRANCH  15  17
ENDBRANCH  14  15
ENDBRANCH  10  14
ENDBRANCH   6   7
ENDBRANCH   5   6
ENDBRANCH   4   5
ENDBRANCH   3   4
ENDBRANCH   2   3
TORSDOF 8
ENDMDL
MODEL      253
REMARK 921   NORMALIZED FREE ENERGY PREDICTED BY IDOCK:   -3.20 KCAL/MOL
REMARK 922        TOTAL FREE ENERGY PREDICTED BY IDOCK:   -5.57 KCAL/MOL
REMARK 923 INTER-LIGAND FREE ENERGY PREDICTED BY IDOCK:   -4.89 KCAL/MOL
REMARK 924 INTRA-LIGAND FREE ENERGY PREDICTED BY IDOCK:   -0.68 KCAL/MOL
REMARK 927      BINDING AFFINITY PREDICTED BY RF-SCORE:    0.00 PKD
ROOT
HETATM    1  C   UNL     1      -9.624   3.686  67.367  1.00  0.00    -0.149 C  
HETATM    2  O   UNL     1      -9.783   4.414  66.156  1.00  0.00    -0.176 OA 
ENDROOT
BRANCH   2   3
HETATM    3  C   UNL     1      -9.012   3.860  65.091  1.00  0.00    -0.132 C  
BRANCH   3   4
HETATM    4  C   UNL     1      -7.708   4.637  64.956  1.00  0.00    -0.078 C  
BRANCH   4   5
HETATM    5  C   UNL     1      -7.892   6.118  65.287  1.00  0.00    -0.105 C  
BRANCH   5   6
HETATM    6  O   UNL     1      -6.800   6.548  66.115  1.00  0.00    -0.054 OA 
BRANCH   6   7
HETATM    7  C   UNL     1      -7.003   6.404  67.468  1.00  0.00    -0.078 A  
HETATM    8  C   UNL     1      -7.624   7.468  68.151  1.00  0.00    -0.114 A  
HETATM    9  C   UNL     1      -7.941   8.747  67.428  1.00  0.00    -0.098 C  
HETATM   10  C   UNL     1      -7.967   7.268  69.500  1.00  0.00    -0.127 A  
HETATM   11  C   UNL     1      -6.612   5.266  68.169  1.00  0.00    -0.049 A  
HETATM   12  N   UNL     1      -7.629   6.127  70.166  1.00  0.00    -0.093 NA 
HETATM   13  C   UNL     1      -6.933   5.180  69.505  1.00  0.00    -0.054 A  
BRANCH  10  14
HETATM   14  C   UNL     1      -8.832   8.229  70.292  1.00  0.00    -0.141 C  
BRANCH  14  15
HETATM   15  S   UNL     1     -10.593   7.875  70.079  1.00  0.00    -0.243 S  
HETATM   16  O   UNL     1     -11.181   7.108  71.228  1.00  0.00    -0.248 OA 
BRANCH  15  17
HETATM   17  C   UNL     1     -11.255   9.476  70.184  1.00  0.00    -0.234 A  
HETATM   18  N   UNL     1     -12.016   9.938  71.153  1.00  0.00    -0.353 NA 
HETATM   19  C   UNL     1     -12.199  11.272  70.864  1.00  0.00    -0.356 A  
HETATM   20  H   UNL     1     -12.391   9.419  71.947  1.00  0.00     0.000 HD 
HETATM   21  C   UNL     1     -12.923  12.250  71.563  1.00  0.00    -0.390 A  
HETATM   22  C   UNL     1     -12.901  13.570  71.092  1.00  0.00    -0.387 A  
HETATM   23  C   UNL     1     -12.174  13.911  69.949  1.00  0.00    -0.393 A  
HETATM   24  C   UNL     1     -11.467  12.944  69.223  1.00  0.00    -0.341 A  
HETATM   25  C   UNL     1     -11.515  11.633  69.707  1.00  0.00    -0.264 A  
HETATM   26  N   UNL     1     -10.972  10.454  69.262  1.00  0.00    -0.227 NA 
ENDBRANCH  15  17
ENDBRANCH  14  15
ENDBRANCH  10  14
ENDBRANCH   6   7
ENDBRANCH   5   6
ENDBRANCH   4   5
ENDBRANCH   3   4
ENDBRANCH   2   3
TORSDOF 8
ENDMDL
MODEL      254
REMARK 921   NORMALIZED FREE ENERGY PREDICTED BY IDOCK:   -3.16 KCAL/MOL
REMARK 922        TOTAL FREE ENERGY PREDICTED BY IDOCK:   -5.51 KCAL/MOL
REMARK 923 INTER-LIGAND FREE ENERGY PREDICTED BY IDOCK:   -4.51 KCAL/MOL
REMARK 924 INTRA-LIGAND FREE ENERGY PREDICTED BY IDOCK:   -1.00 KCAL/MOL
REMARK 927      BINDING AFFINITY PREDICTED BY RF-SCORE:    0.00 PKD
ROOT
HETATM    1  C   UNL     1     -10.962   6.582  67.604  1.00  0.00    -0.337 C  
HETATM    2  O   UNL     1     -10.199   6.990  66.475  1.00  0.00    -0.166 OA 
ENDROOT
BRANCH   2   3
HETATM    3  C   UNL     1     -10.086   8.409  66.388  1.00  0.00    -0.172 C  
BRANCH   3   4
HETATM    4  C   UNL     1      -8.637   8.781  66.099  1.00  0.00    -0.162 C  
BRANCH   4   5
HETATM    5  C   UNL     1      -7.888   9.182  67.370  1.00  0.00    -0.099 C  
BRANCH   5   6
HETATM    6  O   UNL     1      -8.845   9.505  68.391  1.00  0.00    -0.123 OA 
BRANCH   6   7
HETATM    7  C   UNL     1      -8.668   8.844  69.585  1.00  0.00    -0.140 A  
HETATM    8  C   UNL     1      -9.672   8.984  70.563  1.00  0.00    -0.262 A  
HETATM    9  C   UNL     1     -10.828   9.916  70.331  1.00  0.00    -0.380 C  
HETATM   10  C   UNL     1      -9.569   8.196  71.723  1.00  0.00    -0.188 A  
HETATM   11  C   UNL     1      -7.545   8.066  69.852  1.00  0.00    -0.087 A  
HETATM   12  N   UNL     1      -8.491   7.394  71.954  1.00  0.00    -0.106 NA 
HETATM   13  C   UNL     1      -7.497   7.377  71.043  1.00  0.00    -0.074 A  
BRANCH  10  14
HETATM   14  C   UNL     1     -10.679   8.075  72.750  1.00  0.00    -0.362 C  
BRANCH  14  15
HETATM   15  S   UNL     1     -11.976   6.940  72.201  1.00  0.00    -0.230 S  
HETATM   16  O   UNL     1     -12.629   7.369  70.920  1.00  0.00    -0.257 OA 
BRANCH  15  17
HETATM   17  C   UNL     1     -11.028   5.539  71.810  1.00  0.00    -0.182 A  
HETATM   18  N   UNL     1     -10.548   5.236  70.623  1.00  0.00    -0.233 NA 
HETATM   19  C   UNL     1      -9.779   4.111  70.821  1.00  0.00    -0.196 A  
HETATM   20  H   UNL     1     -10.711   5.728  69.744  1.00  0.00     0.000 HD 
HETATM   21  C   UNL     1      -9.031   3.362  69.900  1.00  0.00    -0.172 A  
HETATM   22  C   UNL     1      -8.269   2.282  70.369  1.00  0.00    -0.063 A  
HETATM   23  C   UNL     1      -8.253   1.953  71.727  1.00  0.00    -0.047 A  
HETATM   24  C   UNL     1      -9.014   2.672  72.657  1.00  0.00    -0.103 A  
HETATM   25  C   UNL     1      -9.773   3.737  72.162  1.00  0.00    -0.161 A  
HETATM   26  N   UNL     1     -10.628   4.630  72.758  1.00  0.00    -0.203 NA 
ENDBRANCH  15  17
ENDBRANCH  14  15
ENDBRANCH  10  14
ENDBRANCH   6   7
ENDBRANCH   5   6
ENDBRANCH   4   5
ENDBRANCH   3   4
ENDBRANCH   2   3
TORSDOF 8
ENDMDL
MODEL      255
REMARK 921   NORMALIZED FREE ENERGY PREDICTED BY IDOCK:   -3.10 KCAL/MOL
REMARK 922        TOTAL FREE ENERGY PREDICTED BY IDOCK:   -5.42 KCAL/MOL
REMARK 923 INTER-LIGAND FREE ENERGY PREDICTED BY IDOCK:   -5.01 KCAL/MOL
REMARK 924 INTRA-LIGAND FREE ENERGY PREDICTED BY IDOCK:   -0.40 KCAL/MOL
REMARK 927      BINDING AFFINITY PREDICTED BY RF-SCORE:    0.00 PKD
ROOT
HETATM    1  C   UNL     1      -8.494   5.171  67.102  1.00  0.00    -0.106 C  
HETATM    2  O   UNL     1      -8.515   5.065  68.520  1.00  0.00    -0.091 OA 
ENDROOT
BRANCH   2   3
HETATM    3  C   UNL     1      -8.438   6.339  69.155  1.00  0.00    -0.120 C  
BRANCH   3   4
HETATM    4  C   UNL     1      -9.818   6.986  69.153  1.00  0.00    -0.158 C  
BRANCH   4   5
HETATM    5  C   UNL     1      -9.734   8.507  69.276  1.00  0.00    -0.173 C  
BRANCH   5   6
HETATM    6  O   UNL     1      -8.866   9.009  68.248  1.00  0.00    -0.133 OA 
BRANCH   6   7
HETATM    7  C   UNL     1      -8.190  10.164  68.568  1.00  0.00    -0.111 A  
HETATM    8  C   UNL     1      -8.604  11.356  67.943  1.00  0.00    -0.140 A  
HETATM    9  C   UNL     1      -9.671  11.324  66.885  1.00  0.00    -0.215 C  
HETATM   10  C   UNL     1      -8.018  12.559  68.376  1.00  0.00    -0.139 A  
HETATM   11  C   UNL     1      -7.126  10.186  69.466  1.00  0.00    -0.101 A  
HETATM   12  N   UNL     1      -7.013  12.578  69.297  1.00  0.00    -0.026 NA 
HETATM   13  C   UNL     1      -6.568  11.403  69.786  1.00  0.00    -0.111 A  
BRANCH  10  14
HETATM   14  C   UNL     1      -8.518  13.929  67.958  1.00  0.00    -0.173 C  
BRANCH  14  15
HETATM   15  S   UNL     1      -7.951  15.221  69.089  1.00  0.00    -0.227 S  
HETATM   16  O   UNL     1      -6.465  15.431  69.043  1.00  0.00    -0.105 OA 
BRANCH  15  17
HETATM   17  C   UNL     1      -8.655  16.624  68.348  1.00  0.00    -0.221 A  
HETATM   18  N   UNL     1      -8.314  17.874  68.576  1.00  0.00    -0.302 NA 
HETATM   19  C   UNL     1      -9.058  18.619  67.688  1.00  0.00    -0.278 A  
HETATM   20  H   UNL     1      -7.643  18.218  69.263  1.00  0.00     0.000 HD 
HETATM   21  C   UNL     1      -9.093  20.008  67.490  1.00  0.00    -0.457 A  
HETATM   22  C   UNL     1      -9.896  20.523  66.464  1.00  0.00    -0.340 A  
HETATM   23  C   UNL     1     -10.652  19.675  65.651  1.00  0.00    -0.462 A  
HETATM   24  C   UNL     1     -10.652  18.289  65.851  1.00  0.00    -0.274 A  
HETATM   25  C   UNL     1      -9.851  17.802  66.888  1.00  0.00    -0.312 A  
HETATM   26  N   UNL     1      -9.618  16.539  67.372  1.00  0.00    -0.236 NA 
ENDBRANCH  15  17
ENDBRANCH  14  15
ENDBRANCH  10  14
ENDBRANCH   6   7
ENDBRANCH   5   6
ENDBRANCH   4   5
ENDBRANCH   3   4
ENDBRANCH   2   3
TORSDOF 8
ENDMDL
MODEL      256
REMARK 921   NORMALIZED FREE ENERGY PREDICTED BY IDOCK:   -2.99 KCAL/MOL
REMARK 922        TOTAL FREE ENERGY PREDICTED BY IDOCK:   -5.26 KCAL/MOL
REMARK 923 INTER-LIGAND FREE ENERGY PREDICTED BY IDOCK:   -4.54 KCAL/MOL
REMARK 924 INTRA-LIGAND FREE ENERGY PREDICTED BY IDOCK:   -0.72 KCAL/MOL
REMARK 927      BINDING AFFINITY PREDICTED BY RF-SCORE:    0.00 PKD
ROOT
HETATM    1  C   UNL     1      -6.581   1.718  66.978  1.00  0.00    -0.034 C  
HETATM    2  O   UNL     1      -6.017   2.646  66.059  1.00  0.00    -0.022 OA 
ENDROOT
BRANCH   2   3
HETATM    3  C   UNL     1      -5.254   3.656  66.716  1.00  0.00    -0.012 C  
BRANCH   3   4
HETATM    4  C   UNL     1      -6.031   4.967  66.695  1.00  0.00    -0.027 C  
BRANCH   4   5
HETATM    5  C   UNL     1      -6.680   5.266  68.046  1.00  0.00    -0.055 C  
BRANCH   5   6
HETATM    6  O   UNL     1      -6.702   6.688  68.246  1.00  0.00    -0.062 OA 
BRANCH   6   7
HETATM    7  C   UNL     1      -7.870   7.311  67.870  1.00  0.00    -0.118 A  
HETATM    8  C   UNL     1      -8.060   8.644  68.283  1.00  0.00    -0.118 A  
HETATM    9  C   UNL     1      -7.062   9.303  69.194  1.00  0.00    -0.062 C  
HETATM   10  C   UNL     1      -9.178   9.332  67.778  1.00  0.00    -0.129 A  
HETATM   11  C   UNL     1      -8.852   6.672  67.117  1.00  0.00    -0.115 A  
HETATM   12  N   UNL     1     -10.109   8.714  66.996  1.00  0.00    -0.244 NA 
HETATM   13  C   UNL     1      -9.947   7.405  66.719  1.00  0.00    -0.230 A  
BRANCH  10  14
HETATM   14  C   UNL     1      -9.389  10.823  67.953  1.00  0.00    -0.150 C  
BRANCH  14  15
HETATM   15  S   UNL     1     -10.845  11.178  68.968  1.00  0.00    -0.243 S  
HETATM   16  O   UNL     1     -12.120  11.203  68.177  1.00  0.00    -0.633 OA 
BRANCH  15  17
HETATM   17  C   UNL     1     -10.913   9.741  69.940  1.00  0.00    -0.264 A  
HETATM   18  N   UNL     1     -11.675   8.692  69.719  1.00  0.00    -0.220 NA 
HETATM   19  C   UNL     1     -11.307   7.771  70.674  1.00  0.00    -0.264 A  
HETATM   20  H   UNL     1     -12.387   8.584  68.996  1.00  0.00     0.000 HD 
HETATM   21  C   UNL     1     -11.792   6.474  70.903  1.00  0.00    -0.391 A  
HETATM   22  C   UNL     1     -11.199   5.701  71.911  1.00  0.00    -0.246 A  
HETATM   23  C   UNL     1     -10.146   6.208  72.677  1.00  0.00    -0.199 A  
HETATM   24  C   UNL     1      -9.667   7.509  72.481  1.00  0.00    -0.218 A  
HETATM   25  C   UNL     1     -10.283   8.263  71.477  1.00  0.00    -0.214 A  
HETATM   26  N   UNL     1     -10.094   9.544  71.024  1.00  0.00    -0.272 NA 
ENDBRANCH  15  17
ENDBRANCH  14  15
ENDBRANCH  10  14
ENDBRANCH   6   7
ENDBRANCH   5   6
ENDBRANCH   4   5
ENDBRANCH   3   4
ENDBRANCH   2   3
TORSDOF 8
ENDMDL
MODEL      257
REMARK 921   NORMALIZED FREE ENERGY PREDICTED BY IDOCK:   -2.93 KCAL/MOL
REMARK 922        TOTAL FREE ENERGY PREDICTED BY IDOCK:   -5.18 KCAL/MOL
REMARK 923 INTER-LIGAND FREE ENERGY PREDICTED BY IDOCK:   -3.90 KCAL/MOL
REMARK 924 INTRA-LIGAND FREE ENERGY PREDICTED BY IDOCK:   -1.27 KCAL/MOL
REMARK 927      BINDING AFFINITY PREDICTED BY RF-SCORE:    0.00 PKD
ROOT
HETATM    1  C   UNL     1      -7.949   3.705  69.707  1.00  0.00    -0.050 C  
HETATM    2  O   UNL     1      -7.840   4.302  68.421  1.00  0.00    -0.074 OA 
ENDROOT
BRANCH   2   3
HETATM    3  C   UNL     1      -6.493   4.651  68.104  1.00  0.00    -0.041 C  
BRANCH   3   4
HETATM    4  C   UNL     1      -6.487   5.928  67.272  1.00  0.00    -0.047 C  
BRANCH   4   5
HETATM    5  C   UNL     1      -6.314   7.173  68.141  1.00  0.00    -0.043 C  
BRANCH   5   6
HETATM    6  O   UNL     1      -5.983   8.287  67.297  1.00  0.00    -0.048 OA 
BRANCH   6   7
HETATM    7  C   UNL     1      -6.535   9.489  67.676  1.00  0.00    -0.062 A  
HETATM    8  C   UNL     1      -7.264  10.206  66.708  1.00  0.00    -0.093 A  
HETATM    9  C   UNL     1      -7.328   9.711  65.290  1.00  0.00    -0.113 C  
HETATM   10  C   UNL     1      -7.953  11.357  67.128  1.00  0.00    -0.156 A  
HETATM   11  C   UNL     1      -6.388  10.010  68.959  1.00  0.00    -0.044 A  
HETATM   12  N   UNL     1      -7.848  11.833  68.402  1.00  0.00    -0.135 NA 
HETATM   13  C   UNL     1      -7.048  11.179  69.267  1.00  0.00    -0.123 A  
BRANCH  10  14
HETATM   14  C   UNL     1      -8.950  12.097  66.258  1.00  0.00    -0.094 C  
BRANCH  14  15
HETATM   15  S   UNL     1     -10.639  11.926  66.883  1.00  0.00    -0.239 S  
HETATM   16  O   UNL     1     -11.671  11.917  65.793  1.00  0.00    -0.390 OA 
BRANCH  15  17
HETATM   17  C   UNL     1     -10.586  10.306  67.504  1.00  0.00    -0.268 A  
HETATM   18  N   UNL     1     -10.519   9.965  68.773  1.00  0.00    -0.204 NA 
HETATM   19  C   UNL     1     -10.613   8.591  68.783  1.00  0.00    -0.133 A  
HETATM   20  H   UNL     1     -10.419  10.585  69.577  1.00  0.00     0.000 HD 
HETATM   21  C   UNL     1     -10.601   7.698  69.866  1.00  0.00    -0.237 A  
HETATM   22  C   UNL     1     -10.780   6.331  69.615  1.00  0.00    -0.367 A  
HETATM   23  C   UNL     1     -10.966   5.860  68.312  1.00  0.00    -0.262 A  
HETATM   24  C   UNL     1     -10.954   6.732  67.217  1.00  0.00    -0.433 A  
HETATM   25  C   UNL     1     -10.762   8.089  67.493  1.00  0.00    -0.168 A  
HETATM   26  N   UNL     1     -10.680   9.201  66.694  1.00  0.00    -0.079 NA 
ENDBRANCH  15  17
ENDBRANCH  14  15
ENDBRANCH  10  14
ENDBRANCH   6   7
ENDBRANCH   5   6
ENDBRANCH   4   5
ENDBRANCH   3   4
ENDBRANCH   2   3
TORSDOF 8
ENDMDL
MODEL      258
REMARK 921   NORMALIZED FREE ENERGY PREDICTED BY IDOCK:   -2.90 KCAL/MOL
REMARK 922        TOTAL FREE ENERGY PREDICTED BY IDOCK:   -5.12 KCAL/MOL
REMARK 923 INTER-LIGAND FREE ENERGY PREDICTED BY IDOCK:   -4.35 KCAL/MOL
REMARK 924 INTRA-LIGAND FREE ENERGY PREDICTED BY IDOCK:   -0.77 KCAL/MOL
REMARK 927      BINDING AFFINITY PREDICTED BY RF-SCORE:    0.00 PKD
ROOT
HETATM    1  C   UNL     1     -11.440  15.133  69.002  1.00  0.00    -0.309 C  
HETATM    2  O   UNL     1     -10.929  15.828  67.871  1.00  0.00    -0.308 OA 
ENDROOT
BRANCH   2   3
HETATM    3  C   UNL     1     -11.307  15.206  66.644  1.00  0.00    -0.234 C  
BRANCH   3   4
HETATM    4  C   UNL     1     -11.436  13.703  66.861  1.00  0.00    -0.369 C  
BRANCH   4   5
HETATM    5  C   UNL     1     -10.217  12.946  66.335  1.00  0.00    -0.267 C  
BRANCH   5   6
HETATM    6  O   UNL     1      -9.449  12.469  67.452  1.00  0.00    -0.177 OA 
BRANCH   6   7
HETATM    7  C   UNL     1      -9.834  11.243  67.943  1.00  0.00    -0.176 A  
HETATM    8  C   UNL     1      -9.233  10.099  67.383  1.00  0.00    -0.156 A  
HETATM    9  C   UNL     1      -8.292  10.232  66.218  1.00  0.00    -0.134 C  
HETATM   10  C   UNL     1      -9.510   8.856  67.980  1.00  0.00    -0.143 A  
HETATM   11  C   UNL     1     -10.787  11.103  68.948  1.00  0.00    -0.261 A  
HETATM   12  N   UNL     1     -10.405   8.734  69.002  1.00  0.00    -0.211 NA 
HETATM   13  C   UNL     1     -11.045   9.840  69.431  1.00  0.00    -0.170 A  
BRANCH  10  14
HETATM   14  C   UNL     1      -8.769   7.580  67.633  1.00  0.00    -0.122 C  
BRANCH  14  15
HETATM   15  S   UNL     1      -7.295   7.363  68.658  1.00  0.00    -0.098 S  
HETATM   16  O   UNL     1      -6.915   8.605  69.411  1.00  0.00    -0.051 OA 
BRANCH  15  17
HETATM   17  C   UNL     1      -7.894   6.248  69.846  1.00  0.00    -0.110 A  
HETATM   18  N   UNL     1      -9.109   6.234  70.352  1.00  0.00    -0.153 NA 
HETATM   19  C   UNL     1      -9.152   5.119  71.158  1.00  0.00    -0.143 A  
HETATM   20  H   UNL     1      -9.858   6.906  70.183  1.00  0.00     0.000 HD 
HETATM   21  C   UNL     1     -10.203   4.615  71.939  1.00  0.00    -0.254 A  
HETATM   22  C   UNL     1     -10.015   3.409  72.627  1.00  0.00    -0.219 A  
HETATM   23  C   UNL     1      -8.804   2.718  72.543  1.00  0.00    -0.097 A  
HETATM   24  C   UNL     1      -7.733   3.217  71.791  1.00  0.00    -0.053 A  
HETATM   25  C   UNL     1      -7.944   4.428  71.123  1.00  0.00    -0.081 A  
HETATM   26  N   UNL     1      -7.141   5.205  70.326  1.00  0.00    -0.052 NA 
ENDBRANCH  15  17
ENDBRANCH  14  15
ENDBRANCH  10  14
ENDBRANCH   6   7
ENDBRANCH   5   6
ENDBRANCH   4   5
ENDBRANCH   3   4
ENDBRANCH   2   3
TORSDOF 8
ENDMDL
MODEL      259
REMARK 921   NORMALIZED FREE ENERGY PREDICTED BY IDOCK:   -2.86 KCAL/MOL
REMARK 922        TOTAL FREE ENERGY PREDICTED BY IDOCK:   -5.07 KCAL/MOL
REMARK 923 INTER-LIGAND FREE ENERGY PREDICTED BY IDOCK:   -4.42 KCAL/MOL
REMARK 924 INTRA-LIGAND FREE ENERGY PREDICTED BY IDOCK:   -0.66 KCAL/MOL
REMARK 927      BINDING AFFINITY PREDICTED BY RF-SCORE:    0.00 PKD
ROOT
HETATM    1  C   UNL     1     -10.050   4.754  70.446  1.00  0.00    -0.231 C  
HETATM    2  O   UNL     1      -9.672   4.070  69.257  1.00  0.00    -0.188 OA 
ENDROOT
BRANCH   2   3
HETATM    3  C   UNL     1      -9.066   2.808  69.534  1.00  0.00    -0.122 C  
BRANCH   3   4
HETATM    4  C   UNL     1      -7.693   3.035  70.155  1.00  0.00    -0.044 C  
BRANCH   4   5
HETATM    5  C   UNL     1      -6.748   3.761  69.197  1.00  0.00    -0.045 C  
BRANCH   5   6
HETATM    6  O   UNL     1      -5.815   4.537  69.964  1.00  0.00    -0.015 OA 
BRANCH   6   7
HETATM    7  C   UNL     1      -6.319   5.708  70.483  1.00  0.00    -0.031 A  
HETATM    8  C   UNL     1      -6.316   6.844  69.651  1.00  0.00    -0.039 A  
HETATM    9  C   UNL     1      -5.679   6.784  68.291  1.00  0.00    -0.017 C  
HETATM   10  C   UNL     1      -6.963   8.001  70.121  1.00  0.00    -0.048 A  
HETATM   11  C   UNL     1      -6.811   5.802  71.782  1.00  0.00    -0.068 A  
HETATM   12  N   UNL     1      -7.492   8.068  71.376  1.00  0.00    -0.066 NA 
HETATM   13  C   UNL     1      -7.371   6.994  72.182  1.00  0.00    -0.082 A  
BRANCH  10  14
HETATM   14  C   UNL     1      -7.233   9.216  69.255  1.00  0.00    -0.065 C  
BRANCH  14  15
HETATM   15  S   UNL     1      -8.720   9.001  68.247  1.00  0.00    -0.130 S  
HETATM   16  O   UNL     1      -8.990   7.566  67.897  1.00  0.00    -0.132 OA 
BRANCH  15  17
HETATM   17  C   UNL     1      -9.947   9.455  69.387  1.00  0.00    -0.183 A  
HETATM   18  N   UNL     1     -10.397  10.673  69.597  1.00  0.00    -0.385 NA 
HETATM   19  C   UNL     1     -11.428  10.527  70.497  1.00  0.00    -0.345 A  
HETATM   20  H   UNL     1     -10.055  11.540  69.181  1.00  0.00     0.000 HD 
HETATM   21  C   UNL     1     -12.265  11.499  71.068  1.00  0.00    -0.368 A  
HETATM   22  C   UNL     1     -13.298  11.083  71.919  1.00  0.00    -0.423 A  
HETATM   23  C   UNL     1     -13.494   9.728  72.199  1.00  0.00    -0.491 A  
HETATM   24  C   UNL     1     -12.653   8.746  71.661  1.00  0.00    -0.393 A  
HETATM   25  C   UNL     1     -11.623   9.189  70.824  1.00  0.00    -0.276 A  
HETATM   26  N   UNL     1     -10.625   8.534  70.148  1.00  0.00    -0.228 NA 
ENDBRANCH  15  17
ENDBRANCH  14  15
ENDBRANCH  10  14
ENDBRANCH   6   7
ENDBRANCH   5   6
ENDBRANCH   4   5
ENDBRANCH   3   4
ENDBRANCH   2   3
TORSDOF 8
ENDMDL
MODEL      260
REMARK 921   NORMALIZED FREE ENERGY PREDICTED BY IDOCK:   -2.86 KCAL/MOL
REMARK 922        TOTAL FREE ENERGY PREDICTED BY IDOCK:   -5.07 KCAL/MOL
REMARK 923 INTER-LIGAND FREE ENERGY PREDICTED BY IDOCK:   -5.92 KCAL/MOL
REMARK 924 INTRA-LIGAND FREE ENERGY PREDICTED BY IDOCK:    0.85 KCAL/MOL
REMARK 927      BINDING AFFINITY PREDICTED BY RF-SCORE:    0.00 PKD
ROOT
HETATM    1  C   UNL     1      -9.377  19.629  67.742  1.00  0.00    -0.337 C  
HETATM    2  O   UNL     1     -10.226  18.552  67.363  1.00  0.00    -0.335 OA 
ENDROOT
BRANCH   2   3
HETATM    3  C   UNL     1     -10.179  18.299  65.960  1.00  0.00    -0.323 C  
BRANCH   3   4
HETATM    4  C   UNL     1     -10.731  16.906  65.682  1.00  0.00    -0.173 C  
BRANCH   4   5
HETATM    5  C   UNL     1      -9.710  15.815  66.006  1.00  0.00    -0.345 C  
BRANCH   5   6
HETATM    6  O   UNL     1     -10.374  14.750  66.703  1.00  0.00    -0.265 OA 
BRANCH   6   7
HETATM    7  C   UNL     1     -10.358  13.533  66.061  1.00  0.00    -0.303 A  
HETATM    8  C   UNL     1      -9.967  12.406  66.809  1.00  0.00    -0.234 A  
HETATM    9  C   UNL     1      -9.483  12.567  68.223  1.00  0.00    -0.201 C  
HETATM   10  C   UNL     1     -10.091  11.143  66.202  1.00  0.00    -0.238 A  
HETATM   11  C   UNL     1     -10.700  13.389  64.719  1.00  0.00    -0.403 A  
HETATM   12  N   UNL     1     -10.479  11.006  64.902  1.00  0.00    -0.314 NA 
HETATM   13  C   UNL     1     -10.734  12.120  64.187  1.00  0.00    -0.360 A  
BRANCH  10  14
HETATM   14  C   UNL     1      -9.924   9.836  66.953  1.00  0.00    -0.211 C  
BRANCH  14  15
HETATM   15  S   UNL     1     -10.112  10.063  68.738  1.00  0.00    -0.196 S  
HETATM   16  O   UNL     1     -11.540  10.265  69.157  1.00  0.00    -0.196 OA 
BRANCH  15  17
HETATM   17  C   UNL     1      -9.666   8.485  69.308  1.00  0.00    -0.173 A  
HETATM   18  N   UNL     1      -8.481   7.925  69.188  1.00  0.00    -0.136 NA 
HETATM   19  C   UNL     1      -8.572   6.738  69.880  1.00  0.00    -0.141 A  
HETATM   20  H   UNL     1      -7.670   8.291  68.689  1.00  0.00     0.000 HD 
HETATM   21  C   UNL     1      -7.604   5.742  70.085  1.00  0.00    -0.086 A  
HETATM   22  C   UNL     1      -7.926   4.644  70.893  1.00  0.00    -0.081 A  
HETATM   23  C   UNL     1      -9.187   4.536  71.486  1.00  0.00    -0.186 A  
HETATM   24  C   UNL     1     -10.175   5.505  71.271  1.00  0.00    -0.283 A  
HETATM   25  C   UNL     1      -9.831   6.585  70.452  1.00  0.00    -0.175 A  
HETATM   26  N   UNL     1     -10.527   7.685  70.019  1.00  0.00    -0.224 NA 
ENDBRANCH  15  17
ENDBRANCH  14  15
ENDBRANCH  10  14
ENDBRANCH   6   7
ENDBRANCH   5   6
ENDBRANCH   4   5
ENDBRANCH   3   4
ENDBRANCH   2   3
TORSDOF 8
ENDMDL
MODEL      261
REMARK 921   NORMALIZED FREE ENERGY PREDICTED BY IDOCK:   -2.85 KCAL/MOL
REMARK 922        TOTAL FREE ENERGY PREDICTED BY IDOCK:   -5.05 KCAL/MOL
REMARK 923 INTER-LIGAND FREE ENERGY PREDICTED BY IDOCK:   -4.21 KCAL/MOL
REMARK 924 INTRA-LIGAND FREE ENERGY PREDICTED BY IDOCK:   -0.85 KCAL/MOL
REMARK 927      BINDING AFFINITY PREDICTED BY RF-SCORE:    0.00 PKD
ROOT
HETATM    1  C   UNL     1      -9.937  11.507  65.899  1.00  0.00    -0.230 C  
HETATM    2  O   UNL     1      -8.873  11.149  66.772  1.00  0.00    -0.152 OA 
ENDROOT
BRANCH   2   3
HETATM    3  C   UNL     1      -9.343  10.528  67.966  1.00  0.00    -0.145 C  
BRANCH   3   4
HETATM    4  C   UNL     1     -10.294  11.476  68.686  1.00  0.00    -0.226 C  
BRANCH   4   5
HETATM    5  C   UNL     1     -10.980  10.802  69.873  1.00  0.00    -0.239 C  
BRANCH   5   6
HETATM    6  O   UNL     1     -11.356   9.468  69.496  1.00  0.00    -0.135 OA 
BRANCH   6   7
HETATM    7  C   UNL     1     -11.232   8.525  70.490  1.00  0.00    -0.242 A  
HETATM    8  C   UNL     1     -10.971   7.197  70.100  1.00  0.00    -0.293 A  
HETATM    9  C   UNL     1     -10.944   6.828  68.643  1.00  0.00    -0.261 C  
HETATM   10  C   UNL     1     -10.697   6.260  71.113  1.00  0.00    -0.249 A  
HETATM   11  C   UNL     1     -11.365   8.837  71.841  1.00  0.00    -0.431 A  
HETATM   12  N   UNL     1     -10.775   6.586  72.434  1.00  0.00    -0.216 NA 
HETATM   13  C   UNL     1     -11.141   7.841  72.765  1.00  0.00    -0.398 A  
BRANCH  10  14
HETATM   14  C   UNL     1     -10.183   4.860  70.837  1.00  0.00    -0.202 C  
BRANCH  14  15
HETATM   15  S   UNL     1      -8.375   4.805  70.811  1.00  0.00    -0.095 S  
HETATM   16  O   UNL     1      -7.798   3.941  71.894  1.00  0.00    -0.067 OA 
BRANCH  15  17
HETATM   17  C   UNL     1      -8.104   3.952  69.324  1.00  0.00    -0.054 A  
HETATM   18  N   UNL     1      -8.727   2.862  68.931  1.00  0.00    -0.075 NA 
HETATM   19  C   UNL     1      -8.265   2.621  67.656  1.00  0.00    -0.076 A  
HETATM   20  H   UNL     1      -9.406   2.313  69.458  1.00  0.00     0.000 HD 
HETATM   21  C   UNL     1      -8.594   1.591  66.762  1.00  0.00    -0.105 A  
HETATM   22  C   UNL     1      -8.028   1.604  65.480  1.00  0.00    -0.073 A  
HETATM   23  C   UNL     1      -7.151   2.621  65.095  1.00  0.00    -0.057 A  
HETATM   24  C   UNL     1      -6.789   3.642  65.981  1.00  0.00    -0.060 A  
HETATM   25  C   UNL     1      -7.359   3.599  67.258  1.00  0.00    -0.064 A  
HETATM   26  N   UNL     1      -7.230   4.401  68.364  1.00  0.00    -0.059 NA 
ENDBRANCH  15  17
ENDBRANCH  14  15
ENDBRANCH  10  14
ENDBRANCH   6   7
ENDBRANCH   5   6
ENDBRANCH   4   5
ENDBRANCH   3   4
ENDBRANCH   2   3
TORSDOF 8
ENDMDL
MODEL      262
REMARK 921   NORMALIZED FREE ENERGY PREDICTED BY IDOCK:   -2.80 KCAL/MOL
REMARK 922        TOTAL FREE ENERGY PREDICTED BY IDOCK:   -4.98 KCAL/MOL
REMARK 923 INTER-LIGAND FREE ENERGY PREDICTED BY IDOCK:   -4.01 KCAL/MOL
REMARK 924 INTRA-LIGAND FREE ENERGY PREDICTED BY IDOCK:   -0.97 KCAL/MOL
REMARK 927      BINDING AFFINITY PREDICTED BY RF-SCORE:    0.00 PKD
ROOT
HETATM    1  C   UNL     1      -5.149  16.698  66.090  1.00  0.00     0.814 C  
HETATM    2  O   UNL     1      -6.252  16.859  66.973  1.00  0.00    -0.157 OA 
ENDROOT
BRANCH   2   3
HETATM    3  C   UNL     1      -6.942  18.088  66.752  1.00  0.00    -0.195 C  
BRANCH   3   4
HETATM    4  C   UNL     1      -8.133  17.838  65.835  1.00  0.00    -0.027 C  
BRANCH   4   5
HETATM    5  C   UNL     1      -9.268  17.116  66.562  1.00  0.00    -0.266 C  
BRANCH   5   6
HETATM    6  O   UNL     1      -9.723  16.026  65.745  1.00  0.00    -0.320 OA 
BRANCH   6   7
HETATM    7  C   UNL     1     -10.329  14.998  66.430  1.00  0.00    -0.287 A  
HETATM    8  C   UNL     1     -10.785  13.895  65.682  1.00  0.00    -0.292 A  
HETATM    9  C   UNL     1     -10.705  13.915  64.182  1.00  0.00     0.046 C  
HETATM   10  C   UNL     1     -11.269  12.780  66.390  1.00  0.00    -0.299 A  
HETATM   11  C   UNL     1     -10.508  15.020  67.811  1.00  0.00    -0.249 A  
HETATM   12  N   UNL     1     -11.390  12.788  67.748  1.00  0.00    -0.275 NA 
HETATM   13  C   UNL     1     -11.048  13.908  68.416  1.00  0.00    -0.255 A  
BRANCH  10  14
HETATM   14  C   UNL     1     -11.581  11.448  65.735  1.00  0.00     0.252 C  
BRANCH  14  15
HETATM   15  S   UNL     1     -10.095  10.437  65.535  1.00  0.00    -0.261 S  
HETATM   16  O   UNL     1      -8.825  11.223  65.681  1.00  0.00    -0.189 OA 
BRANCH  15  17
HETATM   17  C   UNL     1     -10.202   9.433  66.948  1.00  0.00    -0.248 A  
HETATM   18  N   UNL     1     -10.692   9.789  68.116  1.00  0.00    -0.289 NA 
HETATM   19  C   UNL     1     -10.671   8.644  68.880  1.00  0.00    -0.082 A  
HETATM   20  H   UNL     1     -11.017  10.715  68.395  1.00  0.00     0.000 HD 
HETATM   21  C   UNL     1     -11.081   8.443  70.207  1.00  0.00    -0.216 A  
HETATM   22  C   UNL     1     -11.019   7.150  70.744  1.00  0.00    -0.278 A  
HETATM   23  C   UNL     1     -10.555   6.077  69.977  1.00  0.00    -0.340 A  
HETATM   24  C   UNL     1     -10.116   6.263  68.661  1.00  0.00    -0.185 A  
HETATM   25  C   UNL     1     -10.179   7.564  68.153  1.00  0.00    -0.189 A  
HETATM   26  N   UNL     1      -9.831   8.111  66.944  1.00  0.00    -0.222 NA 
ENDBRANCH  15  17
ENDBRANCH  14  15
ENDBRANCH  10  14
ENDBRANCH   6   7
ENDBRANCH   5   6
ENDBRANCH   4   5
ENDBRANCH   3   4
ENDBRANCH   2   3
TORSDOF 8
ENDMDL
MODEL      263
REMARK 921   NORMALIZED FREE ENERGY PREDICTED BY IDOCK:   -2.79 KCAL/MOL
REMARK 922        TOTAL FREE ENERGY PREDICTED BY IDOCK:   -4.97 KCAL/MOL
REMARK 923 INTER-LIGAND FREE ENERGY PREDICTED BY IDOCK:   -4.19 KCAL/MOL
REMARK 924 INTRA-LIGAND FREE ENERGY PREDICTED BY IDOCK:   -0.78 KCAL/MOL
REMARK 927      BINDING AFFINITY PREDICTED BY RF-SCORE:    0.00 PKD
ROOT
HETATM    1  C   UNL     1      -7.261  17.739  66.129  1.00  0.00    -0.311 C  
HETATM    2  O   UNL     1      -8.104  18.398  67.066  1.00  0.00    -0.222 OA 
ENDROOT
BRANCH   2   3
HETATM    3  C   UNL     1      -9.058  19.245  66.428  1.00  0.00    -0.352 C  
BRANCH   3   4
HETATM    4  C   UNL     1     -10.386  18.508  66.309  1.00  0.00    -0.459 C  
BRANCH   4   5
HETATM    5  C   UNL     1     -10.717  17.723  67.578  1.00  0.00    -0.307 C  
BRANCH   5   6
HETATM    6  O   UNL     1     -10.642  16.318  67.288  1.00  0.00    -0.309 OA 
BRANCH   6   7
HETATM    7  C   UNL     1      -9.615  15.648  67.912  1.00  0.00    -0.206 A  
HETATM    8  C   UNL     1      -9.092  14.510  67.267  1.00  0.00    -0.217 A  
HETATM    9  C   UNL     1      -9.724  14.001  66.002  1.00  0.00    -0.280 C  
HETATM   10  C   UNL     1      -7.949  13.911  67.825  1.00  0.00    -0.172 A  
HETATM   11  C   UNL     1      -9.095  16.048  69.140  1.00  0.00    -0.246 A  
HETATM   12  N   UNL     1      -7.411  14.343  69.001  1.00  0.00    -0.129 NA 
HETATM   13  C   UNL     1      -8.013  15.364  69.644  1.00  0.00    -0.138 A  
BRANCH  10  14
HETATM   14  C   UNL     1      -7.150  12.828  67.125  1.00  0.00     0.006 C  
BRANCH  14  15
HETATM   15  S   UNL     1      -7.036  11.327  68.129  1.00  0.00    -0.075 S  
HETATM   16  O   UNL     1      -8.291  11.041  68.902  1.00  0.00    -0.150 OA 
BRANCH  15  17
HETATM   17  C   UNL     1      -6.954  10.118  66.886  1.00  0.00    -0.089 A  
HETATM   18  N   UNL     1      -5.943   9.306  66.662  1.00  0.00    -0.059 NA 
HETATM   19  C   UNL     1      -6.374   8.461  65.664  1.00  0.00    -0.052 A  
HETATM   20  H   UNL     1      -5.035   9.303  67.128  1.00  0.00     0.000 HD 
HETATM   21  C   UNL     1      -5.705   7.398  65.037  1.00  0.00    -0.037 A  
HETATM   22  C   UNL     1      -6.393   6.638  64.081  1.00  0.00    -0.035 A  
HETATM   23  C   UNL     1      -7.720   6.931  63.753  1.00  0.00    -0.118 A  
HETATM   24  C   UNL     1      -8.395   8.004  64.348  1.00  0.00    -0.026 A  
HETATM   25  C   UNL     1      -7.682   8.753  65.289  1.00  0.00    -0.098 A  
HETATM   26  N   UNL     1      -8.005   9.852  66.043  1.00  0.00    -0.111 NA 
ENDBRANCH  15  17
ENDBRANCH  14  15
ENDBRANCH  10  14
ENDBRANCH   6   7
ENDBRANCH   5   6
ENDBRANCH   4   5
ENDBRANCH   3   4
ENDBRANCH   2   3
TORSDOF 8
ENDMDL
MODEL      264
REMARK 921   NORMALIZED FREE ENERGY PREDICTED BY IDOCK:   -2.74 KCAL/MOL
REMARK 922        TOTAL FREE ENERGY PREDICTED BY IDOCK:   -4.89 KCAL/MOL
REMARK 923 INTER-LIGAND FREE ENERGY PREDICTED BY IDOCK:   -4.29 KCAL/MOL
REMARK 924 INTRA-LIGAND FREE ENERGY PREDICTED BY IDOCK:   -0.60 KCAL/MOL
REMARK 927      BINDING AFFINITY PREDICTED BY RF-SCORE:    0.00 PKD
ROOT
HETATM    1  C   UNL     1     -10.775   3.710  64.005  1.00  0.00    -0.239 C  
HETATM    2  O   UNL     1      -9.385   4.007  63.955  1.00  0.00    -0.142 OA 
ENDROOT
BRANCH   2   3
HETATM    3  C   UNL     1      -8.582   2.830  64.027  1.00  0.00    -0.086 C  
BRANCH   3   4
HETATM    4  C   UNL     1      -7.724   2.883  65.285  1.00  0.00    -0.081 C  
BRANCH   4   5
HETATM    5  C   UNL     1      -7.234   4.300  65.581  1.00  0.00    -0.072 C  
BRANCH   5   6
HETATM    6  O   UNL     1      -8.186   4.952  66.435  1.00  0.00    -0.107 OA 
BRANCH   6   7
HETATM    7  C   UNL     1      -7.693   5.358  67.654  1.00  0.00    -0.092 A  
HETATM    8  C   UNL     1      -7.742   6.733  67.953  1.00  0.00    -0.112 A  
HETATM    9  C   UNL     1      -8.214   7.715  66.918  1.00  0.00    -0.120 C  
HETATM   10  C   UNL     1      -7.378   7.134  69.251  1.00  0.00    -0.091 A  
HETATM   11  C   UNL     1      -7.151   4.467  68.577  1.00  0.00    -0.053 A  
HETATM   12  N   UNL     1      -6.898   6.247  70.169  1.00  0.00    -0.053 NA 
HETATM   13  C   UNL     1      -6.760   4.957  69.804  1.00  0.00    -0.043 A  
BRANCH  10  14
HETATM   14  C   UNL     1      -7.592   8.539  69.781  1.00  0.00    -0.083 C  
BRANCH  14  15
HETATM   15  S   UNL     1      -9.237   8.736  70.507  1.00  0.00    -0.205 S  
HETATM   16  O   UNL     1      -9.197   9.171  71.943  1.00  0.00    -0.354 OA 
BRANCH  15  17
HETATM   17  C   UNL     1      -9.819  10.102  69.609  1.00  0.00    -0.225 A  
HETATM   18  N   UNL     1     -10.956  10.733  69.808  1.00  0.00    -0.326 NA 
HETATM   19  C   UNL     1     -10.933  11.803  68.943  1.00  0.00    -0.239 A  
HETATM   20  H   UNL     1     -11.697  10.482  70.464  1.00  0.00     0.000 HD 
HETATM   21  C   UNL     1     -11.887  12.811  68.735  1.00  0.00    -0.346 A  
HETATM   22  C   UNL     1     -11.595  13.841  67.831  1.00  0.00    -0.376 A  
HETATM   23  C   UNL     1     -10.377  13.869  67.146  1.00  0.00    -0.265 A  
HETATM   24  C   UNL     1      -9.424  12.858  67.319  1.00  0.00    -0.216 A  
HETATM   25  C   UNL     1      -9.745  11.836  68.218  1.00  0.00    -0.199 A  
HETATM   26  N   UNL     1      -9.081  10.705  68.620  1.00  0.00    -0.162 NA 
ENDBRANCH  15  17
ENDBRANCH  14  15
ENDBRANCH  10  14
ENDBRANCH   6   7
ENDBRANCH   5   6
ENDBRANCH   4   5
ENDBRANCH   3   4
ENDBRANCH   2   3
TORSDOF 8
ENDMDL
MODEL      265
REMARK 921   NORMALIZED FREE ENERGY PREDICTED BY IDOCK:   -2.71 KCAL/MOL
REMARK 922        TOTAL FREE ENERGY PREDICTED BY IDOCK:   -4.85 KCAL/MOL
REMARK 923 INTER-LIGAND FREE ENERGY PREDICTED BY IDOCK:   -4.56 KCAL/MOL
REMARK 924 INTRA-LIGAND FREE ENERGY PREDICTED BY IDOCK:   -0.29 KCAL/MOL
REMARK 927      BINDING AFFINITY PREDICTED BY RF-SCORE:    0.00 PKD
ROOT
HETATM    1  C   UNL     1      -5.195   8.205  68.087  1.00  0.00    -0.033 C  
HETATM    2  O   UNL     1      -5.574   7.042  67.362  1.00  0.00    -0.021 OA 
ENDROOT
BRANCH   2   3
HETATM    3  C   UNL     1      -5.145   5.844  68.006  1.00  0.00    -0.004 C  
BRANCH   3   4
HETATM    4  C   UNL     1      -6.321   5.229  68.756  1.00  0.00    -0.035 C  
BRANCH   4   5
HETATM    5  C   UNL     1      -7.609   5.280  67.936  1.00  0.00    -0.084 C  
BRANCH   5   6
HETATM    6  O   UNL     1      -8.694   5.659  68.798  1.00  0.00    -0.107 OA 
BRANCH   6   7
HETATM    7  C   UNL     1      -8.898   7.014  68.917  1.00  0.00    -0.130 A  
HETATM    8  C   UNL     1      -9.388   7.702  67.790  1.00  0.00    -0.153 A  
HETATM    9  C   UNL     1      -9.568   6.980  66.483  1.00  0.00    -0.201 C  
HETATM   10  C   UNL     1      -9.738   9.054  67.949  1.00  0.00    -0.155 A  
HETATM   11  C   UNL     1      -8.629   7.713  70.091  1.00  0.00    -0.140 A  
HETATM   12  N   UNL     1      -9.523   9.719  69.120  1.00  0.00    -0.178 NA 
HETATM   13  C   UNL     1      -8.944   9.052  70.139  1.00  0.00    -0.184 A  
BRANCH  10  14
HETATM   14  C   UNL     1     -10.481   9.854  66.897  1.00  0.00    -0.215 C  
BRANCH  14  15
HETATM   15  S   UNL     1      -9.365  10.470  65.613  1.00  0.00    -0.216 S  
HETATM   16  O   UNL     1      -9.729   9.990  64.238  1.00  0.00    -0.296 OA 
BRANCH  15  17
HETATM   17  C   UNL     1      -9.747  12.163  65.646  1.00  0.00    -0.207 A  
HETATM   18  N   UNL     1      -8.944  13.131  66.033  1.00  0.00    -0.378 NA 
HETATM   19  C   UNL     1      -9.633  14.295  65.779  1.00  0.00    -0.155 A  
HETATM   20  H   UNL     1      -8.011  13.038  66.436  1.00  0.00     0.000 HD 
HETATM   21  C   UNL     1      -9.252  15.629  65.994  1.00  0.00    -0.374 A  
HETATM   22  C   UNL     1     -10.118  16.652  65.585  1.00  0.00    -0.244 A  
HETATM   23  C   UNL     1     -11.340  16.355  64.974  1.00  0.00    -0.025 A  
HETATM   24  C   UNL     1     -11.749  15.031  64.776  1.00  0.00    -0.370 A  
HETATM   25  C   UNL     1     -10.872  14.030  65.204  1.00  0.00    -0.369 A  
HETATM   26  N   UNL     1     -10.942  12.660  65.187  1.00  0.00    -0.284 NA 
ENDBRANCH  15  17
ENDBRANCH  14  15
ENDBRANCH  10  14
ENDBRANCH   6   7
ENDBRANCH   5   6
ENDBRANCH   4   5
ENDBRANCH   3   4
ENDBRANCH   2   3
TORSDOF 8
ENDMDL
MODEL      266
REMARK 921   NORMALIZED FREE ENERGY PREDICTED BY IDOCK:   -2.69 KCAL/MOL
REMARK 922        TOTAL FREE ENERGY PREDICTED BY IDOCK:   -4.83 KCAL/MOL
REMARK 923 INTER-LIGAND FREE ENERGY PREDICTED BY IDOCK:   -4.75 KCAL/MOL
REMARK 924 INTRA-LIGAND FREE ENERGY PREDICTED BY IDOCK:   -0.07 KCAL/MOL
REMARK 927      BINDING AFFINITY PREDICTED BY RF-SCORE:    0.00 PKD
ROOT
HETATM    1  C   UNL     1     -10.064  11.394  65.666  1.00  0.00    -0.248 C  
HETATM    2  O   UNL     1      -9.445  10.574  64.683  1.00  0.00    -0.214 OA 
ENDROOT
BRANCH   2   3
HETATM    3  C   UNL     1      -8.063  10.355  64.960  1.00  0.00    -0.136 C  
BRANCH   3   4
HETATM    4  C   UNL     1      -7.909   9.077  65.775  1.00  0.00    -0.098 C  
BRANCH   4   5
HETATM    5  C   UNL     1      -6.601   9.059  66.565  1.00  0.00    -0.067 C  
BRANCH   5   6
HETATM    6  O   UNL     1      -6.612   7.935  67.458  1.00  0.00    -0.054 OA 
BRANCH   6   7
HETATM    7  C   UNL     1      -6.465   8.247  68.790  1.00  0.00    -0.053 A  
HETATM    8  C   UNL     1      -7.130   7.434  69.728  1.00  0.00    -0.068 A  
HETATM    9  C   UNL     1      -8.050   6.340  69.262  1.00  0.00    -0.110 C  
HETATM   10  C   UNL     1      -6.865   7.656  71.091  1.00  0.00    -0.049 A  
HETATM   11  C   UNL     1      -5.702   9.327  69.227  1.00  0.00    -0.035 A  
HETATM   12  N   UNL     1      -6.072   8.683  71.511  1.00  0.00    -0.048 NA 
HETATM   13  C   UNL     1      -5.547   9.509  70.583  1.00  0.00    -0.049 A  
BRANCH  10  14
HETATM   14  C   UNL     1      -7.328   6.724  72.194  1.00  0.00    -0.088 C  
BRANCH  14  15
HETATM   15  S   UNL     1      -8.138   7.627  73.536  1.00  0.00    -0.166 S  
HETATM   16  O   UNL     1      -7.324   8.781  74.043  1.00  0.00    -0.392 OA 
BRANCH  15  17
HETATM   17  C   UNL     1      -9.480   8.325  72.685  1.00  0.00    -0.284 A  
HETATM   18  N   UNL     1     -10.750   8.199  73.004  1.00  0.00    -0.261 NA 
HETATM   19  C   UNL     1     -11.427   9.008  72.120  1.00  0.00    -0.258 A  
HETATM   20  H   UNL     1     -11.148   7.624  73.748  1.00  0.00     0.000 HD 
HETATM   21  C   UNL     1     -12.803   9.259  72.006  1.00  0.00    -0.495 A  
HETATM   22  C   UNL     1     -13.243  10.187  71.052  1.00  0.00    -0.412 A  
HETATM   23  C   UNL     1     -12.332  10.853  70.228  1.00  0.00    -0.412 A  
HETATM   24  C   UNL     1     -10.958  10.596  70.308  1.00  0.00    -0.237 A  
HETATM   25  C   UNL     1     -10.547   9.658  71.260  1.00  0.00    -0.199 A  
HETATM   26  N   UNL     1      -9.317   9.156  71.604  1.00  0.00    -0.322 NA 
ENDBRANCH  15  17
ENDBRANCH  14  15
ENDBRANCH  10  14
ENDBRANCH   6   7
ENDBRANCH   5   6
ENDBRANCH   4   5
ENDBRANCH   3   4
ENDBRANCH   2   3
TORSDOF 8
ENDMDL
MODEL      267
REMARK 921   NORMALIZED FREE ENERGY PREDICTED BY IDOCK:   -2.69 KCAL/MOL
REMARK 922        TOTAL FREE ENERGY PREDICTED BY IDOCK:   -4.82 KCAL/MOL
REMARK 923 INTER-LIGAND FREE ENERGY PREDICTED BY IDOCK:   -4.56 KCAL/MOL
REMARK 924 INTRA-LIGAND FREE ENERGY PREDICTED BY IDOCK:   -0.26 KCAL/MOL
REMARK 927      BINDING AFFINITY PREDICTED BY RF-SCORE:    0.00 PKD
ROOT
HETATM    1  C   UNL     1      -5.137   8.874  68.740  1.00  0.00    -0.033 C  
HETATM    2  O   UNL     1      -5.729   8.220  67.624  1.00  0.00    -0.037 OA 
ENDROOT
BRANCH   2   3
HETATM    3  C   UNL     1      -5.427   6.826  67.597  1.00  0.00    -0.012 C  
BRANCH   3   4
HETATM    4  C   UNL     1      -6.273   6.150  66.524  1.00  0.00    -0.037 C  
BRANCH   4   5
HETATM    5  C   UNL     1      -6.371   6.999  65.257  1.00  0.00    -0.037 C  
BRANCH   5   6
HETATM    6  O   UNL     1      -7.701   6.892  64.728  1.00  0.00    -0.100 OA 
BRANCH   6   7
HETATM    7  C   UNL     1      -8.707   6.939  65.665  1.00  0.00    -0.072 A  
HETATM    8  C   UNL     1      -9.106   8.208  66.130  1.00  0.00    -0.232 A  
HETATM    9  C   UNL     1      -8.369   9.441  65.688  1.00  0.00    -0.129 C  
HETATM   10  C   UNL     1     -10.229   8.271  66.974  1.00  0.00    -0.310 A  
HETATM   11  C   UNL     1      -9.322   5.794  66.165  1.00  0.00    -0.160 A  
HETATM   12  N   UNL     1     -10.861   7.147  67.416  1.00  0.00    -0.288 NA 
HETATM   13  C   UNL     1     -10.375   5.947  67.038  1.00  0.00    -0.243 A  
BRANCH  10  14
HETATM   14  C   UNL     1     -10.904   9.571  67.368  1.00  0.00    -0.145 C  
BRANCH  14  15
HETATM   15  S   UNL     1     -10.208  10.250  68.894  1.00  0.00    -0.219 S  
HETATM   16  O   UNL     1      -8.756   9.915  69.076  1.00  0.00    -0.133 OA 
BRANCH  15  17
HETATM   17  C   UNL     1     -10.267  11.949  68.542  1.00  0.00    -0.215 A  
HETATM   18  N   UNL     1     -10.924  12.859  69.228  1.00  0.00    -0.436 NA 
HETATM   19  C   UNL     1     -10.587  14.061  68.648  1.00  0.00    -0.257 A  
HETATM   20  H   UNL     1     -11.549  12.707  70.020  1.00  0.00     0.000 HD 
HETATM   21  C   UNL     1     -10.995  15.363  68.978  1.00  0.00    -0.252 A  
HETATM   22  C   UNL     1     -10.451  16.441  68.267  1.00  0.00    -0.302 A  
HETATM   23  C   UNL     1      -9.520  16.230  67.246  1.00  0.00    -0.231 A  
HETATM   24  C   UNL     1      -9.122  14.937  66.884  1.00  0.00    -0.271 A  
HETATM   25  C   UNL     1      -9.688  13.879  67.602  1.00  0.00    -0.226 A  
HETATM   26  N   UNL     1      -9.549  12.517  67.518  1.00  0.00    -0.183 NA 
ENDBRANCH  15  17
ENDBRANCH  14  15
ENDBRANCH  10  14
ENDBRANCH   6   7
ENDBRANCH   5   6
ENDBRANCH   4   5
ENDBRANCH   3   4
ENDBRANCH   2   3
TORSDOF 8
ENDMDL
MODEL      268
REMARK 921   NORMALIZED FREE ENERGY PREDICTED BY IDOCK:   -2.57 KCAL/MOL
REMARK 922        TOTAL FREE ENERGY PREDICTED BY IDOCK:   -4.64 KCAL/MOL
REMARK 923 INTER-LIGAND FREE ENERGY PREDICTED BY IDOCK:   -4.25 KCAL/MOL
REMARK 924 INTRA-LIGAND FREE ENERGY PREDICTED BY IDOCK:   -0.39 KCAL/MOL
REMARK 927      BINDING AFFINITY PREDICTED BY RF-SCORE:    0.00 PKD
ROOT
HETATM    1  C   UNL     1      -6.199   4.621  66.295  1.00  0.00    -0.032 C  
HETATM    2  O   UNL     1      -7.074   4.771  67.406  1.00  0.00    -0.063 OA 
ENDROOT
BRANCH   2   3
HETATM    3  C   UNL     1      -6.385   5.200  68.578  1.00  0.00    -0.035 C  
BRANCH   3   4
HETATM    4  C   UNL     1      -7.287   6.131  69.380  1.00  0.00    -0.091 C  
BRANCH   4   5
HETATM    5  C   UNL     1      -8.329   6.814  68.496  1.00  0.00    -0.120 C  
BRANCH   5   6
HETATM    6  O   UNL     1      -9.571   6.888  69.213  1.00  0.00    -0.150 OA 
BRANCH   6   7
HETATM    7  C   UNL     1      -9.952   8.155  69.589  1.00  0.00    -0.193 A  
HETATM    8  C   UNL     1     -10.587   8.959  68.622  1.00  0.00    -0.182 A  
HETATM    9  C   UNL     1     -10.729   8.470  67.208  1.00  0.00    -0.219 C  
HETATM   10  C   UNL     1     -11.110  10.196  69.040  1.00  0.00    -0.205 A  
HETATM   11  C   UNL     1      -9.725   8.659  70.867  1.00  0.00    -0.254 A  
HETATM   12  N   UNL     1     -10.931  10.659  70.310  1.00  0.00    -0.237 NA 
HETATM   13  C   UNL     1     -10.218   9.908  71.173  1.00  0.00     0.284 A  
BRANCH  10  14
HETATM   14  C   UNL     1     -12.006  11.059  68.173  1.00  0.00     0.017 C  
BRANCH  14  15
HETATM   15  S   UNL     1     -11.179  12.587  67.671  1.00  0.00    -0.302 S  
HETATM   16  O   UNL     1     -11.735  13.167  66.403  1.00  0.00    -0.343 OA 
BRANCH  15  17
HETATM   17  C   UNL     1     -11.681  13.654  68.945  1.00  0.00    -0.338 A  
HETATM   18  N   UNL     1     -12.920  13.999  69.223  1.00  0.00     0.169 NA 
HETATM   19  C   UNL     1     -12.834  14.758  70.369  1.00  0.00    -0.274 A  
HETATM   20  H   UNL     1     -13.763  13.756  68.702  1.00  0.00     0.000 HD 
HETATM   21  C   UNL     1     -13.850  15.382  71.110  1.00  0.00    -0.452 A  
HETATM   22  C   UNL     1     -13.507  16.052  72.292  1.00  0.00    -0.214 A  
HETATM   23  C   UNL     1     -12.181  16.102  72.729  1.00  0.00    -0.628 A  
HETATM   24  C   UNL     1     -11.150  15.509  71.989  1.00  0.00    -0.152 A  
HETATM   25  C   UNL     1     -11.517  14.857  70.808  1.00  0.00    -0.267 A  
HETATM   26  N   UNL     1     -10.797  14.194  69.847  1.00  0.00     0.033 NA 
ENDBRANCH  15  17
ENDBRANCH  14  15
ENDBRANCH  10  14
ENDBRANCH   6   7
ENDBRANCH   5   6
ENDBRANCH   4   5
ENDBRANCH   3   4
ENDBRANCH   2   3
TORSDOF 8
ENDMDL
MODEL      269
REMARK 921   NORMALIZED FREE ENERGY PREDICTED BY IDOCK:   -2.47 KCAL/MOL
REMARK 922        TOTAL FREE ENERGY PREDICTED BY IDOCK:   -4.50 KCAL/MOL
REMARK 923 INTER-LIGAND FREE ENERGY PREDICTED BY IDOCK:   -3.58 KCAL/MOL
REMARK 924 INTRA-LIGAND FREE ENERGY PREDICTED BY IDOCK:   -0.91 KCAL/MOL
REMARK 927      BINDING AFFINITY PREDICTED BY RF-SCORE:    0.00 PKD
ROOT
HETATM    1  C   UNL     1     -11.452  15.175  69.012  1.00  0.00    -0.309 C  
HETATM    2  O   UNL     1     -11.006  16.215  68.150  1.00  0.00    -0.320 OA 
ENDROOT
BRANCH   2   3
HETATM    3  C   UNL     1     -11.261  15.921  66.778  1.00  0.00     0.035 C  
BRANCH   3   4
HETATM    4  C   UNL     1     -11.063  14.429  66.538  1.00  0.00    -0.331 C  
BRANCH   4   5
HETATM    5  C   UNL     1     -11.164  14.073  65.055  1.00  0.00    -0.352 C  
BRANCH   5   6
HETATM    6  O   UNL     1      -9.857  13.725  64.570  1.00  0.00    -0.160 OA 
BRANCH   6   7
HETATM    7  C   UNL     1      -9.602  12.375  64.500  1.00  0.00     0.163 A  
HETATM    8  C   UNL     1      -8.816  11.806  65.521  1.00  0.00     0.187 A  
HETATM    9  C   UNL     1      -8.197  12.681  66.575  1.00  0.00     0.254 C  
HETATM   10  C   UNL     1      -8.676  10.407  65.536  1.00  0.00    -0.177 A  
HETATM   11  C   UNL     1     -10.080  11.574  63.466  1.00  0.00    -0.446 A  
HETATM   12  N   UNL     1      -9.194   9.623  64.548  1.00  0.00    -0.245 NA 
HETATM   13  C   UNL     1      -9.842  10.220  63.528  1.00  0.00    -0.091 A  
BRANCH  10  14
HETATM   14  C   UNL     1      -8.053   9.643  66.688  1.00  0.00    -0.119 C  
BRANCH  14  15
HETATM   15  S   UNL     1      -9.294   9.138  67.904  1.00  0.00    -0.137 S  
HETATM   16  O   UNL     1     -10.621   9.809  67.702  1.00  0.00    -0.242 OA 
BRANCH  15  17
HETATM   17  C   UNL     1      -9.524   7.478  67.453  1.00  0.00    -0.142 A  
HETATM   18  N   UNL     1      -9.937   7.043  66.282  1.00  0.00    -0.435 NA 
HETATM   19  C   UNL     1      -9.856   5.671  66.357  1.00  0.00    -0.154 A  
HETATM   20  H   UNL     1     -10.250   7.603  65.488  1.00  0.00     0.000 HD 
HETATM   21  C   UNL     1     -10.169   4.699  65.393  1.00  0.00    -0.172 A  
HETATM   22  C   UNL     1      -9.934   3.350  65.695  1.00  0.00     0.162 A  
HETATM   23  C   UNL     1      -9.401   2.974  66.930  1.00  0.00    -0.137 A  
HETATM   24  C   UNL     1      -9.108   3.927  67.914  1.00  0.00    -0.187 A  
HETATM   25  C   UNL     1      -9.362   5.264  67.592  1.00  0.00    -0.118 A  
HETATM   26  N   UNL     1      -9.216   6.435  68.292  1.00  0.00    -0.114 NA 
ENDBRANCH  15  17
ENDBRANCH  14  15
ENDBRANCH  10  14
ENDBRANCH   6   7
ENDBRANCH   5   6
ENDBRANCH   4   5
ENDBRANCH   3   4
ENDBRANCH   2   3
TORSDOF 8
ENDMDL
MODEL      270
REMARK 921   NORMALIZED FREE ENERGY PREDICTED BY IDOCK:   -2.39 KCAL/MOL
REMARK 922        TOTAL FREE ENERGY PREDICTED BY IDOCK:   -4.38 KCAL/MOL
REMARK 923 INTER-LIGAND FREE ENERGY PREDICTED BY IDOCK:   -4.37 KCAL/MOL
REMARK 924 INTRA-LIGAND FREE ENERGY PREDICTED BY IDOCK:   -0.01 KCAL/MOL
REMARK 927      BINDING AFFINITY PREDICTED BY RF-SCORE:    0.00 PKD
ROOT
HETATM    1  C   UNL     1      -5.137   8.874  68.741  1.00  0.00    -0.033 C  
HETATM    2  O   UNL     1      -5.730   8.242  67.613  1.00  0.00    -0.037 OA 
ENDROOT
BRANCH   2   3
HETATM    3  C   UNL     1      -5.436   6.847  67.563  1.00  0.00    -0.012 C  
BRANCH   3   4
HETATM    4  C   UNL     1      -6.290   6.192  66.484  1.00  0.00    -0.045 C  
BRANCH   4   5
HETATM    5  C   UNL     1      -6.394   7.064  65.233  1.00  0.00    -0.037 C  
BRANCH   5   6
HETATM    6  O   UNL     1      -7.730   6.974  64.714  1.00  0.00    -0.101 OA 
BRANCH   6   7
HETATM    7  C   UNL     1      -8.726   7.002  65.662  1.00  0.00    -0.065 A  
HETATM    8  C   UNL     1      -9.109   8.260  66.167  1.00  0.00    -0.238 A  
HETATM    9  C   UNL     1      -8.366   9.499  65.754  1.00  0.00    -0.132 C  
HETATM   10  C   UNL     1     -10.224   8.308  67.023  1.00  0.00    -0.310 A  
HETATM   11  C   UNL     1      -9.347   5.848  66.132  1.00  0.00    -0.150 A  
HETATM   12  N   UNL     1     -10.863   7.177  67.437  1.00  0.00    -0.288 NA 
HETATM   13  C   UNL     1     -10.391   5.985  67.019  1.00  0.00    -0.240 A  
BRANCH  10  14
HETATM   14  C   UNL     1     -10.884   9.602  67.461  1.00  0.00    -0.198 C  
BRANCH  14  15
HETATM   15  S   UNL     1     -10.169  10.228  69.000  1.00  0.00    -0.224 S  
HETATM   16  O   UNL     1     -11.034  11.252  69.676  1.00  0.00    -0.227 OA 
BRANCH  15  17
HETATM   17  C   UNL     1     -10.249   8.805  69.991  1.00  0.00    -0.198 A  
HETATM   18  N   UNL     1      -9.229   8.193  70.551  1.00  0.00    -0.153 NA 
HETATM   19  C   UNL     1      -9.785   7.196  71.322  1.00  0.00    -0.170 A  
HETATM   20  H   UNL     1      -8.238   8.409  70.438  1.00  0.00     0.000 HD 
HETATM   21  C   UNL     1      -9.161   6.240  72.138  1.00  0.00    -0.144 A  
HETATM   22  C   UNL     1      -9.963   5.363  72.883  1.00  0.00    -0.193 A  
HETATM   23  C   UNL     1     -11.356   5.435  72.815  1.00  0.00    -0.358 A  
HETATM   24  C   UNL     1     -11.996   6.363  71.986  1.00  0.00    -0.375 A  
HETATM   25  C   UNL     1     -11.174   7.218  71.245  1.00  0.00    -0.256 A  
HETATM   26  N   UNL     1     -11.439   8.216  70.342  1.00  0.00    -0.188 NA 
ENDBRANCH  15  17
ENDBRANCH  14  15
ENDBRANCH  10  14
ENDBRANCH   6   7
ENDBRANCH   5   6
ENDBRANCH   4   5
ENDBRANCH   3   4
ENDBRANCH   2   3
TORSDOF 8
ENDMDL
MODEL      271
REMARK 921   NORMALIZED FREE ENERGY PREDICTED BY IDOCK:   -2.39 KCAL/MOL
REMARK 922        TOTAL FREE ENERGY PREDICTED BY IDOCK:   -4.38 KCAL/MOL
REMARK 923 INTER-LIGAND FREE ENERGY PREDICTED BY IDOCK:   -4.49 KCAL/MOL
REMARK 924 INTRA-LIGAND FREE ENERGY PREDICTED BY IDOCK:    0.11 KCAL/MOL
REMARK 927      BINDING AFFINITY PREDICTED BY RF-SCORE:    0.00 PKD
ROOT
HETATM    1  C   UNL     1      -6.026   4.525  64.912  1.00  0.00    -0.022 C  
HETATM    2  O   UNL     1      -6.976   4.137  65.896  1.00  0.00    -0.062 OA 
ENDROOT
BRANCH   2   3
HETATM    3  C   UNL     1      -6.504   4.374  67.221  1.00  0.00    -0.042 C  
BRANCH   3   4
HETATM    4  C   UNL     1      -7.669   4.813  68.099  1.00  0.00    -0.082 C  
BRANCH   4   5
HETATM    5  C   UNL     1      -8.920   5.118  67.275  1.00  0.00    -0.112 C  
BRANCH   5   6
HETATM    6  O   UNL     1     -10.024   5.333  68.168  1.00  0.00    -0.146 OA 
BRANCH   6   7
HETATM    7  C   UNL     1     -10.200   6.635  68.574  1.00  0.00    -0.171 A  
HETATM    8  C   UNL     1     -10.241   7.629  67.577  1.00  0.00    -0.294 A  
HETATM    9  C   UNL     1      -9.987   7.270  66.140  1.00  0.00     0.176 C  
HETATM   10  C   UNL     1     -10.568   8.939  67.972  1.00  0.00    -0.168 A  
HETATM   11  C   UNL     1     -10.326   6.993  69.914  1.00  0.00    -0.225 A  
HETATM   12  N   UNL     1     -10.744   9.271  69.283  1.00  0.00    -0.219 NA 
HETATM   13  C   UNL     1     -10.583   8.311  70.215  1.00  0.00    -0.227 A  
BRANCH  10  14
HETATM   14  C   UNL     1     -10.867  10.056  66.991  1.00  0.00    -0.126 C  
BRANCH  14  15
HETATM   15  S   UNL     1      -9.434  11.133  66.748  1.00  0.00    -0.187 S  
HETATM   16  O   UNL     1      -9.210  11.497  65.309  1.00  0.00    -0.184 OA 
BRANCH  15  17
HETATM   17  C   UNL     1      -9.990  12.582  67.526  1.00  0.00    -0.201 A  
HETATM   18  N   UNL     1     -10.812  12.644  68.552  1.00  0.00    -0.244 NA 
HETATM   19  C   UNL     1     -10.870  13.978  68.888  1.00  0.00    -0.258 A  
HETATM   20  H   UNL     1     -11.301  11.870  69.001  1.00  0.00     0.000 HD 
HETATM   21  C   UNL     1     -11.592  14.616  69.908  1.00  0.00    -0.333 A  
HETATM   22  C   UNL     1     -11.430  15.996  70.088  1.00  0.00    -0.350 A  
HETATM   23  C   UNL     1     -10.567  16.729  69.268  1.00  0.00    -0.336 A  
HETATM   24  C   UNL     1      -9.860  16.115  68.227  1.00  0.00    -0.224 A  
HETATM   25  C   UNL     1     -10.048  14.740  68.062  1.00  0.00    -0.218 A  
HETATM   26  N   UNL     1      -9.547  13.831  67.165  1.00  0.00    -0.236 NA 
ENDBRANCH  15  17
ENDBRANCH  14  15
ENDBRANCH  10  14
ENDBRANCH   6   7
ENDBRANCH   5   6
ENDBRANCH   4   5
ENDBRANCH   3   4
ENDBRANCH   2   3
TORSDOF 8
ENDMDL
MODEL      272
REMARK 921   NORMALIZED FREE ENERGY PREDICTED BY IDOCK:   -2.34 KCAL/MOL
REMARK 922        TOTAL FREE ENERGY PREDICTED BY IDOCK:   -4.31 KCAL/MOL
REMARK 923 INTER-LIGAND FREE ENERGY PREDICTED BY IDOCK:   -3.53 KCAL/MOL
REMARK 924 INTRA-LIGAND FREE ENERGY PREDICTED BY IDOCK:   -0.79 KCAL/MOL
REMARK 927      BINDING AFFINITY PREDICTED BY RF-SCORE:    0.00 PKD
ROOT
HETATM    1  C   UNL     1     -12.179  14.565  64.275  1.00  0.00    -0.415 C  
HETATM    2  O   UNL     1     -12.601  13.258  63.905  1.00  0.00    -0.661 OA 
ENDROOT
BRANCH   2   3
HETATM    3  C   UNL     1     -11.832  12.244  64.550  1.00  0.00    -0.369 C  
BRANCH   3   4
HETATM    4  C   UNL     1     -10.974  12.878  65.638  1.00  0.00    -0.297 C  
BRANCH   4   5
HETATM    5  C   UNL     1     -11.344  12.360  67.028  1.00  0.00    -0.327 C  
BRANCH   5   6
HETATM    6  O   UNL     1     -10.252  11.577  67.537  1.00  0.00    -0.181 OA 
BRANCH   6   7
HETATM    7  C   UNL     1     -10.596  10.325  67.992  1.00  0.00    -0.231 A  
HETATM    8  C   UNL     1     -10.150   9.215  67.249  1.00  0.00    -0.295 A  
HETATM    9  C   UNL     1      -9.424   9.419  65.949  1.00  0.00    -0.315 C  
HETATM   10  C   UNL     1     -10.371   7.936  67.788  1.00  0.00    -0.226 A  
HETATM   11  C   UNL     1     -11.364  10.128  69.137  1.00  0.00    -0.198 A  
HETATM   12  N   UNL     1     -11.077   7.753  68.940  1.00  0.00     0.136 NA 
HETATM   13  C   UNL     1     -11.585   8.837  69.560  1.00  0.00     0.547 A  
BRANCH  10  14
HETATM   14  C   UNL     1      -9.756   6.672  67.216  1.00  0.00    -0.134 C  
BRANCH  14  15
HETATM   15  S   UNL     1      -8.075   6.411  67.831  1.00  0.00    -0.116 S  
HETATM   16  O   UNL     1      -7.999   5.367  68.907  1.00  0.00    -0.092 OA 
BRANCH  15  17
HETATM   17  C   UNL     1      -7.330   5.708  66.429  1.00  0.00    -0.078 A  
HETATM   18  N   UNL     1      -7.263   4.424  66.149  1.00  0.00    -0.074 NA 
HETATM   19  C   UNL     1      -6.690   4.356  64.899  1.00  0.00    -0.045 A  
HETATM   20  H   UNL     1      -7.570   3.645  66.733  1.00  0.00     0.000 HD 
HETATM   21  C   UNL     1      -6.384   3.235  64.112  1.00  0.00    -0.023 A  
HETATM   22  C   UNL     1      -5.857   3.436  62.829  1.00  0.00    -0.013 A  
HETATM   23  C   UNL     1      -5.636   4.726  62.339  1.00  0.00    -0.013 A  
HETATM   24  C   UNL     1      -5.909   5.856  63.120  1.00  0.00    -0.021 A  
HETATM   25  C   UNL     1      -6.424   5.627  64.400  1.00  0.00    -0.037 A  
HETATM   26  N   UNL     1      -6.786   6.467  65.422  1.00  0.00    -0.047 NA 
ENDBRANCH  15  17
ENDBRANCH  14  15
ENDBRANCH  10  14
ENDBRANCH   6   7
ENDBRANCH   5   6
ENDBRANCH   4   5
ENDBRANCH   3   4
ENDBRANCH   2   3
TORSDOF 8
ENDMDL
MODEL      273
REMARK 921   NORMALIZED FREE ENERGY PREDICTED BY IDOCK:   -2.18 KCAL/MOL
REMARK 922        TOTAL FREE ENERGY PREDICTED BY IDOCK:   -4.08 KCAL/MOL
REMARK 923 INTER-LIGAND FREE ENERGY PREDICTED BY IDOCK:   -3.47 KCAL/MOL
REMARK 924 INTRA-LIGAND FREE ENERGY PREDICTED BY IDOCK:   -0.61 KCAL/MOL
REMARK 927      BINDING AFFINITY PREDICTED BY RF-SCORE:    0.00 PKD
ROOT
HETATM    1  C   UNL     1     -10.197  11.371  65.598  1.00  0.00    -0.251 C  
HETATM    2  O   UNL     1      -9.926  10.444  64.554  1.00  0.00    -0.332 OA 
ENDROOT
BRANCH   2   3
HETATM    3  C   UNL     1      -8.592   9.944  64.613  1.00  0.00    -0.182 C  
BRANCH   3   4
HETATM    4  C   UNL     1      -8.511   8.846  65.666  1.00  0.00    -0.171 C  
BRANCH   4   5
HETATM    5  C   UNL     1      -7.091   8.678  66.206  1.00  0.00    -0.078 C  
BRANCH   5   6
HETATM    6  O   UNL     1      -7.146   7.942  67.438  1.00  0.00    -0.079 OA 
BRANCH   6   7
HETATM    7  C   UNL     1      -6.595   8.583  68.524  1.00  0.00    -0.059 A  
HETATM    8  C   UNL     1      -6.380   7.822  69.690  1.00  0.00    -0.031 A  
HETATM    9  C   UNL     1      -6.846   6.395  69.758  1.00  0.00    -0.061 C  
HETATM   10  C   UNL     1      -5.683   8.431  70.749  1.00  0.00    -0.032 A  
HETATM   11  C   UNL     1      -6.261   9.934  68.508  1.00  0.00    -0.049 A  
HETATM   12  N   UNL     1      -5.310   9.742  70.704  1.00  0.00    -0.043 NA 
HETATM   13  C   UNL     1      -5.637  10.465  69.614  1.00  0.00    -0.039 A  
BRANCH  10  14
HETATM   14  C   UNL     1      -5.186   7.674  71.965  1.00  0.00    -0.036 C  
BRANCH  14  15
HETATM   15  S   UNL     1      -6.148   8.077  73.443  1.00  0.00    -0.081 S  
HETATM   16  O   UNL     1      -6.353   9.552  73.626  1.00  0.00    -0.201 OA 
BRANCH  15  17
HETATM   17  C   UNL     1      -7.697   7.430  73.000  1.00  0.00    -0.088 A  
HETATM   18  N   UNL     1      -8.199   6.281  73.398  1.00  0.00    -0.114 NA 
HETATM   19  C   UNL     1      -9.477   6.249  72.888  1.00  0.00    -0.146 A  
HETATM   20  H   UNL     1      -7.739   5.566  73.963  1.00  0.00     0.000 HD 
HETATM   21  C   UNL     1     -10.466   5.259  73.005  1.00  0.00    -0.250 A  
HETATM   22  C   UNL     1     -11.727   5.496  72.441  1.00  0.00    -0.182 A  
HETATM   23  C   UNL     1     -12.000   6.693  71.772  1.00  0.00    -0.391 A  
HETATM   24  C   UNL     1     -11.018   7.680  71.622  1.00  0.00    -0.267 A  
HETATM   25  C   UNL     1      -9.766   7.414  72.184  1.00  0.00    -0.150 A  
HETATM   26  N   UNL     1      -8.591   8.122  72.221  1.00  0.00    -0.157 NA 
ENDBRANCH  15  17
ENDBRANCH  14  15
ENDBRANCH  10  14
ENDBRANCH   6   7
ENDBRANCH   5   6
ENDBRANCH   4   5
ENDBRANCH   3   4
ENDBRANCH   2   3
TORSDOF 8
ENDMDL
MODEL      274
REMARK 921   NORMALIZED FREE ENERGY PREDICTED BY IDOCK:   -2.15 KCAL/MOL
REMARK 922        TOTAL FREE ENERGY PREDICTED BY IDOCK:   -4.04 KCAL/MOL
REMARK 923 INTER-LIGAND FREE ENERGY PREDICTED BY IDOCK:   -3.78 KCAL/MOL
REMARK 924 INTRA-LIGAND FREE ENERGY PREDICTED BY IDOCK:   -0.25 KCAL/MOL
REMARK 927      BINDING AFFINITY PREDICTED BY RF-SCORE:    0.00 PKD
ROOT
HETATM    1  C   UNL     1      -8.270  15.369  68.471  1.00  0.00    -0.145 C  
HETATM    2  O   UNL     1      -7.973  14.020  68.806  1.00  0.00    -0.136 OA 
ENDROOT
BRANCH   2   3
HETATM    3  C   UNL     1      -9.153  13.250  69.032  1.00  0.00     0.449 C  
BRANCH   3   4
HETATM    4  C   UNL     1      -9.174  12.069  68.069  1.00  0.00    -0.192 C  
BRANCH   4   5
HETATM    5  C   UNL     1     -10.165  12.285  66.925  1.00  0.00    -0.213 C  
BRANCH   5   6
HETATM    6  O   UNL     1     -10.787  11.030  66.606  1.00  0.00    -0.261 OA 
BRANCH   6   7
HETATM    7  C   UNL     1     -10.796  10.108  67.628  1.00  0.00    -0.290 A  
HETATM    8  C   UNL     1     -10.039   8.933  67.452  1.00  0.00    -0.288 A  
HETATM    9  C   UNL     1      -9.347   8.668  66.144  1.00  0.00    -0.291 C  
HETATM   10  C   UNL     1      -9.925   8.059  68.548  1.00  0.00    -0.192 A  
HETATM   11  C   UNL     1     -11.523  10.294  68.800  1.00  0.00    -0.176 A  
HETATM   12  N   UNL     1     -10.598   8.276  69.714  1.00  0.00    -0.228 NA 
HETATM   13  C   UNL     1     -11.402   9.354  69.799  1.00  0.00    -0.042 A  
BRANCH  10  14
HETATM   14  C   UNL     1      -8.970   6.881  68.579  1.00  0.00    -0.122 C  
BRANCH  14  15
HETATM   15  S   UNL     1      -9.808   5.331  68.167  1.00  0.00    -0.151 S  
HETATM   16  O   UNL     1      -9.038   4.489  67.191  1.00  0.00    -0.116 OA 
BRANCH  15  17
HETATM   17  C   UNL     1      -9.715   4.504  69.690  1.00  0.00    -0.218 A  
HETATM   18  N   UNL     1     -10.303   4.872  70.808  1.00  0.00    -0.199 NA 
HETATM   19  C   UNL     1     -10.037   3.861  71.705  1.00  0.00    -0.097 A  
HETATM   20  H   UNL     1     -10.840   5.723  70.975  1.00  0.00     0.000 HD 
HETATM   21  C   UNL     1     -10.423   3.729  73.048  1.00  0.00    -0.255 A  
HETATM   22  C   UNL     1     -10.077   2.558  73.737  1.00  0.00    -0.172 A  
HETATM   23  C   UNL     1      -9.360   1.540  73.103  1.00  0.00    -0.081 A  
HETATM   24  C   UNL     1      -8.942   1.665  71.773  1.00  0.00    -0.112 A  
HETATM   25  C   UNL     1      -9.291   2.847  71.112  1.00  0.00    -0.141 A  
HETATM   26  N   UNL     1      -9.049   3.313  69.844  1.00  0.00    -0.113 NA 
ENDBRANCH  15  17
ENDBRANCH  14  15
ENDBRANCH  10  14
ENDBRANCH   6   7
ENDBRANCH   5   6
ENDBRANCH   4   5
ENDBRANCH   3   4
ENDBRANCH   2   3
TORSDOF 8
ENDMDL
MODEL      275
REMARK 921   NORMALIZED FREE ENERGY PREDICTED BY IDOCK:   -2.15 KCAL/MOL
REMARK 922        TOTAL FREE ENERGY PREDICTED BY IDOCK:   -4.03 KCAL/MOL
REMARK 923 INTER-LIGAND FREE ENERGY PREDICTED BY IDOCK:   -4.04 KCAL/MOL
REMARK 924 INTRA-LIGAND FREE ENERGY PREDICTED BY IDOCK:    0.01 KCAL/MOL
REMARK 927      BINDING AFFINITY PREDICTED BY RF-SCORE:    0.00 PKD
ROOT
HETATM    1  C   UNL     1      -9.407   8.023  73.025  1.00  0.00    -0.275 C  
HETATM    2  O   UNL     1     -10.140   7.381  74.062  1.00  0.00    -0.269 OA 
ENDROOT
BRANCH   2   3
HETATM    3  C   UNL     1     -11.004   6.364  73.558  1.00  0.00    -0.073 C  
BRANCH   3   4
HETATM    4  C   UNL     1     -10.272   5.028  73.577  1.00  0.00    -0.226 C  
BRANCH   4   5
HETATM    5  C   UNL     1     -10.975   3.981  72.714  1.00  0.00     0.012 C  
BRANCH   5   6
HETATM    6  O   UNL     1     -10.013   3.386  71.829  1.00  0.00    -0.169 OA 
BRANCH   6   7
HETATM    7  C   UNL     1      -8.837   4.087  71.690  1.00  0.00    -0.108 A  
HETATM    8  C   UNL     1      -8.733   4.976  70.603  1.00  0.00    -0.140 A  
HETATM    9  C   UNL     1      -9.834   5.056  69.583  1.00  0.00    -0.290 C  
HETATM   10  C   UNL     1      -7.596   5.802  70.541  1.00  0.00    -0.090 A  
HETATM   11  C   UNL     1      -7.767   3.938  72.569  1.00  0.00    -0.079 A  
HETATM   12  N   UNL     1      -6.575   5.689  71.438  1.00  0.00    -0.044 NA 
HETATM   13  C   UNL     1      -6.665   4.745  72.396  1.00  0.00    -0.052 A  
BRANCH  10  14
HETATM   14  C   UNL     1      -7.454   6.953  69.564  1.00  0.00    -0.096 C  
BRANCH  14  15
HETATM   15  S   UNL     1      -7.365   8.546  70.416  1.00  0.00    -0.058 S  
HETATM   16  O   UNL     1      -6.007   9.180  70.336  1.00  0.00    -0.036 OA 
BRANCH  15  17
HETATM   17  C   UNL     1      -8.402   9.506  69.407  1.00  0.00    -0.140 A  
HETATM   18  N   UNL     1      -8.653  10.789  69.553  1.00  0.00    -0.383 NA 
HETATM   19  C   UNL     1      -9.427  11.131  68.467  1.00  0.00    -0.193 A  
HETATM   20  H   UNL     1      -8.343  11.399  70.309  1.00  0.00     0.000 HD 
HETATM   21  C   UNL     1      -9.978  12.372  68.112  1.00  0.00    -0.215 A  
HETATM   22  C   UNL     1     -10.683  12.477  66.905  1.00  0.00    -0.268 A  
HETATM   23  C   UNL     1     -10.838  11.370  66.067  1.00  0.00    -0.306 A  
HETATM   24  C   UNL     1     -10.319  10.117  66.417  1.00  0.00    -0.258 A  
HETATM   25  C   UNL     1      -9.630  10.037  67.631  1.00  0.00    -0.148 A  
HETATM   26  N   UNL     1      -9.016   9.001  68.287  1.00  0.00    -0.133 NA 
ENDBRANCH  15  17
ENDBRANCH  14  15
ENDBRANCH  10  14
ENDBRANCH   6   7
ENDBRANCH   5   6
ENDBRANCH   4   5
ENDBRANCH   3   4
ENDBRANCH   2   3
TORSDOF 8
ENDMDL
MODEL      276
REMARK 921   NORMALIZED FREE ENERGY PREDICTED BY IDOCK:   -2.06 KCAL/MOL
REMARK 922        TOTAL FREE ENERGY PREDICTED BY IDOCK:   -3.89 KCAL/MOL
REMARK 923 INTER-LIGAND FREE ENERGY PREDICTED BY IDOCK:   -3.52 KCAL/MOL
REMARK 924 INTRA-LIGAND FREE ENERGY PREDICTED BY IDOCK:   -0.38 KCAL/MOL
REMARK 927      BINDING AFFINITY PREDICTED BY RF-SCORE:    0.00 PKD
ROOT
HETATM    1  C   UNL     1      -5.199   8.210  68.078  1.00  0.00    -0.033 C  
HETATM    2  O   UNL     1      -5.598   7.067  67.332  1.00  0.00    -0.021 OA 
ENDROOT
BRANCH   2   3
HETATM    3  C   UNL     1      -5.144   5.852  67.927  1.00  0.00    -0.004 C  
BRANCH   3   4
HETATM    4  C   UNL     1      -6.283   5.224  68.720  1.00  0.00    -0.030 C  
BRANCH   4   5
HETATM    5  C   UNL     1      -7.614   5.313  67.973  1.00  0.00    -0.080 C  
BRANCH   5   6
HETATM    6  O   UNL     1      -8.651   5.646  68.910  1.00  0.00    -0.102 OA 
BRANCH   6   7
HETATM    7  C   UNL     1      -8.598   6.928  69.406  1.00  0.00    -0.133 A  
HETATM    8  C   UNL     1      -8.958   7.978  68.540  1.00  0.00    -0.133 A  
HETATM    9  C   UNL     1      -9.278   7.694  67.099  1.00  0.00    -0.158 C  
HETATM   10  C   UNL     1      -9.049   9.272  69.083  1.00  0.00    -0.145 A  
HETATM   11  C   UNL     1      -8.197   7.211  70.709  1.00  0.00    -0.120 A  
HETATM   12  N   UNL     1      -8.707   9.534  70.377  1.00  0.00    -0.230 NA 
HETATM   13  C   UNL     1      -8.257   8.517  71.140  1.00  0.00    -0.144 A  
BRANCH  10  14
HETATM   14  C   UNL     1      -9.637  10.452  68.334  1.00  0.00    -0.148 C  
BRANCH  14  15
HETATM   15  S   UNL     1      -8.444  11.173  67.181  1.00  0.00    -0.142 S  
HETATM   16  O   UNL     1      -8.933  11.186  65.762  1.00  0.00    -0.198 OA 
BRANCH  15  17
HETATM   17  C   UNL     1      -8.454  12.827  67.706  1.00  0.00    -0.177 A  
HETATM   18  N   UNL     1      -7.440  13.479  68.233  1.00  0.00    -0.111 NA 
HETATM   19  C   UNL     1      -7.881  14.775  68.382  1.00  0.00    -0.128 A  
HETATM   20  H   UNL     1      -6.523  13.105  68.478  1.00  0.00     0.000 HD 
HETATM   21  C   UNL     1      -7.212  15.898  68.893  1.00  0.00    -0.158 A  
HETATM   22  C   UNL     1      -7.866  17.137  68.878  1.00  0.00    -0.217 A  
HETATM   23  C   UNL     1      -9.161  17.258  68.367  1.00  0.00    -0.268 A  
HETATM   24  C   UNL     1      -9.855  16.144  67.878  1.00  0.00    -0.235 A  
HETATM   25  C   UNL     1      -9.184  14.918  67.915  1.00  0.00    -0.183 A  
HETATM   26  N   UNL     1      -9.545  13.647  67.546  1.00  0.00    -0.215 NA 
ENDBRANCH  15  17
ENDBRANCH  14  15
ENDBRANCH  10  14
ENDBRANCH   6   7
ENDBRANCH   5   6
ENDBRANCH   4   5
ENDBRANCH   3   4
ENDBRANCH   2   3
TORSDOF 8
ENDMDL
MODEL      277
REMARK 921   NORMALIZED FREE ENERGY PREDICTED BY IDOCK:   -2.04 KCAL/MOL
REMARK 922        TOTAL FREE ENERGY PREDICTED BY IDOCK:   -3.87 KCAL/MOL
REMARK 923 INTER-LIGAND FREE ENERGY PREDICTED BY IDOCK:   -3.10 KCAL/MOL
REMARK 924 INTRA-LIGAND FREE ENERGY PREDICTED BY IDOCK:   -0.77 KCAL/MOL
REMARK 927      BINDING AFFINITY PREDICTED BY RF-SCORE:    0.00 PKD
ROOT
HETATM    1  C   UNL     1     -10.291  12.903  65.438  1.00  0.00    -0.296 C  
HETATM    2  O   UNL     1     -10.706  13.247  66.754  1.00  0.00    -0.273 OA 
ENDROOT
BRANCH   2   3
HETATM    3  C   UNL     1     -10.172  12.359  67.734  1.00  0.00    -0.211 C  
BRANCH   3   4
HETATM    4  C   UNL     1      -9.601  11.128  67.040  1.00  0.00    -0.201 C  
BRANCH   4   5
HETATM    5  C   UNL     1      -8.855  10.220  68.017  1.00  0.00    -0.122 C  
BRANCH   5   6
HETATM    6  O   UNL     1      -9.787   9.711  68.984  1.00  0.00    -0.169 OA 
BRANCH   6   7
HETATM    7  C   UNL     1      -9.390   8.563  69.629  1.00  0.00    -0.157 A  
HETATM    8  C   UNL     1      -9.913   7.340  69.165  1.00  0.00    -0.170 A  
HETATM    9  C   UNL     1     -10.952   7.326  68.079  1.00  0.00    -0.081 C  
HETATM   10  C   UNL     1      -9.398   6.156  69.721  1.00  0.00    -0.151 A  
HETATM   11  C   UNL     1      -8.511   8.575  70.709  1.00  0.00    -0.166 A  
HETATM   12  N   UNL     1      -8.496   6.174  70.744  1.00  0.00    -0.129 NA 
HETATM   13  C   UNL     1      -8.107   7.368  71.234  1.00  0.00    -0.100 A  
BRANCH  10  14
HETATM   14  C   UNL     1      -9.699   4.775  69.170  1.00  0.00    -0.188 C  
BRANCH  14  15
HETATM   15  S   UNL     1      -8.289   3.658  69.359  1.00  0.00    -0.061 S  
HETATM   16  O   UNL     1      -8.683   2.291  69.838  1.00  0.00    -0.052 OA 
BRANCH  15  17
HETATM   17  C   UNL     1      -7.812   3.465  67.701  1.00  0.00    -0.077 A  
HETATM   18  N   UNL     1      -7.300   2.379  67.163  1.00  0.00    -0.056 NA 
HETATM   19  C   UNL     1      -7.190   2.658  65.820  1.00  0.00    -0.066 A  
HETATM   20  H   UNL     1      -7.041   1.515  67.640  1.00  0.00     0.000 HD 
HETATM   21  C   UNL     1      -6.709   1.856  64.773  1.00  0.00    -0.027 A  
HETATM   22  C   UNL     1      -6.762   2.353  63.464  1.00  0.00    -0.031 A  
HETATM   23  C   UNL     1      -7.282   3.623  63.200  1.00  0.00    -0.049 A  
HETATM   24  C   UNL     1      -7.741   4.449  64.234  1.00  0.00    -0.080 A  
HETATM   25  C   UNL     1      -7.666   3.933  65.531  1.00  0.00    -0.085 A  
HETATM   26  N   UNL     1      -8.000   4.447  66.759  1.00  0.00    -0.098 NA 
ENDBRANCH  15  17
ENDBRANCH  14  15
ENDBRANCH  10  14
ENDBRANCH   6   7
ENDBRANCH   5   6
ENDBRANCH   4   5
ENDBRANCH   3   4
ENDBRANCH   2   3
TORSDOF 8
ENDMDL
MODEL      278
REMARK 921   NORMALIZED FREE ENERGY PREDICTED BY IDOCK:   -1.97 KCAL/MOL
REMARK 922        TOTAL FREE ENERGY PREDICTED BY IDOCK:   -3.77 KCAL/MOL
REMARK 923 INTER-LIGAND FREE ENERGY PREDICTED BY IDOCK:   -3.22 KCAL/MOL
REMARK 924 INTRA-LIGAND FREE ENERGY PREDICTED BY IDOCK:   -0.54 KCAL/MOL
REMARK 927      BINDING AFFINITY PREDICTED BY RF-SCORE:    0.00 PKD
ROOT
HETATM    1  C   UNL     1     -13.665   9.195  72.700  1.00  0.00    -0.351 C  
HETATM    2  O   UNL     1     -13.827   8.692  71.379  1.00  0.00    -0.340 OA 
ENDROOT
BRANCH   2   3
HETATM    3  C   UNL     1     -12.760   7.825  71.001  1.00  0.00    -0.088 C  
BRANCH   3   4
HETATM    4  C   UNL     1     -11.577   8.044  71.937  1.00  0.00    -0.348 C  
BRANCH   4   5
HETATM    5  C   UNL     1     -10.514   6.957  71.775  1.00  0.00    -0.203 C  
BRANCH   5   6
HETATM    6  O   UNL     1     -10.361   6.661  70.378  1.00  0.00    -0.193 OA 
BRANCH   6   7
HETATM    7  C   UNL     1      -9.366   7.364  69.739  1.00  0.00    -0.146 A  
HETATM    8  C   UNL     1      -9.263   7.225  68.341  1.00  0.00    -0.137 A  
HETATM    9  C   UNL     1     -10.147   6.253  67.611  1.00  0.00    -0.179 C  
HETATM   10  C   UNL     1      -8.347   8.052  67.667  1.00  0.00    -0.128 A  
HETATM   11  C   UNL     1      -8.471   8.184  70.421  1.00  0.00    -0.129 A  
HETATM   12  N   UNL     1      -7.510   8.894  68.338  1.00  0.00    -0.085 NA 
HETATM   13  C   UNL     1      -7.563   8.912  69.685  1.00  0.00    -0.072 A  
BRANCH  10  14
HETATM   14  C   UNL     1      -8.287   8.173  66.156  1.00  0.00    -0.126 C  
BRANCH  14  15
HETATM   15  S   UNL     1      -6.683   7.647  65.507  1.00  0.00    -0.045 S  
HETATM   16  O   UNL     1      -5.728   7.213  66.581  1.00  0.00    -0.022 OA 
BRANCH  15  17
HETATM   17  C   UNL     1      -7.139   6.203  64.661  1.00  0.00    -0.057 A  
HETATM   18  N   UNL     1      -6.439   5.092  64.590  1.00  0.00    -0.034 NA 
HETATM   19  C   UNL     1      -7.243   4.199  63.918  1.00  0.00    -0.051 A  
HETATM   20  H   UNL     1      -5.500   4.927  64.956  1.00  0.00     0.000 HD 
HETATM   21  C   UNL     1      -7.001   2.862  63.565  1.00  0.00    -0.043 A  
HETATM   22  C   UNL     1      -8.020   2.137  62.931  1.00  0.00    -0.060 A  
HETATM   23  C   UNL     1      -9.254   2.730  62.651  1.00  0.00    -0.087 A  
HETATM   24  C   UNL     1      -9.504   4.071  62.970  1.00  0.00    -0.135 A  
HETATM   25  C   UNL     1      -8.468   4.774  63.592  1.00  0.00    -0.128 A  
HETATM   26  N   UNL     1      -8.350   6.071  64.025  1.00  0.00    -0.037 NA 
ENDBRANCH  15  17
ENDBRANCH  14  15
ENDBRANCH  10  14
ENDBRANCH   6   7
ENDBRANCH   5   6
ENDBRANCH   4   5
ENDBRANCH   3   4
ENDBRANCH   2   3
TORSDOF 8
ENDMDL
MODEL      279
REMARK 921   NORMALIZED FREE ENERGY PREDICTED BY IDOCK:   -1.95 KCAL/MOL
REMARK 922        TOTAL FREE ENERGY PREDICTED BY IDOCK:   -3.73 KCAL/MOL
REMARK 923 INTER-LIGAND FREE ENERGY PREDICTED BY IDOCK:   -3.42 KCAL/MOL
REMARK 924 INTRA-LIGAND FREE ENERGY PREDICTED BY IDOCK:   -0.32 KCAL/MOL
REMARK 927      BINDING AFFINITY PREDICTED BY RF-SCORE:    0.00 PKD
ROOT
HETATM    1  C   UNL     1      -7.988  14.212  67.880  1.00  0.00    -0.156 C  
HETATM    2  O   UNL     1      -7.742  12.872  68.288  1.00  0.00    -0.122 OA 
ENDROOT
BRANCH   2   3
HETATM    3  C   UNL     1      -8.950  12.161  68.548  1.00  0.00    -0.082 C  
BRANCH   3   4
HETATM    4  C   UNL     1      -8.997  10.912  67.676  1.00  0.00    -0.140 C  
BRANCH   4   5
HETATM    5  C   UNL     1     -10.312  10.806  66.903  1.00  0.00    -0.241 C  
BRANCH   5   6
HETATM    6  O   UNL     1     -10.742   9.436  66.904  1.00  0.00    -0.205 OA 
BRANCH   6   7
HETATM    7  C   UNL     1     -10.280   8.681  67.957  1.00  0.00    -0.210 A  
HETATM    8  C   UNL     1      -9.436   7.593  67.659  1.00  0.00    -0.165 A  
HETATM    9  C   UNL     1      -9.156   7.224  66.229  1.00  0.00    -0.186 C  
HETATM   10  C   UNL     1      -8.843   6.911  68.736  1.00  0.00    -0.132 A  
HETATM   11  C   UNL     1     -10.623   8.949  69.279  1.00  0.00    -0.219 A  
HETATM   12  N   UNL     1      -9.142   7.215  70.031  1.00  0.00    -0.146 NA 
HETATM   13  C   UNL     1     -10.043   8.188  70.270  1.00  0.00    -0.192 A  
BRANCH  10  14
HETATM   14  C   UNL     1      -7.749   5.875  68.566  1.00  0.00    -0.094 C  
BRANCH  14  15
HETATM   15  S   UNL     1      -8.401   4.191  68.667  1.00  0.00    -0.083 S  
HETATM   16  O   UNL     1      -9.839   4.142  69.094  1.00  0.00    -0.167 OA 
BRANCH  15  17
HETATM   17  C   UNL     1      -8.385   3.743  66.990  1.00  0.00    -0.099 A  
HETATM   18  N   UNL     1      -7.316   3.609  66.234  1.00  0.00    -0.075 NA 
HETATM   19  C   UNL     1      -7.784   3.138  65.028  1.00  0.00    -0.081 A  
HETATM   20  H   UNL     1      -6.349   3.812  66.487  1.00  0.00     0.000 HD 
HETATM   21  C   UNL     1      -7.081   2.814  63.857  1.00  0.00    -0.041 A  
HETATM   22  C   UNL     1      -7.788   2.284  62.770  1.00  0.00    -0.059 A  
HETATM   23  C   UNL     1      -9.169   2.080  62.844  1.00  0.00    -0.090 A  
HETATM   24  C   UNL     1      -9.892   2.422  63.994  1.00  0.00    -0.129 A  
HETATM   25  C   UNL     1      -9.164   2.959  65.059  1.00  0.00    -0.148 A  
HETATM   26  N   UNL     1      -9.527   3.411  66.303  1.00  0.00    -0.153 NA 
ENDBRANCH  15  17
ENDBRANCH  14  15
ENDBRANCH  10  14
ENDBRANCH   6   7
ENDBRANCH   5   6
ENDBRANCH   4   5
ENDBRANCH   3   4
ENDBRANCH   2   3
TORSDOF 8
ENDMDL
MODEL      280
REMARK 921   NORMALIZED FREE ENERGY PREDICTED BY IDOCK:   -1.93 KCAL/MOL
REMARK 922        TOTAL FREE ENERGY PREDICTED BY IDOCK:   -3.71 KCAL/MOL
REMARK 923 INTER-LIGAND FREE ENERGY PREDICTED BY IDOCK:   -3.60 KCAL/MOL
REMARK 924 INTRA-LIGAND FREE ENERGY PREDICTED BY IDOCK:   -0.11 KCAL/MOL
REMARK 927      BINDING AFFINITY PREDICTED BY RF-SCORE:    0.00 PKD
ROOT
HETATM    1  C   UNL     1     -10.849   7.935  69.245  1.00  0.00    -0.064 C  
HETATM    2  O   UNL     1     -11.811   8.031  70.289  1.00  0.00    -0.024 OA 
ENDROOT
BRANCH   2   3
HETATM    3  C   UNL     1     -11.515   9.091  71.195  1.00  0.00    -0.308 C  
BRANCH   3   4
HETATM    4  C   UNL     1     -12.711  10.033  71.276  1.00  0.00    -0.500 C  
BRANCH   4   5
HETATM    5  C   UNL     1     -12.414  11.386  70.631  1.00  0.00    -0.327 C  
BRANCH   5   6
HETATM    6  O   UNL     1     -12.720  11.309  69.229  1.00  0.00    -0.202 OA 
BRANCH   6   7
HETATM    7  C   UNL     1     -11.673  11.606  68.387  1.00  0.00    -0.307 A  
HETATM    8  C   UNL     1     -10.944  12.784  68.644  1.00  0.00    -0.295 A  
HETATM    9  C   UNL     1     -11.383  13.722  69.733  1.00  0.00    -0.200 C  
HETATM   10  C   UNL     1      -9.786  13.015  67.880  1.00  0.00    -0.218 A  
HETATM   11  C   UNL     1     -11.327  10.798  67.307  1.00  0.00    -0.173 A  
HETATM   12  N   UNL     1      -9.422  12.189  66.858  1.00  0.00    -0.204 NA 
HETATM   13  C   UNL     1     -10.212  11.135  66.573  1.00  0.00    -0.231 A  
BRANCH  10  14
HETATM   14  C   UNL     1      -8.787  14.113  68.191  1.00  0.00    -0.183 C  
BRANCH  14  15
HETATM   15  S   UNL     1      -7.147  13.731  67.532  1.00  0.00    -0.095 S  
HETATM   16  O   UNL     1      -6.194  14.888  67.621  1.00  0.00    -0.212 OA 
BRANCH  15  17
HETATM   17  C   UNL     1      -6.598  12.569  68.699  1.00  0.00    -0.083 A  
HETATM   18  N   UNL     1      -6.208  12.830  69.928  1.00  0.00    -0.264 NA 
HETATM   19  C   UNL     1      -5.976  11.601  70.503  1.00  0.00    -0.078 A  
HETATM   20  H   UNL     1      -6.100  13.747  70.362  1.00  0.00     0.000 HD 
HETATM   21  C   UNL     1      -5.546  11.283  71.800  1.00  0.00     0.488 A  
HETATM   22  C   UNL     1      -5.448   9.934  72.167  1.00  0.00     0.081 A  
HETATM   23  C   UNL     1      -5.769   8.920  71.261  1.00  0.00    -0.046 A  
HETATM   24  C   UNL     1      -6.174   9.216  69.953  1.00  0.00    -0.038 A  
HETATM   25  C   UNL     1      -6.253  10.570  69.610  1.00  0.00    -0.063 A  
HETATM   26  N   UNL     1      -6.589  11.219  68.449  1.00  0.00    -0.057 NA 
ENDBRANCH  15  17
ENDBRANCH  14  15
ENDBRANCH  10  14
ENDBRANCH   6   7
ENDBRANCH   5   6
ENDBRANCH   4   5
ENDBRANCH   3   4
ENDBRANCH   2   3
TORSDOF 8
ENDMDL
MODEL      281
REMARK 921   NORMALIZED FREE ENERGY PREDICTED BY IDOCK:   -1.60 KCAL/MOL
REMARK 922        TOTAL FREE ENERGY PREDICTED BY IDOCK:   -3.22 KCAL/MOL
REMARK 923 INTER-LIGAND FREE ENERGY PREDICTED BY IDOCK:   -4.06 KCAL/MOL
REMARK 924 INTRA-LIGAND FREE ENERGY PREDICTED BY IDOCK:    0.84 KCAL/MOL
REMARK 927      BINDING AFFINITY PREDICTED BY RF-SCORE:    0.00 PKD
ROOT
HETATM    1  C   UNL     1      -5.263   8.232  68.180  1.00  0.00    -0.034 C  
HETATM    2  O   UNL     1      -5.668   7.746  66.907  1.00  0.00    -0.031 OA 
ENDROOT
BRANCH   2   3
HETATM    3  C   UNL     1      -5.414   6.350  66.759  1.00  0.00    -0.013 C  
BRANCH   3   4
HETATM    4  C   UNL     1      -6.703   5.576  67.007  1.00  0.00    -0.062 C  
BRANCH   4   5
HETATM    5  C   UNL     1      -7.836   6.051  66.099  1.00  0.00    -0.104 C  
BRANCH   5   6
HETATM    6  O   UNL     1      -9.092   5.693  66.696  1.00  0.00    -0.123 OA 
BRANCH   6   7
HETATM    7  C   UNL     1      -9.417   6.395  67.834  1.00  0.00    -0.115 A  
HETATM    8  C   UNL     1      -9.736   7.759  67.690  1.00  0.00    -0.193 A  
HETATM    9  C   UNL     1      -9.611   8.427  66.349  1.00  0.00    -0.307 C  
HETATM   10  C   UNL     1     -10.211   8.443  68.823  1.00  0.00    -0.207 A  
HETATM   11  C   UNL     1      -9.429   5.811  69.098  1.00  0.00    -0.157 A  
HETATM   12  N   UNL     1     -10.272   7.848  70.049  1.00  0.00    -0.203 NA 
HETATM   13  C   UNL     1      -9.848   6.573  70.165  1.00  0.00    -0.166 A  
BRANCH  10  14
HETATM   14  C   UNL     1     -10.801   9.839  68.769  1.00  0.00    -0.188 C  
BRANCH  14  15
HETATM   15  S   UNL     1      -9.612  11.042  68.128  1.00  0.00    -0.177 S  
HETATM   16  O   UNL     1      -9.722  11.245  66.645  1.00  0.00    -0.190 OA 
BRANCH  15  17
HETATM   17  C   UNL     1     -10.210  12.500  68.856  1.00  0.00     0.009 A  
HETATM   18  N   UNL     1      -9.673  13.696  68.751  1.00  0.00    -0.405 NA 
HETATM   19  C   UNL     1     -10.547  14.543  69.393  1.00  0.00    -0.157 A  
HETATM   20  H   UNL     1      -8.795  13.943  68.292  1.00  0.00     0.000 HD 
HETATM   21  C   UNL     1     -10.475  15.932  69.583  1.00  0.00    -0.295 A  
HETATM   22  C   UNL     1     -11.540  16.581  70.223  1.00  0.00     0.140 A  
HETATM   23  C   UNL     1     -12.654  15.864  70.667  1.00  0.00    -0.222 A  
HETATM   24  C   UNL     1     -12.732  14.474  70.511  1.00  0.00    -0.404 A  
HETATM   25  C   UNL     1     -11.651  13.850  69.880  1.00  0.00    -0.241 A  
HETATM   26  N   UNL     1     -11.380  12.540  69.576  1.00  0.00    -0.213 NA 
ENDBRANCH  15  17
ENDBRANCH  14  15
ENDBRANCH  10  14
ENDBRANCH   6   7
ENDBRANCH   5   6
ENDBRANCH   4   5
ENDBRANCH   3   4
ENDBRANCH   2   3
TORSDOF 8
ENDMDL
MODEL      282
REMARK 921   NORMALIZED FREE ENERGY PREDICTED BY IDOCK:   -1.38 KCAL/MOL
REMARK 922        TOTAL FREE ENERGY PREDICTED BY IDOCK:   -2.90 KCAL/MOL
REMARK 923 INTER-LIGAND FREE ENERGY PREDICTED BY IDOCK:   -3.48 KCAL/MOL
REMARK 924 INTRA-LIGAND FREE ENERGY PREDICTED BY IDOCK:    0.58 KCAL/MOL
REMARK 927      BINDING AFFINITY PREDICTED BY RF-SCORE:    0.00 PKD
ROOT
HETATM    1  C   UNL     1     -11.630  12.974  66.461  1.00  0.00    -0.356 C  
HETATM    2  O   UNL     1     -11.826  12.913  67.868  1.00  0.00    -0.346 OA 
ENDROOT
BRANCH   2   3
HETATM    3  C   UNL     1     -11.625  11.597  68.380  1.00  0.00    -0.312 C  
BRANCH   3   4
HETATM    4  C   UNL     1     -10.659  10.846  67.473  1.00  0.00    -0.271 C  
BRANCH   4   5
HETATM    5  C   UNL     1     -10.398   9.424  67.971  1.00  0.00    -0.220 C  
BRANCH   5   6
HETATM    6  O   UNL     1     -10.247   9.453  69.399  1.00  0.00    -0.190 OA 
BRANCH   6   7
HETATM    7  C   UNL     1      -9.761   8.293  69.957  1.00  0.00    -0.176 A  
HETATM    8  C   UNL     1     -10.245   7.072  69.448  1.00  0.00    -0.197 A  
HETATM    9  C   UNL     1     -11.335   7.063  68.413  1.00  0.00     0.152 C  
HETATM   10  C   UNL     1      -9.645   5.887  69.909  1.00  0.00    -0.158 A  
HETATM   11  C   UNL     1      -8.831   8.291  70.993  1.00  0.00    -0.176 A  
HETATM   12  N   UNL     1      -8.694   5.896  70.887  1.00  0.00    -0.130 NA 
HETATM   13  C   UNL     1      -8.342   7.080  71.428  1.00  0.00    -0.113 A  
BRANCH  10  14
HETATM   14  C   UNL     1      -9.904   4.526  69.293  1.00  0.00    -0.171 C  
BRANCH  14  15
HETATM   15  S   UNL     1      -8.368   3.725  68.771  1.00  0.00    -0.075 S  
HETATM   16  O   UNL     1      -8.551   2.277  68.418  1.00  0.00    -0.068 OA 
BRANCH  15  17
HETATM   17  C   UNL     1      -8.073   4.549  67.273  1.00  0.00    -0.101 A  
HETATM   18  N   UNL     1      -8.658   5.657  66.870  1.00  0.00    -0.111 NA 
HETATM   19  C   UNL     1      -8.029   5.989  65.690  1.00  0.00    -0.116 A  
HETATM   20  H   UNL     1      -9.414   6.162  67.332  1.00  0.00     0.000 HD 
HETATM   21  C   UNL     1      -8.249   7.077  64.832  1.00  0.00    -0.076 A  
HETATM   22  C   UNL     1      -7.421   7.230  63.711  1.00  0.00    -0.097 A  
HETATM   23  C   UNL     1      -6.396   6.317  63.448  1.00  0.00    -0.026 A  
HETATM   24  C   UNL     1      -6.179   5.210  64.277  1.00  0.00    -0.022 A  
HETATM   25  C   UNL     1      -7.026   5.075  65.382  1.00  0.00    -0.062 A  
HETATM   26  N   UNL     1      -7.118   4.135  66.377  1.00  0.00    -0.063 NA 
ENDBRANCH  15  17
ENDBRANCH  14  15
ENDBRANCH  10  14
ENDBRANCH   6   7
ENDBRANCH   5   6
ENDBRANCH   4   5
ENDBRANCH   3   4
ENDBRANCH   2   3
TORSDOF 8
ENDMDL
MODEL      283
REMARK 921   NORMALIZED FREE ENERGY PREDICTED BY IDOCK:   -1.31 KCAL/MOL
REMARK 922        TOTAL FREE ENERGY PREDICTED BY IDOCK:   -2.80 KCAL/MOL
REMARK 923 INTER-LIGAND FREE ENERGY PREDICTED BY IDOCK:   -2.44 KCAL/MOL
REMARK 924 INTRA-LIGAND FREE ENERGY PREDICTED BY IDOCK:   -0.36 KCAL/MOL
REMARK 927      BINDING AFFINITY PREDICTED BY RF-SCORE:    0.00 PKD
ROOT
HETATM    1  C   UNL     1      -6.816  11.322  70.561  1.00  0.00     0.878 C  
HETATM    2  O   UNL     1      -5.475  10.935  70.291  1.00  0.00    -0.060 OA 
ENDROOT
BRANCH   2   3
HETATM    3  C   UNL     1      -5.176  10.970  68.897  1.00  0.00    -0.040 C  
BRANCH   3   4
HETATM    4  C   UNL     1      -5.997  12.070  68.234  1.00  0.00    -0.051 C  
BRANCH   4   5
HETATM    5  C   UNL     1      -6.634  11.595  66.928  1.00  0.00    -0.129 C  
BRANCH   5   6
HETATM    6  O   UNL     1      -7.970  12.115  66.847  1.00  0.00    -0.157 OA 
BRANCH   6   7
HETATM    7  C   UNL     1      -8.963  11.228  67.195  1.00  0.00    -0.155 A  
HETATM    8  C   UNL     1      -9.042  10.021  66.473  1.00  0.00    -0.172 A  
HETATM    9  C   UNL     1      -8.137   9.784  65.297  1.00  0.00    -0.126 C  
HETATM   10  C   UNL     1      -9.955   9.050  66.920  1.00  0.00    -0.246 A  
HETATM   11  C   UNL     1      -9.877  11.487  68.213  1.00  0.00    -0.203 A  
HETATM   12  N   UNL     1     -10.812   9.291  67.954  1.00  0.00    -0.178 NA 
HETATM   13  C   UNL     1     -10.781  10.502  68.544  1.00  0.00    -0.224 A  
BRANCH  10  14
HETATM   14  C   UNL     1      -9.993   7.631  66.386  1.00  0.00    -0.072 C  
BRANCH  14  15
HETATM   15  S   UNL     1     -10.851   6.513  67.519  1.00  0.00    -0.366 S  
HETATM   16  O   UNL     1     -10.882   5.093  67.032  1.00  0.00    -0.132 OA 
BRANCH  15  17
HETATM   17  C   UNL     1      -9.762   6.532  68.870  1.00  0.00    -0.130 A  
HETATM   18  N   UNL     1     -10.044   6.946  70.087  1.00  0.00    -0.182 NA 
HETATM   19  C   UNL     1      -8.920   6.669  70.832  1.00  0.00    -0.147 A  
HETATM   20  H   UNL     1     -10.909   7.381  70.408  1.00  0.00     0.000 HD 
HETATM   21  C   UNL     1      -8.667   6.897  72.194  1.00  0.00    -0.131 A  
HETATM   22  C   UNL     1      -7.452   6.458  72.737  1.00  0.00    -0.095 A  
HETATM   23  C   UNL     1      -6.506   5.806  71.943  1.00  0.00    -0.053 A  
HETATM   24  C   UNL     1      -6.728   5.594  70.576  1.00  0.00    -0.048 A  
HETATM   25  C   UNL     1      -7.943   6.052  70.057  1.00  0.00    -0.109 A  
HETATM   26  N   UNL     1      -8.484   6.032  68.797  1.00  0.00    -0.112 NA 
ENDBRANCH  15  17
ENDBRANCH  14  15
ENDBRANCH  10  14
ENDBRANCH   6   7
ENDBRANCH   5   6
ENDBRANCH   4   5
ENDBRANCH   3   4
ENDBRANCH   2   3
TORSDOF 8
ENDMDL
MODEL      284
REMARK 921   NORMALIZED FREE ENERGY PREDICTED BY IDOCK:   -1.31 KCAL/MOL
REMARK 922        TOTAL FREE ENERGY PREDICTED BY IDOCK:   -2.79 KCAL/MOL
REMARK 923 INTER-LIGAND FREE ENERGY PREDICTED BY IDOCK:   -2.76 KCAL/MOL
REMARK 924 INTRA-LIGAND FREE ENERGY PREDICTED BY IDOCK:   -0.03 KCAL/MOL
REMARK 927      BINDING AFFINITY PREDICTED BY RF-SCORE:    0.00 PKD
ROOT
HETATM    1  C   UNL     1     -11.517   7.084  67.435  1.00  0.00     0.420 C  
HETATM    2  O   UNL     1     -10.826   8.293  67.148  1.00  0.00    -0.244 OA 
ENDROOT
BRANCH   2   3
HETATM    3  C   UNL     1     -10.825   9.187  68.260  1.00  0.00    -0.051 C  
BRANCH   3   4
HETATM    4  C   UNL     1      -9.419   9.743  68.457  1.00  0.00    -0.148 C  
BRANCH   4   5
HETATM    5  C   UNL     1      -9.048   9.840  69.936  1.00  0.00    -0.229 C  
BRANCH   5   6
HETATM    6  O   UNL     1      -9.424   8.618  70.591  1.00  0.00    -0.164 OA 
BRANCH   6   7
HETATM    7  C   UNL     1      -8.562   7.564  70.397  1.00  0.00    -0.143 A  
HETATM    8  C   UNL     1      -8.472   6.598  71.418  1.00  0.00    -0.124 A  
HETATM    9  C   UNL     1      -9.215   6.793  72.710  1.00  0.00    -0.149 C  
HETATM   10  C   UNL     1      -7.708   5.446  71.163  1.00  0.00    -0.102 A  
HETATM   11  C   UNL     1      -7.785   7.432  69.248  1.00  0.00    -0.107 A  
HETATM   12  N   UNL     1      -6.992   5.298  70.011  1.00  0.00    -0.058 NA 
HETATM   13  C   UNL     1      -7.015   6.299  69.109  1.00  0.00    -0.068 A  
BRANCH  10  14
HETATM   14  C   UNL     1      -7.702   4.231  72.070  1.00  0.00    -0.080 C  
BRANCH  14  15
HETATM   15  S   UNL     1      -9.209   3.249  71.883  1.00  0.00    -0.127 S  
HETATM   16  O   UNL     1     -10.449   3.992  72.288  1.00  0.00    -0.149 OA 
BRANCH  15  17
HETATM   17  C   UNL     1      -9.281   3.104  70.155  1.00  0.00    -0.149 A  
HETATM   18  N   UNL     1      -9.681   4.035  69.315  1.00  0.00    -0.172 NA 
HETATM   19  C   UNL     1      -9.459   3.510  68.061  1.00  0.00    -0.160 A  
HETATM   20  H   UNL     1     -10.072   4.949  69.544  1.00  0.00     0.000 HD 
HETATM   21  C   UNL     1      -9.698   4.072  66.798  1.00  0.00    -0.216 A  
HETATM   22  C   UNL     1      -9.319   3.352  65.657  1.00  0.00    -0.147 A  
HETATM   23  C   UNL     1      -8.716   2.097  65.769  1.00  0.00    -0.119 A  
HETATM   24  C   UNL     1      -8.494   1.508  67.020  1.00  0.00    -0.092 A  
HETATM   25  C   UNL     1      -8.891   2.242  68.142  1.00  0.00    -0.114 A  
HETATM   26  N   UNL     1      -8.846   1.984  69.488  1.00  0.00    -0.072 NA 
ENDBRANCH  15  17
ENDBRANCH  14  15
ENDBRANCH  10  14
ENDBRANCH   6   7
ENDBRANCH   5   6
ENDBRANCH   4   5
ENDBRANCH   3   4
ENDBRANCH   2   3
TORSDOF 8
ENDMDL
MODEL      285
REMARK 921   NORMALIZED FREE ENERGY PREDICTED BY IDOCK:   -1.21 KCAL/MOL
REMARK 922        TOTAL FREE ENERGY PREDICTED BY IDOCK:   -2.66 KCAL/MOL
REMARK 923 INTER-LIGAND FREE ENERGY PREDICTED BY IDOCK:   -3.65 KCAL/MOL
REMARK 924 INTRA-LIGAND FREE ENERGY PREDICTED BY IDOCK:    1.00 KCAL/MOL
REMARK 927      BINDING AFFINITY PREDICTED BY RF-SCORE:    0.00 PKD
ROOT
HETATM    1  C   UNL     1      -5.419   9.760  66.158  1.00  0.00    -0.047 C  
HETATM    2  O   UNL     1      -6.098   8.534  66.397  1.00  0.00    -0.053 OA 
ENDROOT
BRANCH   2   3
HETATM    3  C   UNL     1      -7.083   8.262  65.401  1.00  0.00    -0.067 C  
BRANCH   3   4
HETATM    4  C   UNL     1      -6.996   9.319  64.307  1.00  0.00    -0.097 C  
BRANCH   4   5
HETATM    5  C   UNL     1      -8.366   9.910  63.976  1.00  0.00    -0.168 C  
BRANCH   5   6
HETATM    6  O   UNL     1      -9.153   9.959  65.177  1.00  0.00    -0.178 OA 
BRANCH   6   7
HETATM    7  C   UNL     1      -9.885  11.112  65.347  1.00  0.00    -0.242 A  
HETATM    8  C   UNL     1      -9.260  12.191  66.000  1.00  0.00    -0.119 A  
HETATM    9  C   UNL     1      -7.884  12.028  66.582  1.00  0.00     0.039 C  
HETATM   10  C   UNL     1      -9.949  13.416  66.045  1.00  0.00    -0.293 A  
HETATM   11  C   UNL     1     -11.201  11.235  64.909  1.00  0.00    -0.107 A  
HETATM   12  N   UNL     1     -11.218  13.545  65.564  1.00  0.00    -0.291 NA 
HETATM   13  C   UNL     1     -11.823  12.456  65.049  1.00  0.00    -0.388 A  
BRANCH  10  14
HETATM   14  C   UNL     1      -9.316  14.713  66.512  1.00  0.00    -0.288 C  
BRANCH  14  15
HETATM   15  S   UNL     1      -8.837  14.633  68.254  1.00  0.00    -0.181 S  
HETATM   16  O   UNL     1      -9.281  15.832  69.041  1.00  0.00    -0.209 OA 
BRANCH  15  17
HETATM   17  C   UNL     1      -9.825  13.313  68.796  1.00  0.00    -0.003 A  
HETATM   18  N   UNL     1      -9.395  12.130  69.181  1.00  0.00    -0.199 NA 
HETATM   19  C   UNL     1     -10.517  11.464  69.622  1.00  0.00     0.211 A  
HETATM   20  H   UNL     1      -8.437  11.782  69.156  1.00  0.00     0.000 HD 
HETATM   21  C   UNL     1     -10.643  10.169  70.146  1.00  0.00    -0.337 A  
HETATM   22  C   UNL     1     -11.901   9.741  70.591  1.00  0.00    -0.360 A  
HETATM   23  C   UNL     1     -13.013  10.584  70.516  1.00  0.00    -0.289 A  
HETATM   24  C   UNL     1     -12.912  11.870  69.972  1.00  0.00     0.573 A  
HETATM   25  C   UNL     1     -11.648  12.268  69.525  1.00  0.00    -0.298 A  
HETATM   26  N   UNL     1     -11.187  13.419  68.938  1.00  0.00    -0.264 NA 
ENDBRANCH  15  17
ENDBRANCH  14  15
ENDBRANCH  10  14
ENDBRANCH   6   7
ENDBRANCH   5   6
ENDBRANCH   4   5
ENDBRANCH   3   4
ENDBRANCH   2   3
TORSDOF 8
ENDMDL
MODEL      286
REMARK 921   NORMALIZED FREE ENERGY PREDICTED BY IDOCK:   -0.98 KCAL/MOL
REMARK 922        TOTAL FREE ENERGY PREDICTED BY IDOCK:   -2.30 KCAL/MOL
REMARK 923 INTER-LIGAND FREE ENERGY PREDICTED BY IDOCK:   -2.83 KCAL/MOL
REMARK 924 INTRA-LIGAND FREE ENERGY PREDICTED BY IDOCK:    0.52 KCAL/MOL
REMARK 927      BINDING AFFINITY PREDICTED BY RF-SCORE:    0.00 PKD
ROOT
HETATM    1  C   UNL     1     -10.516   9.735  69.942  1.00  0.00    -0.261 C  
HETATM    2  O   UNL     1     -11.132   9.909  68.672  1.00  0.00    -0.209 OA 
ENDROOT
BRANCH   2   3
HETATM    3  C   UNL     1     -11.993  11.046  68.645  1.00  0.00    -0.177 C  
BRANCH   3   4
HETATM    4  C   UNL     1     -11.749  11.892  69.889  1.00  0.00    -0.383 C  
BRANCH   4   5
HETATM    5  C   UNL     1     -10.775  13.037  69.616  1.00  0.00     0.455 C  
BRANCH   5   6
HETATM    6  O   UNL     1     -11.451  14.285  69.841  1.00  0.00    -0.261 OA 
BRANCH   6   7
HETATM    7  C   UNL     1     -10.904  15.368  69.192  1.00  0.00    -0.249 A  
HETATM    8  C   UNL     1      -9.543  15.648  69.424  1.00  0.00    -0.287 A  
HETATM    9  C   UNL     1      -8.767  14.846  70.431  1.00  0.00     1.230 C  
HETATM   10  C   UNL     1      -8.943  16.659  68.653  1.00  0.00    -0.246 A  
HETATM   11  C   UNL     1     -11.643  16.184  68.341  1.00  0.00    -0.228 A  
HETATM   12  N   UNL     1      -9.663  17.420  67.779  1.00  0.00    -0.262 NA 
HETATM   13  C   UNL     1     -10.987  17.194  67.673  1.00  0.00    -0.148 A  
BRANCH  10  14
HETATM   14  C   UNL     1      -7.448  16.917  68.632  1.00  0.00    -0.226 C  
BRANCH  14  15
HETATM   15  S   UNL     1      -6.669  16.207  67.162  1.00  0.00    -0.150 S  
HETATM   16  O   UNL     1      -5.277  15.707  67.418  1.00  0.00    -0.310 OA 
BRANCH  15  17
HETATM   17  C   UNL     1      -7.650  14.794  66.932  1.00  0.00     0.246 A  
HETATM   18  N   UNL     1      -8.655  14.677  66.090  1.00  0.00    -0.302 NA 
HETATM   19  C   UNL     1      -9.048  13.361  66.178  1.00  0.00     0.126 A  
HETATM   20  H   UNL     1      -9.056  15.406  65.499  1.00  0.00     0.000 HD 
HETATM   21  C   UNL     1     -10.073  12.683  65.499  1.00  0.00    -0.279 A  
HETATM   22  C   UNL     1     -10.233  11.308  65.719  1.00  0.00    -0.301 A  
HETATM   23  C   UNL     1      -9.392  10.620  66.599  1.00  0.00    -0.189 A  
HETATM   24  C   UNL     1      -8.382  11.285  67.306  1.00  0.00    -0.145 A  
HETATM   25  C   UNL     1      -8.251  12.658  67.076  1.00  0.00    -0.108 A  
HETATM   26  N   UNL     1      -7.407  13.612  67.586  1.00  0.00    -0.164 NA 
ENDBRANCH  15  17
ENDBRANCH  14  15
ENDBRANCH  10  14
ENDBRANCH   6   7
ENDBRANCH   5   6
ENDBRANCH   4   5
ENDBRANCH   3   4
ENDBRANCH   2   3
TORSDOF 8
ENDMDL
MODEL      287
REMARK 921   NORMALIZED FREE ENERGY PREDICTED BY IDOCK:   -0.65 KCAL/MOL
REMARK 922        TOTAL FREE ENERGY PREDICTED BY IDOCK:   -1.83 KCAL/MOL
REMARK 923 INTER-LIGAND FREE ENERGY PREDICTED BY IDOCK:   -1.44 KCAL/MOL
REMARK 924 INTRA-LIGAND FREE ENERGY PREDICTED BY IDOCK:   -0.39 KCAL/MOL
REMARK 927      BINDING AFFINITY PREDICTED BY RF-SCORE:    0.00 PKD
ROOT
HETATM    1  C   UNL     1      -7.298   6.391  68.468  1.00  0.00    -0.087 C  
HETATM    2  O   UNL     1      -6.106   7.141  68.271  1.00  0.00    -0.031 OA 
ENDROOT
BRANCH   2   3
HETATM    3  C   UNL     1      -6.136   7.887  67.055  1.00  0.00    -0.053 C  
BRANCH   3   4
HETATM    4  C   UNL     1      -5.752   9.333  67.343  1.00  0.00    -0.042 C  
BRANCH   4   5
HETATM    5  C   UNL     1      -6.721  10.319  66.691  1.00  0.00    -0.082 C  
BRANCH   5   6
HETATM    6  O   UNL     1      -7.348  11.103  67.718  1.00  0.00    -0.088 OA 
BRANCH   6   7
HETATM    7  C   UNL     1      -8.369  11.918  67.288  1.00  0.00    -0.169 A  
HETATM    8  C   UNL     1      -8.103  13.297  67.182  1.00  0.00    -0.099 A  
HETATM    9  C   UNL     1      -6.780  13.848  67.635  1.00  0.00    -0.189 C  
HETATM   10  C   UNL     1      -9.093  14.111  66.604  1.00  0.00    -0.216 A  
HETATM   11  C   UNL     1      -9.634  11.431  66.971  1.00  0.00    -0.192 A  
HETATM   12  N   UNL     1     -10.311  13.617  66.244  1.00  0.00    -0.287 NA 
HETATM   13  C   UNL     1     -10.566  12.312  66.469  1.00  0.00    -0.234 A  
BRANCH  10  14
HETATM   14  C   UNL     1      -8.862  15.561  66.222  1.00  0.00    -0.303 C  
BRANCH  14  15
HETATM   15  S   UNL     1      -9.045  16.664  67.645  1.00  0.00    -0.207 S  
HETATM   16  O   UNL     1      -9.707  17.965  67.298  1.00  0.00    -0.276 OA 
BRANCH  15  17
HETATM   17  C   UNL     1     -10.199  15.776  68.589  1.00  0.00    -0.221 A  
HETATM   18  N   UNL     1      -9.942  15.086  69.680  1.00  0.00    -0.419 NA 
HETATM   19  C   UNL     1     -11.168  14.658  70.134  1.00  0.00    -0.184 A  
HETATM   20  H   UNL     1      -9.028  14.907  70.098  1.00  0.00     0.000 HD 
HETATM   21  C   UNL     1     -11.488  13.886  71.262  1.00  0.00     0.798 A  
HETATM   22  C   UNL     1     -12.837  13.636  71.548  1.00  0.00    -0.445 A  
HETATM   23  C   UNL     1     -13.849  14.142  70.728  1.00  0.00     0.300 A  
HETATM   24  C   UNL     1     -13.549  14.891  69.583  1.00  0.00     1.806 A  
HETATM   25  C   UNL     1     -12.195  15.116  69.315  1.00  0.00    -0.177 A  
HETATM   26  N   UNL     1     -11.543  15.776  68.304  1.00  0.00    -0.342 NA 
ENDBRANCH  15  17
ENDBRANCH  14  15
ENDBRANCH  10  14
ENDBRANCH   6   7
ENDBRANCH   5   6
ENDBRANCH   4   5
ENDBRANCH   3   4
ENDBRANCH   2   3
TORSDOF 8
ENDMDL
MODEL      288
REMARK 921   NORMALIZED FREE ENERGY PREDICTED BY IDOCK:    0.69 KCAL/MOL
REMARK 922        TOTAL FREE ENERGY PREDICTED BY IDOCK:    0.15 KCAL/MOL
REMARK 923 INTER-LIGAND FREE ENERGY PREDICTED BY IDOCK:   -0.45 KCAL/MOL
REMARK 924 INTRA-LIGAND FREE ENERGY PREDICTED BY IDOCK:    0.60 KCAL/MOL
REMARK 927      BINDING AFFINITY PREDICTED BY RF-SCORE:    0.00 PKD
ROOT
HETATM    1  C   UNL     1      -7.224   6.372  68.447  1.00  0.00    -0.085 C  
HETATM    2  O   UNL     1      -6.063   7.155  68.695  1.00  0.00    -0.028 OA 
ENDROOT
BRANCH   2   3
HETATM    3  C   UNL     1      -5.828   8.109  67.662  1.00  0.00    -0.042 C  
BRANCH   3   4
HETATM    4  C   UNL     1      -5.565   9.474  68.289  1.00  0.00    -0.037 C  
BRANCH   4   5
HETATM    5  C   UNL     1      -6.094  10.612  67.417  1.00  0.00    -0.053 C  
BRANCH   5   6
HETATM    6  O   UNL     1      -7.232  11.202  68.064  1.00  0.00    -0.076 OA 
BRANCH   6   7
HETATM    7  C   UNL     1      -7.612  12.429  67.571  1.00  0.00    -0.155 A  
HETATM    8  C   UNL     1      -6.743  13.516  67.787  1.00  0.00    -0.173 A  
HETATM    9  C   UNL     1      -5.508  13.341  68.625  1.00  0.00    -0.076 C  
HETATM   10  C   UNL     1      -7.052  14.736  67.159  1.00  0.00     0.148 A  
HETATM   11  C   UNL     1      -8.809  12.625  66.887  1.00  0.00    -0.201 A  
HETATM   12  N   UNL     1      -8.201  14.905  66.444  1.00  0.00     0.216 NA 
HETATM   13  C   UNL     1      -9.061  13.871  66.358  1.00  0.00    -0.079 A  
BRANCH  10  14
HETATM   14  C   UNL     1      -6.102  15.918  67.118  1.00  0.00     0.057 C  
BRANCH  14  15
HETATM   15  S   UNL     1      -6.268  16.960  68.586  1.00  0.00    -0.160 S  
HETATM   16  O   UNL     1      -5.274  18.085  68.624  1.00  0.00    -0.152 OA 
BRANCH  15  17
HETATM   17  C   UNL     1      -7.811  17.695  68.283  1.00  0.00    -0.256 A  
HETATM   18  N   UNL     1      -8.490  18.447  69.123  1.00  0.00    -0.013 NA 
HETATM   19  C   UNL     1      -9.582  18.888  68.410  1.00  0.00    -0.369 A  
HETATM   20  H   UNL     1      -8.257  18.656  70.094  1.00  0.00     0.000 HD 
HETATM   21  C   UNL     1     -10.637  19.723  68.811  1.00  0.00     0.004 A  
HETATM   22  C   UNL     1     -11.607  20.084  67.866  1.00  0.00     1.455 A  
HETATM   23  C   UNL     1     -11.532  19.622  66.549  1.00  0.00     0.648 A  
HETATM   24  C   UNL     1     -10.502  18.767  66.138  1.00  0.00    -0.499 A  
HETATM   25  C   UNL     1      -9.554  18.413  67.103  1.00  0.00    -0.295 A  
HETATM   26  N   UNL     1      -8.445  17.606  67.068  1.00  0.00    -0.229 NA 
ENDBRANCH  15  17
ENDBRANCH  14  15
ENDBRANCH  10  14
ENDBRANCH   6   7
ENDBRANCH   5   6
ENDBRANCH   4   5
ENDBRANCH   3   4
ENDBRANCH   2   3
TORSDOF 8
ENDMDL
MODEL      289
REMARK 921   NORMALIZED FREE ENERGY PREDICTED BY IDOCK:    0.72 KCAL/MOL
REMARK 922        TOTAL FREE ENERGY PREDICTED BY IDOCK:    0.19 KCAL/MOL
REMARK 923 INTER-LIGAND FREE ENERGY PREDICTED BY IDOCK:    0.03 KCAL/MOL
REMARK 924 INTRA-LIGAND FREE ENERGY PREDICTED BY IDOCK:    0.16 KCAL/MOL
REMARK 927      BINDING AFFINITY PREDICTED BY RF-SCORE:    0.00 PKD
ROOT
HETATM    1  C   UNL     1      -7.292   6.417  68.476  1.00  0.00    -0.087 C  
HETATM    2  O   UNL     1      -6.006   7.024  68.495  1.00  0.00    -0.023 OA 
ENDROOT
BRANCH   2   3
HETATM    3  C   UNL     1      -5.812   7.903  67.389  1.00  0.00    -0.038 C  
BRANCH   3   4
HETATM    4  C   UNL     1      -5.187   9.202  67.883  1.00  0.00    -0.034 C  
BRANCH   4   5
HETATM    5  C   UNL     1      -5.827  10.426  67.228  1.00  0.00    -0.052 C  
BRANCH   5   6
HETATM    6  O   UNL     1      -6.457  11.221  68.245  1.00  0.00    -0.055 OA 
BRANCH   6   7
HETATM    7  C   UNL     1      -7.036  12.386  67.798  1.00  0.00    -0.120 A  
HETATM    8  C   UNL     1      -6.405  13.599  68.136  1.00  0.00    -0.123 A  
HETATM    9  C   UNL     1      -5.208  13.601  69.045  1.00  0.00    -0.073 C  
HETATM   10  C   UNL     1      -6.907  14.780  67.560  1.00  0.00    -0.155 A  
HETATM   11  C   UNL     1      -8.208  12.401  67.047  1.00  0.00    -0.141 A  
HETATM   12  N   UNL     1      -8.025  14.780  66.779  1.00  0.00     0.021 NA 
HETATM   13  C   UNL     1      -8.665  13.611  66.575  1.00  0.00     0.115 A  
BRANCH  10  14
HETATM   14  C   UNL     1      -6.200  16.119  67.652  1.00  0.00    -0.154 C  
BRANCH  14  15
HETATM   15  S   UNL     1      -6.755  17.071  69.086  1.00  0.00    -0.237 S  
HETATM   16  O   UNL     1      -6.773  18.551  68.837  1.00  0.00    -0.252 OA 
BRANCH  15  17
HETATM   17  C   UNL     1      -8.418  16.580  69.169  1.00  0.00    -0.151 A  
HETATM   18  N   UNL     1      -9.001  15.989  70.190  1.00  0.00     0.695 NA 
HETATM   19  C   UNL     1     -10.331  15.898  69.844  1.00  0.00    -0.281 A  
HETATM   20  H   UNL     1      -8.562  15.667  71.053  1.00  0.00     0.000 HD 
HETATM   21  C   UNL     1     -11.410  15.359  70.561  1.00  0.00    -0.351 A  
HETATM   22  C   UNL     1     -12.696  15.448  70.011  1.00  0.00    -0.189 A  
HETATM   23  C   UNL     1     -12.906  16.059  68.772  1.00  0.00     1.719 A  
HETATM   24  C   UNL     1     -11.838  16.578  68.029  1.00  0.00     0.527 A  
HETATM   25  C   UNL     1     -10.564  16.467  68.595  1.00  0.00    -0.305 A  
HETATM   26  N   UNL     1      -9.316  16.839  68.163  1.00  0.00    -0.229 NA 
ENDBRANCH  15  17
ENDBRANCH  14  15
ENDBRANCH  10  14
ENDBRANCH   6   7
ENDBRANCH   5   6
ENDBRANCH   4   5
ENDBRANCH   3   4
ENDBRANCH   2   3
TORSDOF 8
ENDMDL
MODEL      290
REMARK 921   NORMALIZED FREE ENERGY PREDICTED BY IDOCK:    3.13 KCAL/MOL
REMARK 922        TOTAL FREE ENERGY PREDICTED BY IDOCK:    3.71 KCAL/MOL
REMARK 923 INTER-LIGAND FREE ENERGY PREDICTED BY IDOCK:    3.41 KCAL/MOL
REMARK 924 INTRA-LIGAND FREE ENERGY PREDICTED BY IDOCK:    0.31 KCAL/MOL
REMARK 927      BINDING AFFINITY PREDICTED BY RF-SCORE:    0.00 PKD
ROOT
HETATM    1  C   UNL     1     -10.835  13.728  70.862  1.00  0.00     2.045 C  
HETATM    2  O   UNL     1     -10.715  14.460  69.649  1.00  0.00    -0.177 OA 
ENDROOT
BRANCH   2   3
HETATM    3  C   UNL     1     -10.106  13.689  68.615  1.00  0.00    -0.180 C  
BRANCH   3   4
HETATM    4  C   UNL     1      -9.474  14.628  67.594  1.00  0.00    -0.205 C  
BRANCH   4   5
HETATM    5  C   UNL     1     -10.523  15.472  66.871  1.00  0.00    -0.301 C  
BRANCH   5   6
HETATM    6  O   UNL     1     -10.711  14.947  65.547  1.00  0.00    -0.312 OA 
BRANCH   6   7
HETATM    7  C   UNL     1     -10.994  13.602  65.489  1.00  0.00    -0.293 A  
HETATM    8  C   UNL     1     -10.287  12.827  64.550  1.00  0.00    -0.373 A  
HETATM    9  C   UNL     1      -9.345  13.486  63.582  1.00  0.00     4.232 C  
HETATM   10  C   UNL     1     -10.464  11.432  64.587  1.00  0.00    -0.315 A  
HETATM   11  C   UNL     1     -11.946  13.000  66.308  1.00  0.00    -0.477 A  
HETATM   12  N   UNL     1     -11.359  10.843  65.431  1.00  0.00     0.281 NA 
HETATM   13  C   UNL     1     -12.099  11.634  66.234  1.00  0.00     0.797 A  
BRANCH  10  14
HETATM   14  C   UNL     1      -9.608  10.461  63.796  1.00  0.00    -0.310 C  
BRANCH  14  15
HETATM   15  S   UNL     1      -7.911  10.406  64.418  1.00  0.00    -0.000 S  
HETATM   16  O   UNL     1      -7.768  10.995  65.791  1.00  0.00    -0.089 OA 
BRANCH  15  17
HETATM   17  C   UNL     1      -7.697   8.694  64.607  1.00  0.00    -0.121 A  
HETATM   18  N   UNL     1      -8.206   7.759  63.833  1.00  0.00    -0.350 NA 
HETATM   19  C   UNL     1      -7.678   6.577  64.300  1.00  0.00    -0.105 A  
HETATM   20  H   UNL     1      -8.854   7.884  63.055  1.00  0.00     0.000 HD 
HETATM   21  C   UNL     1      -7.877   5.264  63.846  1.00  0.00    -0.098 A  
HETATM   22  C   UNL     1      -7.163   4.223  64.456  1.00  0.00    -0.069 A  
HETATM   23  C   UNL     1      -6.270   4.483  65.499  1.00  0.00    -0.031 A  
HETATM   24  C   UNL     1      -6.078   5.782  65.984  1.00  0.00    -0.029 A  
HETATM   25  C   UNL     1      -6.811   6.800  65.365  1.00  0.00    -0.051 A  
HETATM   26  N   UNL     1      -6.890   8.153  65.578  1.00  0.00    -0.062 NA 
ENDBRANCH  15  17
ENDBRANCH  14  15
ENDBRANCH  10  14
ENDBRANCH   6   7
ENDBRANCH   5   6
ENDBRANCH   4   5
ENDBRANCH   3   4
ENDBRANCH   2   3
TORSDOF 8
ENDMDL
MODEL      291
REMARK 921   NORMALIZED FREE ENERGY PREDICTED BY IDOCK:    4.32 KCAL/MOL
REMARK 922        TOTAL FREE ENERGY PREDICTED BY IDOCK:    5.47 KCAL/MOL
REMARK 923 INTER-LIGAND FREE ENERGY PREDICTED BY IDOCK:    4.93 KCAL/MOL
REMARK 924 INTRA-LIGAND FREE ENERGY PREDICTED BY IDOCK:    0.55 KCAL/MOL
REMARK 927      BINDING AFFINITY PREDICTED BY RF-SCORE:    0.00 PKD
ROOT
HETATM    1  C   UNL     1     -10.837  13.725  70.861  1.00  0.00     2.045 C  
HETATM    2  O   UNL     1     -10.737  14.465  69.651  1.00  0.00    -0.177 OA 
ENDROOT
BRANCH   2   3
HETATM    3  C   UNL     1     -10.175  13.691  68.593  1.00  0.00    -0.197 C  
BRANCH   3   4
HETATM    4  C   UNL     1      -9.541  14.624  67.568  1.00  0.00    -0.206 C  
BRANCH   4   5
HETATM    5  C   UNL     1     -10.578  15.533  66.908  1.00  0.00    -0.307 C  
BRANCH   5   6
HETATM    6  O   UNL     1     -10.851  15.042  65.586  1.00  0.00    -0.317 OA 
BRANCH   6   7
HETATM    7  C   UNL     1     -11.223  13.719  65.521  1.00  0.00    -0.299 A  
HETATM    8  C   UNL     1     -10.613  12.918  64.537  1.00  0.00    -0.403 A  
HETATM    9  C   UNL     1      -9.676  13.533  63.535  1.00  0.00     3.322 C  
HETATM   10  C   UNL     1     -10.878  11.537  64.561  1.00  0.00    -0.327 A  
HETATM   11  C   UNL     1     -12.173  13.164  66.374  1.00  0.00    -0.396 A  
HETATM   12  N   UNL     1     -11.769  10.991  65.437  1.00  0.00     0.432 NA 
HETATM   13  C   UNL     1     -12.418  11.812  66.287  1.00  0.00     1.828 A  
BRANCH  10  14
HETATM   14  C   UNL     1     -10.125  10.528  63.714  1.00  0.00    -0.184 C  
BRANCH  14  15
HETATM   15  S   UNL     1      -8.409  10.349  64.256  1.00  0.00    -0.099 S  
HETATM   16  O   UNL     1      -7.681  11.659  64.345  1.00  0.00     1.488 OA 
BRANCH  15  17
HETATM   17  C   UNL     1      -8.645   9.821  65.893  1.00  0.00    -0.137 A  
HETATM   18  N   UNL     1      -9.618   9.047  66.324  1.00  0.00    -0.239 NA 
HETATM   19  C   UNL     1      -9.332   8.811  67.650  1.00  0.00    -0.137 A  
HETATM   20  H   UNL     1     -10.415   8.697  65.790  1.00  0.00     0.000 HD 
HETATM   21  C   UNL     1     -10.031   8.048  68.597  1.00  0.00    -0.200 A  
HETATM   22  C   UNL     1      -9.490   7.908  69.883  1.00  0.00    -0.160 A  
HETATM   23  C   UNL     1      -8.279   8.517  70.221  1.00  0.00    -0.115 A  
HETATM   24  C   UNL     1      -7.580   9.305  69.297  1.00  0.00    -0.080 A  
HETATM   25  C   UNL     1      -8.147   9.437  68.026  1.00  0.00    -0.106 A  
HETATM   26  N   UNL     1      -7.764  10.123  66.901  1.00  0.00    -0.102 NA 
ENDBRANCH  15  17
ENDBRANCH  14  15
ENDBRANCH  10  14
ENDBRANCH   6   7
ENDBRANCH   5   6
ENDBRANCH   4   5
ENDBRANCH   3   4
ENDBRANCH   2   3
TORSDOF 8
ENDMDL
MODEL      292
REMARK 921   NORMALIZED FREE ENERGY PREDICTED BY IDOCK:   10.55 KCAL/MOL
REMARK 922        TOTAL FREE ENERGY PREDICTED BY IDOCK:   14.61 KCAL/MOL
REMARK 923 INTER-LIGAND FREE ENERGY PREDICTED BY IDOCK:   11.08 KCAL/MOL
REMARK 924 INTRA-LIGAND FREE ENERGY PREDICTED BY IDOCK:    3.53 KCAL/MOL
REMARK 927      BINDING AFFINITY PREDICTED BY RF-SCORE:    0.00 PKD
ROOT
HETATM    1  C   UNL     1     -10.454  13.435  71.297  1.00  0.00     5.596 C  
HETATM    2  O   UNL     1      -9.548  14.163  70.478  1.00  0.00     1.928 OA 
ENDROOT
BRANCH   2   3
HETATM    3  C   UNL     1      -8.523  13.330  69.939  1.00  0.00     2.485 C  
BRANCH   3   4
HETATM    4  C   UNL     1      -7.259  14.155  69.734  1.00  0.00     0.175 C  
BRANCH   4   5
HETATM    5  C   UNL     1      -7.552  15.655  69.737  1.00  0.00    -0.023 C  
BRANCH   5   6
HETATM    6  O   UNL     1      -8.638  15.918  68.834  1.00  0.00    -0.191 OA 
BRANCH   6   7
HETATM    7  C   UNL     1      -8.298  16.626  67.704  1.00  0.00    -0.173 A  
HETATM    8  C   UNL     1      -9.214  17.588  67.237  1.00  0.00    -0.240 A  
HETATM    9  C   UNL     1     -10.556  17.738  67.898  1.00  0.00    -0.389 C  
HETATM   10  C   UNL     1      -8.809  18.415  66.174  1.00  0.00    -0.098 A  
HETATM   11  C   UNL     1      -7.104  16.417  67.019  1.00  0.00    -0.259 A  
HETATM   12  N   UNL     1      -7.614  18.240  65.542  1.00  0.00    -0.453 NA 
HETATM   13  C   UNL     1      -6.815  17.232  65.948  1.00  0.00     0.022 A  
BRANCH  10  14
HETATM   14  C   UNL     1      -9.593  19.631  65.717  1.00  0.00    -0.039 C  
BRANCH  14  15
HETATM   15  S   UNL     1     -10.101  20.662  67.114  1.00  0.00     0.017 S  
HETATM   16  O   UNL     1     -11.409  20.236  67.714  1.00  0.00     0.495 OA 
BRANCH  15  17
HETATM   17  C   UNL     1      -8.882  20.245  68.277  1.00  0.00     0.069 A  
HETATM   18  N   UNL     1      -7.675  19.795  68.007  1.00  0.00    -0.300 NA 
HETATM   19  C   UNL     1      -7.039  19.715  69.226  1.00  0.00    -0.331 A  
HETATM   20  H   UNL     1      -7.293  19.557  67.092  1.00  0.00     0.000 HD 
HETATM   21  C   UNL     1      -5.734  19.300  69.531  1.00  0.00    -0.258 A  
HETATM   22  C   UNL     1      -5.296  19.373  70.861  1.00  0.00    -0.255 A  
HETATM   23  C   UNL     1      -6.141  19.847  71.868  1.00  0.00    -0.135 A  
HETATM   24  C   UNL     1      -7.455  20.239  71.588  1.00  0.00     1.487 A  
HETATM   25  C   UNL     1      -7.870  20.146  70.255  1.00  0.00     1.071 A  
HETATM   26  N   UNL     1      -9.059  20.421  69.628  1.00  0.00     0.876 NA 
ENDBRANCH  15  17
ENDBRANCH  14  15
ENDBRANCH  10  14
ENDBRANCH   6   7
ENDBRANCH   5   6
ENDBRANCH   4   5
ENDBRANCH   3   4
ENDBRANCH   2   3
TORSDOF 8
ENDMDL
MODEL      293
REMARK 921   NORMALIZED FREE ENERGY PREDICTED BY IDOCK:   12.29 KCAL/MOL
REMARK 922        TOTAL FREE ENERGY PREDICTED BY IDOCK:   17.17 KCAL/MOL
REMARK 923 INTER-LIGAND FREE ENERGY PREDICTED BY IDOCK:   14.52 KCAL/MOL
REMARK 924 INTRA-LIGAND FREE ENERGY PREDICTED BY IDOCK:    2.65 KCAL/MOL
REMARK 927      BINDING AFFINITY PREDICTED BY RF-SCORE:    0.00 PKD
ROOT
HETATM    1  C   UNL     1      -5.128   9.830  66.996  1.00  0.00    -0.041 C  
HETATM    2  O   UNL     1      -6.159   8.941  66.584  1.00  0.00    -0.058 OA 
ENDROOT
BRANCH   2   3
HETATM    3  C   UNL     1      -6.802   9.383  65.390  1.00  0.00    -0.079 C  
BRANCH   3   4
HETATM    4  C   UNL     1      -8.216   9.844  65.720  1.00  0.00    -0.125 C  
BRANCH   4   5
HETATM    5  C   UNL     1      -9.259   8.786  65.360  1.00  0.00    -0.088 C  
BRANCH   5   6
HETATM    6  O   UNL     1      -8.644   7.489  65.421  1.00  0.00    -0.130 OA 
BRANCH   6   7
HETATM    7  C   UNL     1      -9.518   6.428  65.373  1.00  0.00     0.571 A  
HETATM    8  C   UNL     1      -9.881   5.826  66.594  1.00  0.00    -0.194 A  
HETATM    9  C   UNL     1      -9.237   6.272  67.877  1.00  0.00    -0.116 C  
HETATM   10  C   UNL     1     -10.884   4.841  66.565  1.00  0.00     0.284 A  
HETATM   11  C   UNL     1     -10.036   5.935  64.178  1.00  0.00     2.591 A  
HETATM   12  N   UNL     1     -11.427   4.402  65.394  1.00  0.00     0.428 NA 
HETATM   13  C   UNL     1     -10.968   4.924  64.239  1.00  0.00     1.176 A  
BRANCH  10  14
HETATM   14  C   UNL     1     -11.530   4.272  67.814  1.00  0.00     6.102 C  
BRANCH  14  15
HETATM   15  S   UNL     1     -10.376   3.244  68.754  1.00  0.00     2.167 S  
HETATM   16  O   UNL     1     -10.830   1.819  68.884  1.00  0.00     2.601 OA 
BRANCH  15  17
HETATM   17  C   UNL     1      -9.019   3.218  67.672  1.00  0.00    -0.151 A  
HETATM   18  N   UNL     1      -8.055   4.110  67.616  1.00  0.00    -0.094 NA 
HETATM   19  C   UNL     1      -7.157   3.616  66.697  1.00  0.00    -0.059 A  
HETATM   20  H   UNL     1      -7.987   4.983  68.142  1.00  0.00     0.000 HD 
HETATM   21  C   UNL     1      -5.942   4.157  66.249  1.00  0.00    -0.027 A  
HETATM   22  C   UNL     1      -5.168   3.418  65.343  1.00  0.00    -0.009 A  
HETATM   23  C   UNL     1      -5.595   2.166  64.891  1.00  0.00    -0.009 A  
HETATM   24  C   UNL     1      -6.817   1.623  65.305  1.00  0.00    -0.031 A  
HETATM   25  C   UNL     1      -7.574   2.385  66.200  1.00  0.00    -0.068 A  
HETATM   26  N   UNL     1      -8.795   2.185  66.794  1.00  0.00    -0.125 NA 
ENDBRANCH  15  17
ENDBRANCH  14  15
ENDBRANCH  10  14
ENDBRANCH   6   7
ENDBRANCH   5   6
ENDBRANCH   4   5
ENDBRANCH   3   4
ENDBRANCH   2   3
TORSDOF 8
ENDMDL
MODEL      294
REMARK 921   NORMALIZED FREE ENERGY PREDICTED BY IDOCK:   12.40 KCAL/MOL
REMARK 922        TOTAL FREE ENERGY PREDICTED BY IDOCK:   17.33 KCAL/MOL
REMARK 923 INTER-LIGAND FREE ENERGY PREDICTED BY IDOCK:   15.28 KCAL/MOL
REMARK 924 INTRA-LIGAND FREE ENERGY PREDICTED BY IDOCK:    2.05 KCAL/MOL
REMARK 927      BINDING AFFINITY PREDICTED BY RF-SCORE:    0.00 PKD
ROOT
HETATM    1  C   UNL     1     -12.757   7.072  66.759  1.00  0.00     9.324 C  
HETATM    2  O   UNL     1     -11.610   7.913  66.750  1.00  0.00     1.446 OA 
ENDROOT
BRANCH   2   3
HETATM    3  C   UNL     1     -11.252   8.346  68.061  1.00  0.00     0.639 C  
BRANCH   3   4
HETATM    4  C   UNL     1      -9.734   8.451  68.158  1.00  0.00    -0.175 C  
BRANCH   4   5
HETATM    5  C   UNL     1      -9.193   7.730  69.392  1.00  0.00    -0.149 C  
BRANCH   5   6
HETATM    6  O   UNL     1      -9.209   6.314  69.148  1.00  0.00    -0.129 OA 
BRANCH   6   7
HETATM    7  C   UNL     1      -8.300   5.874  68.213  1.00  0.00    -0.112 A  
HETATM    8  C   UNL     1      -7.779   4.575  68.370  1.00  0.00    -0.079 A  
HETATM    9  C   UNL     1      -8.132   3.761  69.584  1.00  0.00    -0.062 C  
HETATM   10  C   UNL     1      -6.967   4.067  67.341  1.00  0.00    -0.055 A  
HETATM   11  C   UNL     1      -7.882   6.663  67.144  1.00  0.00    -0.105 A  
HETATM   12  N   UNL     1      -6.606   4.828  66.269  1.00  0.00    -0.047 NA 
HETATM   13  C   UNL     1      -7.034   6.105  66.215  1.00  0.00    -0.066 A  
BRANCH  10  14
HETATM   14  C   UNL     1      -6.524   2.619  67.267  1.00  0.00    -0.036 C  
BRANCH  14  15
HETATM   15  S   UNL     1      -7.915   1.482  67.474  1.00  0.00    -0.061 S  
HETATM   16  O   UNL     1      -8.561   1.584  68.825  1.00  0.00    -0.052 OA 
BRANCH  15  17
HETATM   17  C   UNL     1      -9.050   2.160  66.349  1.00  0.00    -0.052 A  
HETATM   18  N   UNL     1     -10.024   2.995  66.640  1.00  0.00    -0.088 NA 
HETATM   19  C   UNL     1     -10.578   3.340  65.428  1.00  0.00     1.049 A  
HETATM   20  H   UNL     1     -10.308   3.318  67.565  1.00  0.00     0.000 HD 
HETATM   21  C   UNL     1     -11.647   4.204  65.142  1.00  0.00     1.614 A  
HETATM   22  C   UNL     1     -11.982   4.442  63.803  1.00  0.00     2.571 A  
HETATM   23  C   UNL     1     -11.270   3.833  62.766  1.00  0.00     0.202 A  
HETATM   24  C   UNL     1     -10.219   2.947  63.031  1.00  0.00    -0.137 A  
HETATM   25  C   UNL     1      -9.912   2.718  64.376  1.00  0.00    -0.041 A  
HETATM   26  N   UNL     1      -8.981   1.924  64.998  1.00  0.00    -0.121 NA 
ENDBRANCH  15  17
ENDBRANCH  14  15
ENDBRANCH  10  14
ENDBRANCH   6   7
ENDBRANCH   5   6
ENDBRANCH   4   5
ENDBRANCH   3   4
ENDBRANCH   2   3
TORSDOF 8
ENDMDL
MODEL      295
REMARK 921   NORMALIZED FREE ENERGY PREDICTED BY IDOCK:   14.44 KCAL/MOL
REMARK 922        TOTAL FREE ENERGY PREDICTED BY IDOCK:   20.33 KCAL/MOL
REMARK 923 INTER-LIGAND FREE ENERGY PREDICTED BY IDOCK:   12.67 KCAL/MOL
REMARK 924 INTRA-LIGAND FREE ENERGY PREDICTED BY IDOCK:    7.65 KCAL/MOL
REMARK 927      BINDING AFFINITY PREDICTED BY RF-SCORE:    0.00 PKD
ROOT
HETATM    1  C   UNL     1      -5.128   9.830  66.996  1.00  0.00    -0.041 C  
HETATM    2  O   UNL     1      -6.158   8.939  66.585  1.00  0.00    -0.058 OA 
ENDROOT
BRANCH   2   3
HETATM    3  C   UNL     1      -6.790   9.369  65.381  1.00  0.00    -0.079 C  
BRANCH   3   4
HETATM    4  C   UNL     1      -8.206   9.836  65.696  1.00  0.00    -0.130 C  
BRANCH   4   5
HETATM    5  C   UNL     1      -9.248   8.776  65.339  1.00  0.00    -0.088 C  
BRANCH   5   6
HETATM    6  O   UNL     1      -8.636   7.479  65.417  1.00  0.00    -0.130 OA 
BRANCH   6   7
HETATM    7  C   UNL     1      -9.511   6.418  65.373  1.00  0.00     0.571 A  
HETATM    8  C   UNL     1      -9.884   5.829  66.597  1.00  0.00    -0.194 A  
HETATM    9  C   UNL     1      -9.249   6.287  67.880  1.00  0.00    -0.116 C  
HETATM   10  C   UNL     1     -10.888   4.846  66.570  1.00  0.00     0.130 A  
HETATM   11  C   UNL     1     -10.020   5.915  64.178  1.00  0.00     2.591 A  
HETATM   12  N   UNL     1     -11.422   4.395  65.399  1.00  0.00     0.428 NA 
HETATM   13  C   UNL     1     -10.954   4.905  64.242  1.00  0.00     1.176 A  
BRANCH  10  14
HETATM   14  C   UNL     1     -11.544   4.289  67.819  1.00  0.00     7.231 C  
BRANCH  14  15
HETATM   15  S   UNL     1     -10.399   3.269  68.778  1.00  0.00     2.167 S  
HETATM   16  O   UNL     1      -9.699   2.233  67.948  1.00  0.00    -0.104 OA 
BRANCH  15  17
HETATM   17  C   UNL     1      -9.192   4.447  69.189  1.00  0.00    -0.140 A  
HETATM   18  N   UNL     1      -9.219   5.253  70.229  1.00  0.00    -0.139 NA 
HETATM   19  C   UNL     1      -8.013   5.917  70.203  1.00  0.00    -0.101 A  
HETATM   20  H   UNL     1      -9.973   5.363  70.908  1.00  0.00     0.000 HD 
HETATM   21  C   UNL     1      -7.506   6.891  71.077  1.00  0.00    -0.083 A  
HETATM   22  C   UNL     1      -6.206   7.371  70.870  1.00  0.00    -0.035 A  
HETATM   23  C   UNL     1      -5.425   6.894  69.814  1.00  0.00    -0.015 A  
HETATM   24  C   UNL     1      -5.924   5.942  68.915  1.00  0.00    -0.020 A  
HETATM   25  C   UNL     1      -7.228   5.488  69.138  1.00  0.00    -0.069 A  
HETATM   26  N   UNL     1      -8.029   4.594  68.474  1.00  0.00    -0.080 NA 
ENDBRANCH  15  17
ENDBRANCH  14  15
ENDBRANCH  10  14
ENDBRANCH   6   7
ENDBRANCH   5   6
ENDBRANCH   4   5
ENDBRANCH   3   4
ENDBRANCH   2   3
TORSDOF 8
ENDMDL
MODEL      296
REMARK 921   NORMALIZED FREE ENERGY PREDICTED BY IDOCK:   21.75 KCAL/MOL
REMARK 922        TOTAL FREE ENERGY PREDICTED BY IDOCK:   31.06 KCAL/MOL
REMARK 923 INTER-LIGAND FREE ENERGY PREDICTED BY IDOCK:   29.71 KCAL/MOL
REMARK 924 INTRA-LIGAND FREE ENERGY PREDICTED BY IDOCK:    1.34 KCAL/MOL
REMARK 927      BINDING AFFINITY PREDICTED BY RF-SCORE:    0.00 PKD
ROOT
HETATM    1  C   UNL     1     -13.215   7.129  66.640  1.00  0.00    14.692 C  
HETATM    2  O   UNL     1     -12.612   8.411  66.759  1.00  0.00     7.929 OA 
ENDROOT
BRANCH   2   3
HETATM    3  C   UNL     1     -12.744   8.948  68.074  1.00  0.00     8.955 C  
BRANCH   3   4
HETATM    4  C   UNL     1     -11.508   9.775  68.406  1.00  0.00     0.168 C  
BRANCH   4   5
HETATM    5  C   UNL     1     -10.843   9.308  69.700  1.00  0.00    -0.212 C  
BRANCH   5   6
HETATM    6  O   UNL     1     -10.084   8.119  69.430  1.00  0.00    -0.185 OA 
BRANCH   6   7
HETATM    7  C   UNL     1      -8.932   8.316  68.703  1.00  0.00    -0.137 A  
HETATM    8  C   UNL     1      -7.921   7.341  68.807  1.00  0.00    -0.123 A  
HETATM    9  C   UNL     1      -8.070   6.196  69.769  1.00  0.00    -0.119 C  
HETATM   10  C   UNL     1      -6.808   7.461  67.955  1.00  0.00    -0.070 A  
HETATM   11  C   UNL     1      -8.739   9.432  67.892  1.00  0.00    -0.120 A  
HETATM   12  N   UNL     1      -6.651   8.529  67.123  1.00  0.00    -0.058 NA 
HETATM   13  C   UNL     1      -7.588   9.498  67.139  1.00  0.00    -0.091 A  
BRANCH  10  14
HETATM   14  C   UNL     1      -5.759   6.377  67.797  1.00  0.00    -0.009 C  
BRANCH  14  15
HETATM   15  S   UNL     1      -6.006   5.424  66.280  1.00  0.00    -0.023 S  
HETATM   16  O   UNL     1      -7.153   4.460  66.372  1.00  0.00    -0.067 OA 
BRANCH  15  17
HETATM   17  C   UNL     1      -6.521   6.678  65.196  1.00  0.00    -0.042 A  
HETATM   18  N   UNL     1      -7.766   7.023  64.948  1.00  0.00    -0.107 NA 
HETATM   19  C   UNL     1      -7.678   8.124  64.125  1.00  0.00    -0.136 A  
HETATM   20  H   UNL     1      -8.615   6.572  65.290  1.00  0.00     0.000 HD 
HETATM   21  C   UNL     1      -8.697   8.902  63.555  1.00  0.00    -0.037 A  
HETATM   22  C   UNL     1      -8.343  10.027  62.796  1.00  0.00    -0.167 A  
HETATM   23  C   UNL     1      -7.002  10.370  62.607  1.00  0.00    -0.130 A  
HETATM   24  C   UNL     1      -5.970   9.590  63.145  1.00  0.00    -0.092 A  
HETATM   25  C   UNL     1      -6.350   8.468  63.888  1.00  0.00    -0.072 A  
HETATM   26  N   UNL     1      -5.635   7.492  64.534  1.00  0.00    -0.033 NA 
ENDBRANCH  15  17
ENDBRANCH  14  15
ENDBRANCH  10  14
ENDBRANCH   6   7
ENDBRANCH   5   6
ENDBRANCH   4   5
ENDBRANCH   3   4
ENDBRANCH   2   3
TORSDOF 8
ENDMDL
MODEL      297
REMARK 921   NORMALIZED FREE ENERGY PREDICTED BY IDOCK:   32.00 KCAL/MOL
REMARK 922        TOTAL FREE ENERGY PREDICTED BY IDOCK:   46.10 KCAL/MOL
REMARK 923 INTER-LIGAND FREE ENERGY PREDICTED BY IDOCK:   24.72 KCAL/MOL
REMARK 924 INTRA-LIGAND FREE ENERGY PREDICTED BY IDOCK:   21.38 KCAL/MOL
REMARK 927      BINDING AFFINITY PREDICTED BY RF-SCORE:    0.00 PKD
ROOT
HETATM    1  C   UNL     1      -9.565  14.101  71.016  1.00  0.00     4.396 C  
HETATM    2  O   UNL     1      -9.126  14.561  69.744  1.00  0.00     0.324 OA 
ENDROOT
BRANCH   2   3
HETATM    3  C   UNL     1      -8.473  13.536  68.999  1.00  0.00     0.338 C  
BRANCH   3   4
HETATM    4  C   UNL     1      -7.893  14.134  67.722  1.00  0.00    -0.177 C  
BRANCH   4   5
HETATM    5  C   UNL     1      -8.173  15.633  67.618  1.00  0.00    -0.150 C  
BRANCH   5   6
HETATM    6  O   UNL     1      -9.234  15.972  68.525  1.00  0.00    -0.193 OA 
BRANCH   6   7
HETATM    7  C   UNL     1     -10.432  16.286  67.927  1.00  0.00    -0.295 A  
HETATM    8  C   UNL     1     -10.927  17.593  68.106  1.00  0.00    -0.089 A  
HETATM    9  C   UNL     1     -10.212  18.554  69.013  1.00  0.00    -0.183 C  
HETATM   10  C   UNL     1     -12.072  17.964  67.378  1.00  0.00     3.113 A  
HETATM   11  C   UNL     1     -11.159  15.367  67.174  1.00  0.00    -0.291 A  
HETATM   12  N   UNL     1     -12.749  17.072  66.599  1.00  0.00     5.137 NA 
HETATM   13  C   UNL     1     -12.305  15.800  66.546  1.00  0.00     1.620 A  
BRANCH  10  14
HETATM   14  C   UNL     1     -12.583  19.389  67.298  1.00  0.00     4.667 C  
BRANCH  14  15
HETATM   15  S   UNL     1     -11.252  20.558  66.933  1.00  0.00     2.170 S  
HETATM   16  O   UNL     1     -10.836  21.366  68.127  1.00  0.00     1.650 OA 
BRANCH  15  17
HETATM   17  C   UNL     1      -9.944  19.461  66.618  1.00  0.00    -0.390 A  
HETATM   18  N   UNL     1     -10.042  18.155  66.489  1.00  0.00    -0.366 NA 
HETATM   19  C   UNL     1      -8.779  17.731  66.139  1.00  0.00    -0.092 A  
HETATM   20  H   UNL     1     -10.875  17.580  66.619  1.00  0.00     0.000 HD 
HETATM   21  C   UNL     1      -8.309  16.435  65.873  1.00  0.00     0.090 A  
HETATM   22  C   UNL     1      -6.978  16.271  65.468  1.00  0.00     3.570 A  
HETATM   23  C   UNL     1      -6.129  17.373  65.333  1.00  0.00     0.699 A  
HETATM   24  C   UNL     1      -6.571  18.670  65.620  1.00  0.00    -0.309 A  
HETATM   25  C   UNL     1      -7.901  18.805  66.033  1.00  0.00    -0.171 A  
HETATM   26  N   UNL     1      -8.656  19.888  66.403  1.00  0.00    -0.346 NA 
ENDBRANCH  15  17
ENDBRANCH  14  15
ENDBRANCH  10  14
ENDBRANCH   6   7
ENDBRANCH   5   6
ENDBRANCH   4   5
ENDBRANCH   3   4
ENDBRANCH   2   3
TORSDOF 8
ENDMDL
