MODEL        1
REMARK 921   NORMALIZED FREE ENERGY PREDICTED BY IDOCK:   -4.08 KCAL/MOL
REMARK 922        TOTAL FREE ENERGY PREDICTED BY IDOCK:   -4.86 KCAL/MOL
REMARK 923 INTER-LIGAND FREE ENERGY PREDICTED BY IDOCK:   -4.80 KCAL/MOL
REMARK 924 INTRA-LIGAND FREE ENERGY PREDICTED BY IDOCK:   -0.06 KCAL/MOL
REMARK 927      BINDING AFFINITY PREDICTED BY RF-SCORE:    0.00 PKD
ROOT
ATOM      1  CE  MET A   1     -10.221  11.853  63.619  1.00  0.00    -0.438 C  
ATOM      2  SD  MET A   1     -12.002  12.134  63.464  1.00  0.00    -0.512 SA 
ENDROOT
BRANCH   2   3
ATOM      3  CG  MET A   1     -12.373  12.573  65.193  1.00  0.00    -0.429 C  
BRANCH   3   4
ATOM      4  CB  MET A   1     -12.622  14.077  65.300  1.00  0.00    -0.495 C  
BRANCH   4   5
ATOM      5  CA  MET A   1     -11.456  14.919  64.765  1.00  0.00    -0.410 C  
ATOM      6  C   MET A   1     -10.669  15.567  65.923  1.00  0.00    -0.339 C  
ATOM      7  N   MET A   1     -11.896  16.010  63.846  1.00  0.00    -1.338 NA 
ATOM      8  O   MET A   1     -10.211  16.797  65.566  1.00  0.00    -0.567 OA 
ATOM      9  OXT MET A   1     -10.443  15.059  67.009  1.00  0.00    -0.269 OA 
ATOM     10  H1  MET A   1     -11.121  16.570  63.490  1.00  0.00     0.000 HD 
ATOM     11  H2  MET A   1     -12.597  16.602  64.293  1.00  0.00     0.000 HD 
ENDBRANCH   4   5
ENDBRANCH   3   4
ENDBRANCH   2   3
TORSDOF 3
ENDMDL
MODEL        2
REMARK 921   NORMALIZED FREE ENERGY PREDICTED BY IDOCK:   -4.06 KCAL/MOL
REMARK 922        TOTAL FREE ENERGY PREDICTED BY IDOCK:   -4.84 KCAL/MOL
REMARK 923 INTER-LIGAND FREE ENERGY PREDICTED BY IDOCK:   -4.77 KCAL/MOL
REMARK 924 INTRA-LIGAND FREE ENERGY PREDICTED BY IDOCK:   -0.07 KCAL/MOL
REMARK 927      BINDING AFFINITY PREDICTED BY RF-SCORE:    0.00 PKD
ROOT
ATOM      1  CE  MET A   1      -8.046  16.724  66.237  1.00  0.00    -0.330 C  
ATOM      2  SD  MET A   1      -9.250  15.619  67.014  1.00  0.00    -0.234 SA 
ENDROOT
BRANCH   2   3
ATOM      3  CG  MET A   1     -10.605  15.779  65.807  1.00  0.00    -0.355 C  
BRANCH   3   4
ATOM      4  CB  MET A   1     -10.676  14.521  64.942  1.00  0.00    -0.448 C  
BRANCH   4   5
ATOM      5  CA  MET A   1     -12.111  14.126  64.571  1.00  0.00    -0.468 C  
ATOM      6  C   MET A   1     -12.472  12.747  65.163  1.00  0.00    -0.501 C  
ATOM      7  N   MET A   1     -12.336  14.062  63.096  1.00  0.00    -1.094 NA 
ATOM      8  O   MET A   1     -13.292  12.061  64.322  1.00  0.00    -0.709 OA 
ATOM      9  OXT MET A   1     -12.115  12.317  66.247  1.00  0.00    -0.626 OA 
ATOM     10  H1  MET A   1     -13.291  13.800  62.849  1.00  0.00     0.000 HD 
ATOM     11  H2  MET A   1     -11.661  13.440  62.651  1.00  0.00     0.000 HD 
ENDBRANCH   4   5
ENDBRANCH   3   4
ENDBRANCH   2   3
TORSDOF 3
ENDMDL
MODEL        3
REMARK 921   NORMALIZED FREE ENERGY PREDICTED BY IDOCK:   -4.00 KCAL/MOL
REMARK 922        TOTAL FREE ENERGY PREDICTED BY IDOCK:   -4.76 KCAL/MOL
REMARK 923 INTER-LIGAND FREE ENERGY PREDICTED BY IDOCK:   -4.68 KCAL/MOL
REMARK 924 INTRA-LIGAND FREE ENERGY PREDICTED BY IDOCK:   -0.09 KCAL/MOL
REMARK 927      BINDING AFFINITY PREDICTED BY RF-SCORE:    0.00 PKD
ROOT
ATOM      1  CE  MET A   1      -9.810  18.666  68.445  1.00  0.00    -0.384 C  
ATOM      2  SD  MET A   1      -9.732  17.961  66.781  1.00  0.00    -0.329 SA 
ENDROOT
BRANCH   2   3
ATOM      3  CG  MET A   1     -10.398  16.304  67.141  1.00  0.00    -0.285 C  
BRANCH   3   4
ATOM      4  CB  MET A   1     -10.322  15.435  65.886  1.00  0.00    -0.359 C  
BRANCH   4   5
ATOM      5  CA  MET A   1     -11.637  15.403  65.096  1.00  0.00    -0.127 C  
ATOM      6  C   MET A   1     -11.988  13.962  64.672  1.00  0.00    -0.419 C  
ATOM      7  N   MET A   1     -11.599  16.244  63.863  1.00  0.00    -1.573 NA 
ATOM      8  O   MET A   1     -12.596  13.951  63.455  1.00  0.00    -0.853 OA 
ATOM      9  OXT MET A   1     -11.791  12.954  65.330  1.00  0.00    -0.347 OA 
ATOM     10  H1  MET A   1     -12.473  16.224  63.338  1.00  0.00     0.000 HD 
ATOM     11  H2  MET A   1     -10.812  15.984  63.269  1.00  0.00     0.000 HD 
ENDBRANCH   4   5
ENDBRANCH   3   4
ENDBRANCH   2   3
TORSDOF 3
ENDMDL
MODEL        4
REMARK 921   NORMALIZED FREE ENERGY PREDICTED BY IDOCK:   -3.93 KCAL/MOL
REMARK 922        TOTAL FREE ENERGY PREDICTED BY IDOCK:   -4.68 KCAL/MOL
REMARK 923 INTER-LIGAND FREE ENERGY PREDICTED BY IDOCK:   -4.56 KCAL/MOL
REMARK 924 INTRA-LIGAND FREE ENERGY PREDICTED BY IDOCK:   -0.12 KCAL/MOL
REMARK 927      BINDING AFFINITY PREDICTED BY RF-SCORE:    0.00 PKD
ROOT
ATOM      1  CE  MET A   1      -9.891  13.614  68.094  1.00  0.00    -0.236 C  
ATOM      2  SD  MET A   1     -10.512  11.961  67.703  1.00  0.00    -0.214 SA 
ENDROOT
BRANCH   2   3
ATOM      3  CG  MET A   1     -11.214  12.301  66.057  1.00  0.00    -0.332 C  
BRANCH   3   4
ATOM      4  CB  MET A   1     -11.743  13.734  66.008  1.00  0.00    -0.383 C  
BRANCH   4   5
ATOM      5  CA  MET A   1     -11.325  14.486  64.738  1.00  0.00    -0.396 C  
ATOM      6  C   MET A   1     -11.010  15.964  65.053  1.00  0.00    -0.412 C  
ATOM      7  N   MET A   1     -12.371  14.461  63.673  1.00  0.00    -1.106 NA 
ATOM      8  O   MET A   1     -11.383  16.768  64.021  1.00  0.00    -1.153 OA 
ATOM      9  OXT MET A   1     -10.471  16.381  66.065  1.00  0.00    -0.329 OA 
ATOM     10  H1  MET A   1     -12.094  14.961  62.828  1.00  0.00     0.000 HD 
ATOM     11  H2  MET A   1     -13.261  14.812  64.028  1.00  0.00     0.000 HD 
ENDBRANCH   4   5
ENDBRANCH   3   4
ENDBRANCH   2   3
TORSDOF 3
ENDMDL
MODEL        5
REMARK 921   NORMALIZED FREE ENERGY PREDICTED BY IDOCK:   -3.91 KCAL/MOL
REMARK 922        TOTAL FREE ENERGY PREDICTED BY IDOCK:   -4.66 KCAL/MOL
REMARK 923 INTER-LIGAND FREE ENERGY PREDICTED BY IDOCK:   -4.51 KCAL/MOL
REMARK 924 INTRA-LIGAND FREE ENERGY PREDICTED BY IDOCK:   -0.15 KCAL/MOL
REMARK 927      BINDING AFFINITY PREDICTED BY RF-SCORE:    0.00 PKD
ROOT
ATOM      1  CE  MET A   1      -9.790  11.023  64.860  1.00  0.00    -0.274 C  
ATOM      2  SD  MET A   1      -9.933  12.498  65.898  1.00  0.00    -0.246 SA 
ENDROOT
BRANCH   2   3
ATOM      3  CG  MET A   1     -11.722  12.437  66.237  1.00  0.00    -0.395 C  
BRANCH   3   4
ATOM      4  CB  MET A   1     -12.367  13.767  65.846  1.00  0.00    -0.516 C  
BRANCH   4   5
ATOM      5  CA  MET A   1     -11.603  14.502  64.738  1.00  0.00    -0.413 C  
ATOM      6  C   MET A   1     -11.222  15.929  65.187  1.00  0.00    -0.224 C  
ATOM      7  N   MET A   1     -12.380  14.616  63.468  1.00  0.00    -1.056 NA 
ATOM      8  O   MET A   1     -11.272  16.794  64.138  1.00  0.00    -1.155 OA 
ATOM      9  OXT MET A   1     -10.886  16.260  66.312  1.00  0.00    -0.231 OA 
ATOM     10  H1  MET A   1     -11.872  15.105  62.731  1.00  0.00     0.000 HD 
ATOM     11  H2  MET A   1     -13.287  15.051  63.635  1.00  0.00     0.000 HD 
ENDBRANCH   4   5
ENDBRANCH   3   4
ENDBRANCH   2   3
TORSDOF 3
ENDMDL
MODEL        6
REMARK 921   NORMALIZED FREE ENERGY PREDICTED BY IDOCK:   -3.85 KCAL/MOL
REMARK 922        TOTAL FREE ENERGY PREDICTED BY IDOCK:   -4.59 KCAL/MOL
REMARK 923 INTER-LIGAND FREE ENERGY PREDICTED BY IDOCK:   -4.47 KCAL/MOL
REMARK 924 INTRA-LIGAND FREE ENERGY PREDICTED BY IDOCK:   -0.12 KCAL/MOL
REMARK 927      BINDING AFFINITY PREDICTED BY RF-SCORE:    0.00 PKD
ROOT
ATOM      1  CE  MET A   1     -11.314  15.284  69.334  1.00  0.00    -0.294 C  
ATOM      2  SD  MET A   1     -11.582  14.688  67.647  1.00  0.00    -0.362 SA 
ENDROOT
BRANCH   2   3
ATOM      3  CG  MET A   1     -10.176  15.506  66.827  1.00  0.00    -0.280 C  
BRANCH   3   4
ATOM      4  CB  MET A   1     -10.194  15.186  65.333  1.00  0.00    -0.402 C  
BRANCH   4   5
ATOM      5  CA  MET A   1     -11.610  14.976  64.780  1.00  0.00    -0.395 C  
ATOM      6  C   MET A   1     -11.724  13.613  64.065  1.00  0.00    -0.364 C  
ATOM      7  N   MET A   1     -12.023  16.035  63.812  1.00  0.00    -1.339 NA 
ATOM      8  O   MET A   1     -12.564  13.697  62.998  1.00  0.00    -0.729 OA 
ATOM      9  OXT MET A   1     -11.177  12.578  64.405  1.00  0.00    -0.306 OA 
ATOM     10  H1  MET A   1     -12.964  15.896  63.444  1.00  0.00     0.000 HD 
ATOM     11  H2  MET A   1     -11.345  16.119  63.054  1.00  0.00     0.000 HD 
ENDBRANCH   4   5
ENDBRANCH   3   4
ENDBRANCH   2   3
TORSDOF 3
ENDMDL
MODEL        7
REMARK 921   NORMALIZED FREE ENERGY PREDICTED BY IDOCK:   -3.77 KCAL/MOL
REMARK 922        TOTAL FREE ENERGY PREDICTED BY IDOCK:   -4.49 KCAL/MOL
REMARK 923 INTER-LIGAND FREE ENERGY PREDICTED BY IDOCK:   -4.37 KCAL/MOL
REMARK 924 INTRA-LIGAND FREE ENERGY PREDICTED BY IDOCK:   -0.12 KCAL/MOL
REMARK 927      BINDING AFFINITY PREDICTED BY RF-SCORE:    0.00 PKD
ROOT
ATOM      1  CE  MET A   1     -11.036  11.003  66.786  1.00  0.00    -0.217 C  
ATOM      2  SD  MET A   1     -10.605  12.073  65.392  1.00  0.00    -0.289 SA 
ENDROOT
BRANCH   2   3
ATOM      3  CG  MET A   1     -12.277  12.637  64.936  1.00  0.00    -0.471 C  
BRANCH   3   4
ATOM      4  CB  MET A   1     -12.463  14.093  65.362  1.00  0.00    -0.488 C  
BRANCH   4   5
ATOM      5  CA  MET A   1     -11.429  15.039  64.738  1.00  0.00    -0.403 C  
ATOM      6  C   MET A   1     -10.765  15.918  65.819  1.00  0.00    -0.316 C  
ATOM      7  N   MET A   1     -12.015  15.948  63.709  1.00  0.00    -1.266 NA 
ATOM      8  O   MET A   1     -10.492  17.158  65.332  1.00  0.00    -0.633 OA 
ATOM      9  OXT MET A   1     -10.481  15.567  66.953  1.00  0.00    -0.289 OA 
ATOM     10  H1  MET A   1     -11.328  16.577  63.293  1.00  0.00     0.000 HD 
ATOM     11  H2  MET A   1     -12.802  16.472  64.091  1.00  0.00     0.000 HD 
ENDBRANCH   4   5
ENDBRANCH   3   4
ENDBRANCH   2   3
TORSDOF 3
ENDMDL
MODEL        8
REMARK 921   NORMALIZED FREE ENERGY PREDICTED BY IDOCK:   -3.62 KCAL/MOL
REMARK 922        TOTAL FREE ENERGY PREDICTED BY IDOCK:   -4.31 KCAL/MOL
REMARK 923 INTER-LIGAND FREE ENERGY PREDICTED BY IDOCK:   -4.25 KCAL/MOL
REMARK 924 INTRA-LIGAND FREE ENERGY PREDICTED BY IDOCK:   -0.07 KCAL/MOL
REMARK 927      BINDING AFFINITY PREDICTED BY RF-SCORE:    0.00 PKD
ROOT
ATOM      1  CE  MET A   1      -9.041  10.160  64.860  1.00  0.00    -0.215 C  
ATOM      2  SD  MET A   1      -9.289  10.631  63.131  1.00  0.00    -0.347 SA 
ENDROOT
BRANCH   2   3
ATOM      3  CG  MET A   1     -10.730  11.727  63.338  1.00  0.00    -0.402 C  
BRANCH   3   4
ATOM      4  CB  MET A   1     -10.350  12.917  64.218  1.00  0.00    -0.396 C  
BRANCH   4   5
ATOM      5  CA  MET A   1     -11.476  13.951  64.351  1.00  0.00    -0.361 C  
ATOM      6  C   MET A   1     -12.275  13.727  65.652  1.00  0.00    -0.454 C  
ATOM      7  N   MET A   1     -12.440  13.914  63.212  1.00  0.00    -1.112 NA 
ATOM      8  O   MET A   1     -13.591  14.022  65.467  1.00  0.00    -0.596 OA 
ATOM      9  OXT MET A   1     -11.815  13.370  66.723  1.00  0.00    -0.365 OA 
ATOM     10  H1  MET A   1     -13.189  14.602  63.300  1.00  0.00     0.000 HD 
ATOM     11  H2  MET A   1     -12.821  12.976  63.087  1.00  0.00     0.000 HD 
ENDBRANCH   4   5
ENDBRANCH   3   4
ENDBRANCH   2   3
TORSDOF 3
ENDMDL
MODEL        9
REMARK 921   NORMALIZED FREE ENERGY PREDICTED BY IDOCK:   -3.60 KCAL/MOL
REMARK 922        TOTAL FREE ENERGY PREDICTED BY IDOCK:   -4.30 KCAL/MOL
REMARK 923 INTER-LIGAND FREE ENERGY PREDICTED BY IDOCK:   -4.12 KCAL/MOL
REMARK 924 INTRA-LIGAND FREE ENERGY PREDICTED BY IDOCK:   -0.17 KCAL/MOL
REMARK 927      BINDING AFFINITY PREDICTED BY RF-SCORE:    0.00 PKD
ROOT
ATOM      1  CE  MET A   1      -8.140  14.430  67.285  1.00  0.00    -0.187 C  
ATOM      2  SD  MET A   1      -9.661  13.511  67.623  1.00  0.00    -0.230 SA 
ENDROOT
BRANCH   2   3
ATOM      3  CG  MET A   1     -10.367  13.497  65.944  1.00  0.00    -0.299 C  
BRANCH   3   4
ATOM      4  CB  MET A   1     -11.335  14.668  65.782  1.00  0.00    -0.340 C  
BRANCH   4   5
ATOM      5  CA  MET A   1     -10.741  15.833  64.981  1.00  0.00    -0.421 C  
ATOM      6  C   MET A   1     -10.564  17.080  65.874  1.00  0.00    -0.216 C  
ATOM      7  N   MET A   1     -11.581  16.227  63.811  1.00  0.00    -1.482 NA 
ATOM      8  O   MET A   1     -10.791  18.218  65.164  1.00  0.00    -0.656 OA 
ATOM      9  OXT MET A   1     -10.234  17.079  67.048  1.00  0.00    -0.290 OA 
ATOM     10  H1  MET A   1     -11.186  17.002  63.278  1.00  0.00     0.000 HD 
ATOM     11  H2  MET A   1     -12.536  16.435  64.102  1.00  0.00     0.000 HD 
ENDBRANCH   4   5
ENDBRANCH   3   4
ENDBRANCH   2   3
TORSDOF 3
ENDMDL
MODEL       10
REMARK 921   NORMALIZED FREE ENERGY PREDICTED BY IDOCK:   -3.60 KCAL/MOL
REMARK 922        TOTAL FREE ENERGY PREDICTED BY IDOCK:   -4.30 KCAL/MOL
REMARK 923 INTER-LIGAND FREE ENERGY PREDICTED BY IDOCK:   -4.21 KCAL/MOL
REMARK 924 INTRA-LIGAND FREE ENERGY PREDICTED BY IDOCK:   -0.09 KCAL/MOL
REMARK 927      BINDING AFFINITY PREDICTED BY RF-SCORE:    0.00 PKD
ROOT
ATOM      1  CE  MET A   1     -11.976  13.270  69.694  1.00  0.00    -0.314 C  
ATOM      2  SD  MET A   1     -11.775  12.610  68.022  1.00  0.00    -0.337 SA 
ENDROOT
BRANCH   2   3
ATOM      3  CG  MET A   1     -11.718  14.180  67.099  1.00  0.00    -0.403 C  
BRANCH   3   4
ATOM      4  CB  MET A   1     -12.463  14.026  65.774  1.00  0.00    -0.523 C  
BRANCH   4   5
ATOM      5  CA  MET A   1     -11.528  13.992  64.558  1.00  0.00    -0.370 C  
ATOM      6  C   MET A   1     -11.827  12.766  63.670  1.00  0.00    -0.532 C  
ATOM      7  N   MET A   1     -10.083  13.941  64.934  1.00  0.00    -0.606 NA 
ATOM      8  O   MET A   1     -10.682  12.280  63.116  1.00  0.00    -0.371 OA 
ATOM      9  OXT MET A   1     -12.929  12.293  63.448  1.00  0.00    -0.753 OA 
ATOM     10  H1  MET A   1      -9.461  13.918  64.126  1.00  0.00     0.000 HD 
ATOM     11  H2  MET A   1      -9.897  13.157  65.559  1.00  0.00     0.000 HD 
ENDBRANCH   4   5
ENDBRANCH   3   4
ENDBRANCH   2   3
TORSDOF 3
ENDMDL
MODEL       11
REMARK 921   NORMALIZED FREE ENERGY PREDICTED BY IDOCK:   -3.60 KCAL/MOL
REMARK 922        TOTAL FREE ENERGY PREDICTED BY IDOCK:   -4.29 KCAL/MOL
REMARK 923 INTER-LIGAND FREE ENERGY PREDICTED BY IDOCK:   -4.18 KCAL/MOL
REMARK 924 INTRA-LIGAND FREE ENERGY PREDICTED BY IDOCK:   -0.12 KCAL/MOL
REMARK 927      BINDING AFFINITY PREDICTED BY RF-SCORE:    0.00 PKD
ROOT
ATOM      1  CE  MET A   1      -9.204   9.677  64.308  1.00  0.00    -0.178 C  
ATOM      2  SD  MET A   1      -9.472  10.790  62.907  1.00  0.00    -0.358 SA 
ENDROOT
BRANCH   2   3
ATOM      3  CG  MET A   1     -10.203  12.201  63.798  1.00  0.00    -0.424 C  
BRANCH   3   4
ATOM      4  CB  MET A   1     -11.727  12.141  63.696  1.00  0.00    -0.588 C  
BRANCH   4   5
ATOM      5  CA  MET A   1     -12.434  12.672  64.949  1.00  0.00    -0.494 C  
ATOM      6  C   MET A   1     -12.379  14.214  64.999  1.00  0.00    -0.440 C  
ATOM      7  N   MET A   1     -11.843  12.154  66.218  1.00  0.00    -0.594 NA 
ATOM      8  O   MET A   1     -12.266  14.651  66.283  1.00  0.00    -0.293 OA 
ATOM      9  OXT MET A   1     -12.457  14.965  64.042  1.00  0.00    -0.807 OA 
ATOM     10  H1  MET A   1     -12.314  12.507  67.052  1.00  0.00     0.000 HD 
ATOM     11  H2  MET A   1     -10.842  12.344  66.258  1.00  0.00     0.000 HD 
ENDBRANCH   4   5
ENDBRANCH   3   4
ENDBRANCH   2   3
TORSDOF 3
ENDMDL
MODEL       12
REMARK 921   NORMALIZED FREE ENERGY PREDICTED BY IDOCK:   -3.57 KCAL/MOL
REMARK 922        TOTAL FREE ENERGY PREDICTED BY IDOCK:   -4.26 KCAL/MOL
REMARK 923 INTER-LIGAND FREE ENERGY PREDICTED BY IDOCK:   -4.12 KCAL/MOL
REMARK 924 INTRA-LIGAND FREE ENERGY PREDICTED BY IDOCK:   -0.14 KCAL/MOL
REMARK 927      BINDING AFFINITY PREDICTED BY RF-SCORE:    0.00 PKD
ROOT
ATOM      1  CE  MET A   1      -8.869   9.593  66.786  1.00  0.00    -0.135 C  
ATOM      2  SD  MET A   1      -9.949  10.927  66.216  1.00  0.00    -0.235 SA 
ENDROOT
BRANCH   2   3
ATOM      3  CG  MET A   1     -10.037  10.488  64.449  1.00  0.00    -0.325 C  
BRANCH   3   4
ATOM      4  CB  MET A   1     -10.114  11.761  63.606  1.00  0.00    -0.445 C  
BRANCH   4   5
ATOM      5  CA  MET A   1     -10.850  12.906  64.312  1.00  0.00    -0.397 C  
ATOM      6  C   MET A   1     -12.262  13.100  63.719  1.00  0.00    -0.456 C  
ATOM      7  N   MET A   1     -10.132  14.211  64.214  1.00  0.00    -0.561 NA 
ATOM      8  O   MET A   1     -12.608  14.416  63.717  1.00  0.00    -0.829 OA 
ATOM      9  OXT MET A   1     -13.003  12.213  63.329  1.00  0.00    -0.735 OA 
ATOM     10  H1  MET A   1     -10.622  14.973  64.684  1.00  0.00     0.000 HD 
ATOM     11  H2  MET A   1      -9.939  14.448  63.241  1.00  0.00     0.000 HD 
ENDBRANCH   4   5
ENDBRANCH   3   4
ENDBRANCH   2   3
TORSDOF 3
ENDMDL
MODEL       13
REMARK 921   NORMALIZED FREE ENERGY PREDICTED BY IDOCK:   -3.56 KCAL/MOL
REMARK 922        TOTAL FREE ENERGY PREDICTED BY IDOCK:   -4.24 KCAL/MOL
REMARK 923 INTER-LIGAND FREE ENERGY PREDICTED BY IDOCK:   -4.18 KCAL/MOL
REMARK 924 INTRA-LIGAND FREE ENERGY PREDICTED BY IDOCK:   -0.06 KCAL/MOL
REMARK 927      BINDING AFFINITY PREDICTED BY RF-SCORE:    0.00 PKD
ROOT
ATOM      1  CE  MET A   1     -10.661  12.305  63.482  1.00  0.00    -0.451 C  
ATOM      2  SD  MET A   1     -12.388  12.228  64.017  1.00  0.00    -0.455 SA 
ENDROOT
BRANCH   2   3
ATOM      3  CG  MET A   1     -12.340  13.499  65.322  1.00  0.00    -0.467 C  
BRANCH   3   4
ATOM      4  CB  MET A   1     -10.929  14.076  65.427  1.00  0.00    -0.321 C  
BRANCH   4   5
ATOM      5  CA  MET A   1     -10.887  15.439  66.130  1.00  0.00    -0.313 C  
ATOM      6  C   MET A   1     -10.957  16.588  65.103  1.00  0.00    -0.191 C  
ATOM      7  N   MET A   1      -9.657  15.636  66.952  1.00  0.00    -0.225 NA 
ATOM      8  O   MET A   1     -10.205  17.647  65.512  1.00  0.00    -0.600 OA 
ATOM      9  OXT MET A   1     -11.612  16.592  64.075  1.00  0.00    -1.154 OA 
ATOM     10  H1  MET A   1      -9.629  16.542  67.420  1.00  0.00     0.000 HD 
ATOM     11  H2  MET A   1      -8.817  15.490  66.392  1.00  0.00     0.000 HD 
ENDBRANCH   4   5
ENDBRANCH   3   4
ENDBRANCH   2   3
TORSDOF 3
ENDMDL
MODEL       14
REMARK 921   NORMALIZED FREE ENERGY PREDICTED BY IDOCK:   -3.54 KCAL/MOL
REMARK 922        TOTAL FREE ENERGY PREDICTED BY IDOCK:   -4.22 KCAL/MOL
REMARK 923 INTER-LIGAND FREE ENERGY PREDICTED BY IDOCK:   -4.07 KCAL/MOL
REMARK 924 INTRA-LIGAND FREE ENERGY PREDICTED BY IDOCK:   -0.15 KCAL/MOL
REMARK 927      BINDING AFFINITY PREDICTED BY RF-SCORE:    0.00 PKD
ROOT
ATOM      1  CE  MET A   1     -11.240  15.291  70.134  1.00  0.00    -0.291 C  
ATOM      2  SD  MET A   1     -11.366  15.957  68.457  1.00  0.00    -0.366 SA 
ENDROOT
BRANCH   2   3
ATOM      3  CG  MET A   1     -11.966  14.465  67.600  1.00  0.00    -0.343 C  
BRANCH   3   4
ATOM      4  CB  MET A   1     -10.955  14.042  66.534  1.00  0.00    -0.306 C  
BRANCH   4   5
ATOM      5  CA  MET A   1     -11.503  14.159  65.106  1.00  0.00    -0.336 C  
ATOM      6  C   MET A   1     -11.493  15.628  64.632  1.00  0.00    -0.303 C  
ATOM      7  N   MET A   1     -12.899  13.647  64.972  1.00  0.00    -0.733 NA 
ATOM      8  O   MET A   1     -12.562  15.884  63.831  1.00  0.00    -0.719 OA 
ATOM      9  OXT MET A   1     -10.640  16.459  64.895  1.00  0.00    -0.677 OA 
ATOM     10  H1  MET A   1     -13.264  13.725  64.022  1.00  0.00     0.000 HD 
ATOM     11  H2  MET A   1     -13.521  14.105  65.639  1.00  0.00     0.000 HD 
ENDBRANCH   4   5
ENDBRANCH   3   4
ENDBRANCH   2   3
TORSDOF 3
ENDMDL
MODEL       15
REMARK 921   NORMALIZED FREE ENERGY PREDICTED BY IDOCK:   -3.54 KCAL/MOL
REMARK 922        TOTAL FREE ENERGY PREDICTED BY IDOCK:   -4.22 KCAL/MOL
REMARK 923 INTER-LIGAND FREE ENERGY PREDICTED BY IDOCK:   -4.12 KCAL/MOL
REMARK 924 INTRA-LIGAND FREE ENERGY PREDICTED BY IDOCK:   -0.10 KCAL/MOL
REMARK 927      BINDING AFFINITY PREDICTED BY RF-SCORE:    0.00 PKD
ROOT
ATOM      1  CE  MET A   1     -11.464  10.510  70.387  1.00  0.00    -0.341 C  
ATOM      2  SD  MET A   1     -12.176  12.172  70.423  1.00  0.00    -0.217 SA 
ENDROOT
BRANCH   2   3
ATOM      3  CG  MET A   1     -13.266  11.986  71.871  1.00  0.00    -0.364 C  
BRANCH   3   4
ATOM      4  CB  MET A   1     -13.785  13.357  72.304  1.00  0.00    -0.705 C  
BRANCH   4   5
ATOM      5  CA  MET A   1     -12.837  14.504  71.932  1.00  0.00    -0.338 C  
ATOM      6  C   MET A   1     -12.345  15.240  73.196  1.00  0.00    -0.447 C  
ATOM      7  N   MET A   1     -13.467  15.515  71.032  1.00  0.00    -0.711 NA 
ATOM      8  O   MET A   1     -12.192  16.570  72.951  1.00  0.00    -0.470 OA 
ATOM      9  OXT MET A   1     -12.086  14.724  74.271  1.00  0.00    -0.526 OA 
ATOM     10  H1  MET A   1     -12.836  16.278  70.785  1.00  0.00     0.000 HD 
ATOM     11  H2  MET A   1     -14.331  15.874  71.437  1.00  0.00     0.000 HD 
ENDBRANCH   4   5
ENDBRANCH   3   4
ENDBRANCH   2   3
TORSDOF 3
ENDMDL
MODEL       16
REMARK 921   NORMALIZED FREE ENERGY PREDICTED BY IDOCK:   -3.53 KCAL/MOL
REMARK 922        TOTAL FREE ENERGY PREDICTED BY IDOCK:   -4.21 KCAL/MOL
REMARK 923 INTER-LIGAND FREE ENERGY PREDICTED BY IDOCK:   -4.02 KCAL/MOL
REMARK 924 INTRA-LIGAND FREE ENERGY PREDICTED BY IDOCK:   -0.19 KCAL/MOL
REMARK 927      BINDING AFFINITY PREDICTED BY RF-SCORE:    0.00 PKD
ROOT
ATOM      1  CE  MET A   1      -9.564   7.702  70.753  1.00  0.00    -0.166 C  
ATOM      2  SD  MET A   1     -10.914   6.859  69.894  1.00  0.00    -0.284 SA 
ENDROOT
BRANCH   2   3
ATOM      3  CG  MET A   1     -12.070   6.674  71.290  1.00  0.00    -0.341 C  
BRANCH   3   4
ATOM      4  CB  MET A   1     -11.985   7.903  72.195  1.00  0.00    -0.379 C  
BRANCH   4   5
ATOM      5  CA  MET A   1     -13.140   8.888  71.982  1.00  0.00    -0.402 C  
ATOM      6  C   MET A   1     -12.609  10.272  71.553  1.00  0.00    -0.440 C  
ATOM      7  N   MET A   1     -13.978   9.080  73.203  1.00  0.00    -1.215 NA 
ATOM      8  O   MET A   1     -13.380  11.267  72.072  1.00  0.00    -0.462 OA 
ATOM      9  OXT MET A   1     -11.654  10.479  70.824  1.00  0.00    -0.333 OA 
ATOM     10  H1  MET A   1     -14.747   9.736  73.061  1.00  0.00     0.000 HD 
ATOM     11  H2  MET A   1     -13.404   9.359  73.998  1.00  0.00     0.000 HD 
ENDBRANCH   4   5
ENDBRANCH   3   4
ENDBRANCH   2   3
TORSDOF 3
ENDMDL
MODEL       17
REMARK 921   NORMALIZED FREE ENERGY PREDICTED BY IDOCK:   -3.48 KCAL/MOL
REMARK 922        TOTAL FREE ENERGY PREDICTED BY IDOCK:   -4.15 KCAL/MOL
REMARK 923 INTER-LIGAND FREE ENERGY PREDICTED BY IDOCK:   -4.11 KCAL/MOL
REMARK 924 INTRA-LIGAND FREE ENERGY PREDICTED BY IDOCK:   -0.04 KCAL/MOL
REMARK 927      BINDING AFFINITY PREDICTED BY RF-SCORE:    0.00 PKD
ROOT
ATOM      1  CE  MET A   1     -11.664  10.868  70.021  1.00  0.00    -0.345 C  
ATOM      2  SD  MET A   1     -10.570  11.338  68.659  1.00  0.00    -0.211 SA 
ENDROOT
BRANCH   2   3
ATOM      3  CG  MET A   1     -11.683  12.481  67.780  1.00  0.00    -0.359 C  
BRANCH   3   4
ATOM      4  CB  MET A   1     -11.239  12.614  66.323  1.00  0.00    -0.354 C  
BRANCH   4   5
ATOM      5  CA  MET A   1     -12.409  12.831  65.355  1.00  0.00    -0.470 C  
ATOM      6  C   MET A   1     -11.900  13.004  63.909  1.00  0.00    -0.477 C  
ATOM      7  N   MET A   1     -13.235  14.028  65.694  1.00  0.00    -0.664 NA 
ATOM      8  O   MET A   1     -12.677  13.889  63.226  1.00  0.00    -0.775 OA 
ATOM      9  OXT MET A   1     -10.956  12.418  63.406  1.00  0.00    -0.456 OA 
ATOM     10  H1  MET A   1     -14.013  14.172  65.050  1.00  0.00     0.000 HD 
ATOM     11  H2  MET A   1     -12.655  14.865  65.756  1.00  0.00     0.000 HD 
ENDBRANCH   4   5
ENDBRANCH   3   4
ENDBRANCH   2   3
TORSDOF 3
ENDMDL
MODEL       18
REMARK 921   NORMALIZED FREE ENERGY PREDICTED BY IDOCK:   -3.47 KCAL/MOL
REMARK 922        TOTAL FREE ENERGY PREDICTED BY IDOCK:   -4.14 KCAL/MOL
REMARK 923 INTER-LIGAND FREE ENERGY PREDICTED BY IDOCK:   -4.09 KCAL/MOL
REMARK 924 INTRA-LIGAND FREE ENERGY PREDICTED BY IDOCK:   -0.06 KCAL/MOL
REMARK 927      BINDING AFFINITY PREDICTED BY RF-SCORE:    0.00 PKD
ROOT
ATOM      1  CE  MET A   1     -10.644  14.925  67.911  1.00  0.00    -0.254 C  
ATOM      2  SD  MET A   1     -10.314  16.255  66.729  1.00  0.00    -0.290 SA 
ENDROOT
BRANCH   2   3
ATOM      3  CG  MET A   1     -10.851  15.419  65.202  1.00  0.00    -0.431 C  
BRANCH   3   4
ATOM      4  CB  MET A   1     -10.604  13.916  65.323  1.00  0.00    -0.372 C  
BRANCH   4   5
ATOM      5  CA  MET A   1     -11.887  13.084  65.202  1.00  0.00    -0.369 C  
ATOM      6  C   MET A   1     -11.872  12.236  63.913  1.00  0.00    -0.464 C  
ATOM      7  N   MET A   1     -13.125  13.918  65.183  1.00  0.00    -0.764 NA 
ATOM      8  O   MET A   1     -13.124  12.127  63.392  1.00  0.00    -0.752 OA 
ATOM      9  OXT MET A   1     -10.895  11.696  63.422  1.00  0.00    -0.391 OA 
ATOM     10  H1  MET A   1     -13.979  13.365  65.103  1.00  0.00     0.000 HD 
ATOM     11  H2  MET A   1     -13.078  14.623  64.448  1.00  0.00     0.000 HD 
ENDBRANCH   4   5
ENDBRANCH   3   4
ENDBRANCH   2   3
TORSDOF 3
ENDMDL
MODEL       19
REMARK 921   NORMALIZED FREE ENERGY PREDICTED BY IDOCK:   -3.46 KCAL/MOL
REMARK 922        TOTAL FREE ENERGY PREDICTED BY IDOCK:   -4.12 KCAL/MOL
REMARK 923 INTER-LIGAND FREE ENERGY PREDICTED BY IDOCK:   -4.02 KCAL/MOL
REMARK 924 INTRA-LIGAND FREE ENERGY PREDICTED BY IDOCK:   -0.10 KCAL/MOL
REMARK 927      BINDING AFFINITY PREDICTED BY RF-SCORE:    0.00 PKD
ROOT
ATOM      1  CE  MET A   1     -10.008  16.348  69.281  1.00  0.00    -0.259 C  
ATOM      2  SD  MET A   1     -10.886  16.196  67.707  1.00  0.00    -0.292 SA 
ENDROOT
BRANCH   2   3
ATOM      3  CG  MET A   1      -9.713  15.113  66.828  1.00  0.00    -0.242 C  
BRANCH   3   4
ATOM      4  CB  MET A   1     -10.453  13.899  66.268  1.00  0.00    -0.287 C  
BRANCH   4   5
ATOM      5  CA  MET A   1     -10.913  14.091  64.817  1.00  0.00    -0.402 C  
ATOM      6  C   MET A   1     -12.410  13.749  64.665  1.00  0.00    -0.372 C  
ATOM      7  N   MET A   1     -10.152  13.250  63.846  1.00  0.00    -0.731 NA 
ATOM      8  O   MET A   1     -12.655  13.180  63.453  1.00  0.00    -0.722 OA 
ATOM      9  OXT MET A   1     -13.284  13.975  65.486  1.00  0.00    -0.710 OA 
ATOM     10  H1  MET A   1     -10.458  13.378  62.881  1.00  0.00     0.000 HD 
ATOM     11  H2  MET A   1     -10.188  12.266  64.111  1.00  0.00     0.000 HD 
ENDBRANCH   4   5
ENDBRANCH   3   4
ENDBRANCH   2   3
TORSDOF 3
ENDMDL
MODEL       20
REMARK 921   NORMALIZED FREE ENERGY PREDICTED BY IDOCK:   -3.46 KCAL/MOL
REMARK 922        TOTAL FREE ENERGY PREDICTED BY IDOCK:   -4.12 KCAL/MOL
REMARK 923 INTER-LIGAND FREE ENERGY PREDICTED BY IDOCK:   -4.04 KCAL/MOL
REMARK 924 INTRA-LIGAND FREE ENERGY PREDICTED BY IDOCK:   -0.08 KCAL/MOL
REMARK 927      BINDING AFFINITY PREDICTED BY RF-SCORE:    0.00 PKD
ROOT
ATOM      1  CE  MET A   1     -12.175  12.416  63.345  1.00  0.00    -0.523 C  
ATOM      2  SD  MET A   1     -11.552  12.415  65.043  1.00  0.00    -0.349 SA 
ENDROOT
BRANCH   2   3
ATOM      3  CG  MET A   1     -12.310  13.966  65.627  1.00  0.00    -0.482 C  
BRANCH   3   4
ATOM      4  CB  MET A   1     -11.272  14.791  66.388  1.00  0.00    -0.342 C  
BRANCH   4   5
ATOM      5  CA  MET A   1     -10.267  15.491  65.466  1.00  0.00    -0.386 C  
ATOM      6  C   MET A   1      -9.179  16.215  66.288  1.00  0.00    -0.331 C  
ATOM      7  N   MET A   1     -10.902  16.498  64.565  1.00  0.00    -1.008 NA 
ATOM      8  O   MET A   1      -8.795  17.366  65.672  1.00  0.00    -0.448 OA 
ATOM      9  OXT MET A   1      -8.687  15.819  67.331  1.00  0.00    -0.173 OA 
ATOM     10  H1  MET A   1     -10.234  16.964  63.952  1.00  0.00     0.000 HD 
ATOM     11  H2  MET A   1     -11.439  17.179  65.102  1.00  0.00     0.000 HD 
ENDBRANCH   4   5
ENDBRANCH   3   4
ENDBRANCH   2   3
TORSDOF 3
ENDMDL
MODEL       21
REMARK 921   NORMALIZED FREE ENERGY PREDICTED BY IDOCK:   -3.45 KCAL/MOL
REMARK 922        TOTAL FREE ENERGY PREDICTED BY IDOCK:   -4.12 KCAL/MOL
REMARK 923 INTER-LIGAND FREE ENERGY PREDICTED BY IDOCK:   -4.06 KCAL/MOL
REMARK 924 INTRA-LIGAND FREE ENERGY PREDICTED BY IDOCK:   -0.06 KCAL/MOL
REMARK 927      BINDING AFFINITY PREDICTED BY RF-SCORE:    0.00 PKD
ROOT
ATOM      1  CE  MET A   1      -7.290  10.091  64.949  1.00  0.00    -0.140 C  
ATOM      2  SD  MET A   1      -8.804   9.102  65.005  1.00  0.00    -0.162 SA 
ENDROOT
BRANCH   2   3
ATOM      3  CG  MET A   1      -9.980  10.407  65.488  1.00  0.00    -0.282 C  
BRANCH   3   4
ATOM      4  CB  MET A   1     -10.348  11.247  64.265  1.00  0.00    -0.399 C  
BRANCH   4   5
ATOM      5  CA  MET A   1     -11.007  12.583  64.630  1.00  0.00    -0.310 C  
ATOM      6  C   MET A   1     -12.275  12.818  63.782  1.00  0.00    -0.489 C  
ATOM      7  N   MET A   1     -10.103  13.755  64.432  1.00  0.00    -0.752 NA 
ATOM      8  O   MET A   1     -12.426  14.140  63.496  1.00  0.00    -0.817 OA 
ATOM      9  OXT MET A   1     -13.071  11.964  63.431  1.00  0.00    -0.710 OA 
ATOM     10  H1  MET A   1     -10.542  14.643  64.675  1.00  0.00     0.000 HD 
ATOM     11  H2  MET A   1      -9.739  13.777  63.480  1.00  0.00     0.000 HD 
ENDBRANCH   4   5
ENDBRANCH   3   4
ENDBRANCH   2   3
TORSDOF 3
ENDMDL
MODEL       22
REMARK 921   NORMALIZED FREE ENERGY PREDICTED BY IDOCK:   -3.45 KCAL/MOL
REMARK 922        TOTAL FREE ENERGY PREDICTED BY IDOCK:   -4.11 KCAL/MOL
REMARK 923 INTER-LIGAND FREE ENERGY PREDICTED BY IDOCK:   -3.99 KCAL/MOL
REMARK 924 INTRA-LIGAND FREE ENERGY PREDICTED BY IDOCK:   -0.12 KCAL/MOL
REMARK 927      BINDING AFFINITY PREDICTED BY RF-SCORE:    0.00 PKD
ROOT
ATOM      1  CE  MET A   1      -7.948  15.265  67.918  1.00  0.00    -0.137 C  
ATOM      2  SD  MET A   1      -9.578  14.734  68.493  1.00  0.00    -0.222 SA 
ENDROOT
BRANCH   2   3
ATOM      3  CG  MET A   1     -10.076  13.729  67.057  1.00  0.00    -0.256 C  
BRANCH   3   4
ATOM      4  CB  MET A   1     -11.403  14.245  66.502  1.00  0.00    -0.351 C  
BRANCH   4   5
ATOM      5  CA  MET A   1     -11.329  14.619  65.017  1.00  0.00    -0.390 C  
ATOM      6  C   MET A   1     -10.988  16.114  64.844  1.00  0.00    -0.349 C  
ATOM      7  N   MET A   1     -12.601  14.354  64.282  1.00  0.00    -0.669 NA 
ATOM      8  O   MET A   1     -11.623  16.632  63.757  1.00  0.00    -1.045 OA 
ATOM      9  OXT MET A   1     -10.231  16.763  65.547  1.00  0.00    -0.567 OA 
ATOM     10  H1  MET A   1     -12.552  14.603  63.294  1.00  0.00     0.000 HD 
ATOM     11  H2  MET A   1     -13.387  14.820  64.736  1.00  0.00     0.000 HD 
ENDBRANCH   4   5
ENDBRANCH   3   4
ENDBRANCH   2   3
TORSDOF 3
ENDMDL
MODEL       23
REMARK 921   NORMALIZED FREE ENERGY PREDICTED BY IDOCK:   -3.44 KCAL/MOL
REMARK 922        TOTAL FREE ENERGY PREDICTED BY IDOCK:   -4.11 KCAL/MOL
REMARK 923 INTER-LIGAND FREE ENERGY PREDICTED BY IDOCK:   -3.96 KCAL/MOL
REMARK 924 INTRA-LIGAND FREE ENERGY PREDICTED BY IDOCK:   -0.15 KCAL/MOL
REMARK 927      BINDING AFFINITY PREDICTED BY RF-SCORE:    0.00 PKD
ROOT
ATOM      1  CE  MET A   1     -11.783  11.630  68.800  1.00  0.00    -0.330 C  
ATOM      2  SD  MET A   1     -12.021  12.863  67.498  1.00  0.00    -0.210 SA 
ENDROOT
BRANCH   2   3
ATOM      3  CG  MET A   1     -10.922  12.155  66.229  1.00  0.00    -0.295 C  
BRANCH   3   4
ATOM      4  CB  MET A   1     -10.415  13.266  65.309  1.00  0.00    -0.324 C  
BRANCH   4   5
ATOM      5  CA  MET A   1     -11.214  14.569  65.443  1.00  0.00    -0.342 C  
ATOM      6  C   MET A   1     -12.049  14.833  64.172  1.00  0.00    -0.299 C  
ATOM      7  N   MET A   1     -10.350  15.764  65.677  1.00  0.00    -0.363 NA 
ATOM      8  O   MET A   1     -12.122  16.167  63.912  1.00  0.00    -0.956 OA 
ATOM      9  OXT MET A   1     -12.607  13.988  63.493  1.00  0.00    -0.842 OA 
ATOM     10  H1  MET A   1     -10.881  16.630  65.766  1.00  0.00     0.000 HD 
ATOM     11  H2  MET A   1      -9.639  15.846  64.951  1.00  0.00     0.000 HD 
ENDBRANCH   4   5
ENDBRANCH   3   4
ENDBRANCH   2   3
TORSDOF 3
ENDMDL
MODEL       24
REMARK 921   NORMALIZED FREE ENERGY PREDICTED BY IDOCK:   -3.44 KCAL/MOL
REMARK 922        TOTAL FREE ENERGY PREDICTED BY IDOCK:   -4.10 KCAL/MOL
REMARK 923 INTER-LIGAND FREE ENERGY PREDICTED BY IDOCK:   -4.06 KCAL/MOL
REMARK 924 INTRA-LIGAND FREE ENERGY PREDICTED BY IDOCK:   -0.04 KCAL/MOL
REMARK 927      BINDING AFFINITY PREDICTED BY RF-SCORE:    0.00 PKD
ROOT
ATOM      1  CE  MET A   1     -12.169  15.359  70.500  1.00  0.00    -0.394 C  
ATOM      2  SD  MET A   1     -11.029  15.226  69.102  1.00  0.00    -0.269 SA 
ENDROOT
BRANCH   2   3
ATOM      3  CG  MET A   1     -11.867  13.902  68.174  1.00  0.00    -0.372 C  
BRANCH   3   4
ATOM      4  CB  MET A   1     -12.260  14.413  66.788  1.00  0.00    -0.319 C  
BRANCH   4   5
ATOM      5  CA  MET A   1     -11.700  13.553  65.648  1.00  0.00    -0.339 C  
ATOM      6  C   MET A   1     -12.340  13.945  64.299  1.00  0.00    -0.348 C  
ATOM      7  N   MET A   1     -11.928  12.092  65.852  1.00  0.00    -0.519 NA 
ATOM      8  O   MET A   1     -12.495  12.852  63.503  1.00  0.00    -0.683 OA 
ATOM      9  OXT MET A   1     -12.644  15.074  63.952  1.00  0.00    -0.813 OA 
ATOM     10  H1  MET A   1     -11.555  11.519  65.094  1.00  0.00     0.000 HD 
ATOM     11  H2  MET A   1     -12.917  11.895  66.004  1.00  0.00     0.000 HD 
ENDBRANCH   4   5
ENDBRANCH   3   4
ENDBRANCH   2   3
TORSDOF 3
ENDMDL
MODEL       25
REMARK 921   NORMALIZED FREE ENERGY PREDICTED BY IDOCK:   -3.42 KCAL/MOL
REMARK 922        TOTAL FREE ENERGY PREDICTED BY IDOCK:   -4.08 KCAL/MOL
REMARK 923 INTER-LIGAND FREE ENERGY PREDICTED BY IDOCK:   -3.96 KCAL/MOL
REMARK 924 INTRA-LIGAND FREE ENERGY PREDICTED BY IDOCK:   -0.12 KCAL/MOL
REMARK 927      BINDING AFFINITY PREDICTED BY RF-SCORE:    0.00 PKD
ROOT
ATOM      1  CE  MET A   1     -11.063  14.674  66.980  1.00  0.00    -0.333 C  
ATOM      2  SD  MET A   1     -11.434  15.302  68.635  1.00  0.00    -0.351 SA 
ENDROOT
BRANCH   2   3
ATOM      3  CG  MET A   1     -12.247  13.825  69.327  1.00  0.00    -0.264 C  
BRANCH   3   4
ATOM      4  CB  MET A   1     -12.193  13.875  70.854  1.00  0.00    -0.436 C  
BRANCH   4   5
ATOM      5  CA  MET A   1     -13.314  14.722  71.468  1.00  0.00    -0.374 C  
ATOM      6  C   MET A   1     -12.732  15.868  72.321  1.00  0.00    -0.440 C  
ATOM      7  N   MET A   1     -14.237  13.930  72.335  1.00  0.00    -0.679 NA 
ATOM      8  O   MET A   1     -13.524  16.116  73.400  1.00  0.00    -0.606 OA 
ATOM      9  OXT MET A   1     -11.723  16.505  72.072  1.00  0.00    -0.474 OA 
ATOM     10  H1  MET A   1     -14.983  14.494  72.744  1.00  0.00     0.000 HD 
ATOM     11  H2  MET A   1     -13.718  13.434  73.060  1.00  0.00     0.000 HD 
ENDBRANCH   4   5
ENDBRANCH   3   4
ENDBRANCH   2   3
TORSDOF 3
ENDMDL
MODEL       26
REMARK 921   NORMALIZED FREE ENERGY PREDICTED BY IDOCK:   -3.41 KCAL/MOL
REMARK 922        TOTAL FREE ENERGY PREDICTED BY IDOCK:   -4.07 KCAL/MOL
REMARK 923 INTER-LIGAND FREE ENERGY PREDICTED BY IDOCK:   -3.95 KCAL/MOL
REMARK 924 INTRA-LIGAND FREE ENERGY PREDICTED BY IDOCK:   -0.12 KCAL/MOL
REMARK 927      BINDING AFFINITY PREDICTED BY RF-SCORE:    0.00 PKD
ROOT
ATOM      1  CE  MET A   1     -10.649  11.388  63.805  1.00  0.00    -0.403 C  
ATOM      2  SD  MET A   1     -11.955  12.559  63.365  1.00  0.00    -0.464 SA 
ENDROOT
BRANCH   2   3
ATOM      3  CG  MET A   1     -11.671  13.806  64.662  1.00  0.00    -0.395 C  
BRANCH   3   4
ATOM      4  CB  MET A   1     -12.513  13.470  65.893  1.00  0.00    -0.484 C  
BRANCH   4   5
ATOM      5  CA  MET A   1     -11.722  13.558  67.204  1.00  0.00    -0.379 C  
ATOM      6  C   MET A   1     -11.774  12.217  67.968  1.00  0.00    -0.356 C  
ATOM      7  N   MET A   1     -12.226  14.623  68.121  1.00  0.00    -0.596 NA 
ATOM      8  O   MET A   1     -11.800  12.428  69.312  1.00  0.00    -0.303 OA 
ATOM      9  OXT MET A   1     -11.760  11.106  67.465  1.00  0.00    -0.574 OA 
ATOM     10  H1  MET A   1     -11.701  14.682  68.993  1.00  0.00     0.000 HD 
ATOM     11  H2  MET A   1     -13.223  14.505  68.304  1.00  0.00     0.000 HD 
ENDBRANCH   4   5
ENDBRANCH   3   4
ENDBRANCH   2   3
TORSDOF 3
ENDMDL
MODEL       27
REMARK 921   NORMALIZED FREE ENERGY PREDICTED BY IDOCK:   -3.41 KCAL/MOL
REMARK 922        TOTAL FREE ENERGY PREDICTED BY IDOCK:   -4.06 KCAL/MOL
REMARK 923 INTER-LIGAND FREE ENERGY PREDICTED BY IDOCK:   -3.96 KCAL/MOL
REMARK 924 INTRA-LIGAND FREE ENERGY PREDICTED BY IDOCK:   -0.11 KCAL/MOL
REMARK 927      BINDING AFFINITY PREDICTED BY RF-SCORE:    0.00 PKD
ROOT
ATOM      1  CE  MET A   1      -9.968   9.032  66.148  1.00  0.00    -0.241 C  
ATOM      2  SD  MET A   1      -8.579   9.304  65.022  1.00  0.00    -0.186 SA 
ENDROOT
BRANCH   2   3
ATOM      3  CG  MET A   1      -9.182  10.803  64.180  1.00  0.00    -0.224 C  
BRANCH   3   4
ATOM      4  CB  MET A   1     -10.675  10.982  64.454  1.00  0.00    -0.340 C  
BRANCH   4   5
ATOM      5  CA  MET A   1     -11.115  12.452  64.455  1.00  0.00    -0.333 C  
ATOM      6  C   MET A   1     -12.118  12.724  65.595  1.00  0.00    -0.459 C  
ATOM      7  N   MET A   1     -11.756  12.871  63.173  1.00  0.00    -0.844 NA 
ATOM      8  O   MET A   1     -13.044  13.646  65.213  1.00  0.00    -0.735 OA 
ATOM      9  OXT MET A   1     -12.092  12.224  66.707  1.00  0.00    -0.593 OA 
ATOM     10  H1  MET A   1     -12.048  13.848  63.174  1.00  0.00     0.000 HD 
ATOM     11  H2  MET A   1     -12.537  12.258  62.940  1.00  0.00     0.000 HD 
ENDBRANCH   4   5
ENDBRANCH   3   4
ENDBRANCH   2   3
TORSDOF 3
ENDMDL
MODEL       28
REMARK 921   NORMALIZED FREE ENERGY PREDICTED BY IDOCK:   -3.40 KCAL/MOL
REMARK 922        TOTAL FREE ENERGY PREDICTED BY IDOCK:   -4.06 KCAL/MOL
REMARK 923 INTER-LIGAND FREE ENERGY PREDICTED BY IDOCK:   -3.96 KCAL/MOL
REMARK 924 INTRA-LIGAND FREE ENERGY PREDICTED BY IDOCK:   -0.10 KCAL/MOL
REMARK 927      BINDING AFFINITY PREDICTED BY RF-SCORE:    0.00 PKD
ROOT
ATOM      1  CE  MET A   1     -12.784  14.916  70.570  1.00  0.00    -0.347 C  
ATOM      2  SD  MET A   1     -11.434  15.105  69.381  1.00  0.00    -0.330 SA 
ENDROOT
BRANCH   2   3
ATOM      3  CG  MET A   1     -11.618  13.528  68.486  1.00  0.00    -0.333 C  
BRANCH   3   4
ATOM      4  CB  MET A   1     -10.931  13.626  67.124  1.00  0.00    -0.299 C  
BRANCH   4   5
ATOM      5  CA  MET A   1     -11.643  14.583  66.160  1.00  0.00    -0.365 C  
ATOM      6  C   MET A   1     -12.436  13.799  65.093  1.00  0.00    -0.450 C  
ATOM      7  N   MET A   1     -10.705  15.500  65.447  1.00  0.00    -0.380 NA 
ATOM      8  O   MET A   1     -12.415  14.452  63.899  1.00  0.00    -0.798 OA 
ATOM      9  OXT MET A   1     -13.038  12.754  65.272  1.00  0.00    -0.658 OA 
ATOM     10  H1  MET A   1     -11.178  16.137  64.806  1.00  0.00     0.000 HD 
ATOM     11  H2  MET A   1      -9.977  14.973  64.965  1.00  0.00     0.000 HD 
ENDBRANCH   4   5
ENDBRANCH   3   4
ENDBRANCH   2   3
TORSDOF 3
ENDMDL
MODEL       29
REMARK 921   NORMALIZED FREE ENERGY PREDICTED BY IDOCK:   -3.39 KCAL/MOL
REMARK 922        TOTAL FREE ENERGY PREDICTED BY IDOCK:   -4.05 KCAL/MOL
REMARK 923 INTER-LIGAND FREE ENERGY PREDICTED BY IDOCK:   -3.98 KCAL/MOL
REMARK 924 INTRA-LIGAND FREE ENERGY PREDICTED BY IDOCK:   -0.07 KCAL/MOL
REMARK 927      BINDING AFFINITY PREDICTED BY RF-SCORE:    0.00 PKD
ROOT
ATOM      1  CE  MET A   1      -7.542  16.219  68.949  1.00  0.00    -0.212 C  
ATOM      2  SD  MET A   1      -8.501  17.490  68.090  1.00  0.00    -0.261 SA 
ENDROOT
BRANCH   2   3
ATOM      3  CG  MET A   1      -8.914  16.562  66.578  1.00  0.00    -0.278 C  
BRANCH   3   4
ATOM      4  CB  MET A   1     -10.377  16.119  66.629  1.00  0.00    -0.297 C  
BRANCH   4   5
ATOM      5  CA  MET A   1     -10.699  14.994  65.637  1.00  0.00    -0.354 C  
ATOM      6  C   MET A   1     -11.555  15.523  64.466  1.00  0.00    -0.283 C  
ATOM      7  N   MET A   1     -11.436  13.856  66.262  1.00  0.00    -0.328 NA 
ATOM      8  O   MET A   1     -12.441  14.578  64.051  1.00  0.00    -0.778 OA 
ATOM      9  OXT MET A   1     -11.452  16.619  63.942  1.00  0.00    -1.186 OA 
ATOM     10  H1  MET A   1     -11.650  13.108  65.602  1.00  0.00     0.000 HD 
ATOM     11  H2  MET A   1     -12.282  14.183  66.729  1.00  0.00     0.000 HD 
ENDBRANCH   4   5
ENDBRANCH   3   4
ENDBRANCH   2   3
TORSDOF 3
ENDMDL
MODEL       30
REMARK 921   NORMALIZED FREE ENERGY PREDICTED BY IDOCK:   -3.38 KCAL/MOL
REMARK 922        TOTAL FREE ENERGY PREDICTED BY IDOCK:   -4.04 KCAL/MOL
REMARK 923 INTER-LIGAND FREE ENERGY PREDICTED BY IDOCK:   -3.97 KCAL/MOL
REMARK 924 INTRA-LIGAND FREE ENERGY PREDICTED BY IDOCK:   -0.07 KCAL/MOL
REMARK 927      BINDING AFFINITY PREDICTED BY RF-SCORE:    0.00 PKD
ROOT
ATOM      1  CE  MET A   1     -11.353  10.481  68.437  1.00  0.00    -0.262 C  
ATOM      2  SD  MET A   1     -11.403  12.289  68.392  1.00  0.00    -0.319 SA 
ENDROOT
BRANCH   2   3
ATOM      3  CG  MET A   1     -10.280  12.571  66.984  1.00  0.00    -0.221 C  
BRANCH   3   4
ATOM      4  CB  MET A   1     -10.842  11.894  65.734  1.00  0.00    -0.341 C  
BRANCH   4   5
ATOM      5  CA  MET A   1     -10.907  12.831  64.521  1.00  0.00    -0.347 C  
ATOM      6  C   MET A   1     -12.267  13.558  64.461  1.00  0.00    -0.398 C  
ATOM      7  N   MET A   1     -10.713  12.121  63.222  1.00  0.00    -0.624 NA 
ATOM      8  O   MET A   1     -12.660  13.741  63.172  1.00  0.00    -0.793 OA 
ATOM      9  OXT MET A   1     -12.909  13.957  65.419  1.00  0.00    -0.662 OA 
ATOM     10  H1  MET A   1     -10.756  12.744  62.416  1.00  0.00     0.000 HD 
ATOM     11  H2  MET A   1     -11.377  11.353  63.125  1.00  0.00     0.000 HD 
ENDBRANCH   4   5
ENDBRANCH   3   4
ENDBRANCH   2   3
TORSDOF 3
ENDMDL
MODEL       31
REMARK 921   NORMALIZED FREE ENERGY PREDICTED BY IDOCK:   -3.38 KCAL/MOL
REMARK 922        TOTAL FREE ENERGY PREDICTED BY IDOCK:   -4.03 KCAL/MOL
REMARK 923 INTER-LIGAND FREE ENERGY PREDICTED BY IDOCK:   -3.94 KCAL/MOL
REMARK 924 INTRA-LIGAND FREE ENERGY PREDICTED BY IDOCK:   -0.08 KCAL/MOL
REMARK 927      BINDING AFFINITY PREDICTED BY RF-SCORE:    0.00 PKD
ROOT
ATOM      1  CE  MET A   1     -11.600  14.873  67.305  1.00  0.00    -0.324 C  
ATOM      2  SD  MET A   1     -10.569  14.014  68.518  1.00  0.00    -0.258 SA 
ENDROOT
BRANCH   2   3
ATOM      3  CG  MET A   1     -11.877  13.437  69.647  1.00  0.00    -0.331 C  
BRANCH   3   4
ATOM      4  CB  MET A   1     -12.597  14.638  70.260  1.00  0.00    -0.370 C  
BRANCH   4   5
ATOM      5  CA  MET A   1     -12.133  14.952  71.688  1.00  0.00    -0.351 C  
ATOM      6  C   MET A   1     -13.178  14.478  72.721  1.00  0.00    -0.508 C  
ATOM      7  N   MET A   1     -11.893  16.407  71.919  1.00  0.00    -0.658 NA 
ATOM      8  O   MET A   1     -13.227  15.327  73.783  1.00  0.00    -0.419 OA 
ATOM      9  OXT MET A   1     -13.858  13.468  72.641  1.00  0.00    -0.724 OA 
ATOM     10  H1  MET A   1     -11.585  16.616  72.869  1.00  0.00     0.000 HD 
ATOM     11  H2  MET A   1     -12.717  16.956  71.675  1.00  0.00     0.000 HD 
ENDBRANCH   4   5
ENDBRANCH   3   4
ENDBRANCH   2   3
TORSDOF 3
ENDMDL
MODEL       32
REMARK 921   NORMALIZED FREE ENERGY PREDICTED BY IDOCK:   -3.35 KCAL/MOL
REMARK 922        TOTAL FREE ENERGY PREDICTED BY IDOCK:   -4.00 KCAL/MOL
REMARK 923 INTER-LIGAND FREE ENERGY PREDICTED BY IDOCK:   -3.90 KCAL/MOL
REMARK 924 INTRA-LIGAND FREE ENERGY PREDICTED BY IDOCK:   -0.10 KCAL/MOL
REMARK 927      BINDING AFFINITY PREDICTED BY RF-SCORE:    0.00 PKD
ROOT
ATOM      1  CE  MET A   1      -8.366  11.387  68.037  1.00  0.00    -0.143 C  
ATOM      2  SD  MET A   1     -10.142  11.431  67.696  1.00  0.00    -0.183 SA 
ENDROOT
BRANCH   2   3
ATOM      3  CG  MET A   1     -10.092  11.219  65.888  1.00  0.00    -0.245 C  
BRANCH   3   4
ATOM      4  CB  MET A   1     -10.176  12.585  65.206  1.00  0.00    -0.302 C  
BRANCH   4   5
ATOM      5  CA  MET A   1     -10.955  12.551  63.885  1.00  0.00    -0.424 C  
ATOM      6  C   MET A   1     -12.476  12.599  64.144  1.00  0.00    -0.403 C  
ATOM      7  N   MET A   1     -10.670  11.333  63.069  1.00  0.00    -0.799 NA 
ATOM      8  O   MET A   1     -13.146  11.851  63.225  1.00  0.00    -0.674 OA 
ATOM      9  OXT MET A   1     -13.034  13.237  65.021  1.00  0.00    -0.726 OA 
ATOM     10  H1  MET A   1     -11.188  11.311  62.191  1.00  0.00     0.000 HD 
ATOM     11  H2  MET A   1     -10.836  10.485  63.611  1.00  0.00     0.000 HD 
ENDBRANCH   4   5
ENDBRANCH   3   4
ENDBRANCH   2   3
TORSDOF 3
ENDMDL
MODEL       33
REMARK 921   NORMALIZED FREE ENERGY PREDICTED BY IDOCK:   -3.31 KCAL/MOL
REMARK 922        TOTAL FREE ENERGY PREDICTED BY IDOCK:   -3.95 KCAL/MOL
REMARK 923 INTER-LIGAND FREE ENERGY PREDICTED BY IDOCK:   -3.87 KCAL/MOL
REMARK 924 INTRA-LIGAND FREE ENERGY PREDICTED BY IDOCK:   -0.08 KCAL/MOL
REMARK 927      BINDING AFFINITY PREDICTED BY RF-SCORE:    0.00 PKD
ROOT
ATOM      1  CE  MET A   1      -8.724  12.730  67.951  1.00  0.00    -0.185 C  
ATOM      2  SD  MET A   1     -10.139  13.748  68.437  1.00  0.00    -0.235 SA 
ENDROOT
BRANCH   2   3
ATOM      3  CG  MET A   1     -10.876  14.018  66.793  1.00  0.00    -0.294 C  
BRANCH   3   4
ATOM      4  CB  MET A   1     -11.447  12.703  66.262  1.00  0.00    -0.415 C  
BRANCH   4   5
ATOM      5  CA  MET A   1     -12.508  12.904  65.173  1.00  0.00    -0.501 C  
ATOM      6  C   MET A   1     -11.850  13.036  63.783  1.00  0.00    -0.502 C  
ATOM      7  N   MET A   1     -13.351  14.116  65.395  1.00  0.00    -0.595 NA 
ATOM      8  O   MET A   1     -12.542  13.910  63.002  1.00  0.00    -0.694 OA 
ATOM      9  OXT MET A   1     -10.866  12.429  63.396  1.00  0.00    -0.451 OA 
ATOM     10  H1  MET A   1     -14.057  14.251  64.671  1.00  0.00     0.000 HD 
ATOM     11  H2  MET A   1     -12.771  14.949  65.496  1.00  0.00     0.000 HD 
ENDBRANCH   4   5
ENDBRANCH   3   4
ENDBRANCH   2   3
TORSDOF 3
ENDMDL
MODEL       34
REMARK 921   NORMALIZED FREE ENERGY PREDICTED BY IDOCK:   -3.31 KCAL/MOL
REMARK 922        TOTAL FREE ENERGY PREDICTED BY IDOCK:   -3.95 KCAL/MOL
REMARK 923 INTER-LIGAND FREE ENERGY PREDICTED BY IDOCK:   -3.80 KCAL/MOL
REMARK 924 INTRA-LIGAND FREE ENERGY PREDICTED BY IDOCK:   -0.16 KCAL/MOL
REMARK 927      BINDING AFFINITY PREDICTED BY RF-SCORE:    0.00 PKD
ROOT
ATOM      1  CE  MET A   1      -9.103  11.285  66.490  1.00  0.00    -0.184 C  
ATOM      2  SD  MET A   1     -10.274  12.222  67.501  1.00  0.00    -0.206 SA 
ENDROOT
BRANCH   2   3
ATOM      3  CG  MET A   1     -10.065  13.862  66.735  1.00  0.00    -0.265 C  
BRANCH   3   4
ATOM      4  CB  MET A   1     -10.628  13.842  65.314  1.00  0.00    -0.363 C  
BRANCH   4   5
ATOM      5  CA  MET A   1     -11.926  13.033  65.192  1.00  0.00    -0.402 C  
ATOM      6  C   MET A   1     -11.906  12.151  63.926  1.00  0.00    -0.466 C  
ATOM      7  N   MET A   1     -13.146  13.891  65.131  1.00  0.00    -0.764 NA 
ATOM      8  O   MET A   1     -13.152  12.053  63.387  1.00  0.00    -0.747 OA 
ATOM      9  OXT MET A   1     -10.932  11.578  63.467  1.00  0.00    -0.399 OA 
ATOM     10  H1  MET A   1     -14.009  13.354  65.050  1.00  0.00     0.000 HD 
ATOM     11  H2  MET A   1     -13.072  14.576  64.378  1.00  0.00     0.000 HD 
ENDBRANCH   4   5
ENDBRANCH   3   4
ENDBRANCH   2   3
TORSDOF 3
ENDMDL
MODEL       35
REMARK 921   NORMALIZED FREE ENERGY PREDICTED BY IDOCK:   -3.30 KCAL/MOL
REMARK 922        TOTAL FREE ENERGY PREDICTED BY IDOCK:   -3.94 KCAL/MOL
REMARK 923 INTER-LIGAND FREE ENERGY PREDICTED BY IDOCK:   -3.89 KCAL/MOL
REMARK 924 INTRA-LIGAND FREE ENERGY PREDICTED BY IDOCK:   -0.05 KCAL/MOL
REMARK 927      BINDING AFFINITY PREDICTED BY RF-SCORE:    0.00 PKD
ROOT
ATOM      1  CE  MET A   1      -7.606  13.491  67.614  1.00  0.00    -0.177 C  
ATOM      2  SD  MET A   1      -9.113  12.540  67.920  1.00  0.00    -0.206 SA 
ENDROOT
BRANCH   2   3
ATOM      3  CG  MET A   1     -10.344  13.776  67.397  1.00  0.00    -0.252 C  
BRANCH   3   4
ATOM      4  CB  MET A   1     -10.092  14.171  65.942  1.00  0.00    -0.337 C  
BRANCH   4   5
ATOM      5  CA  MET A   1     -11.334  14.747  65.251  1.00  0.00    -0.363 C  
ATOM      6  C   MET A   1     -12.087  13.649  64.470  1.00  0.00    -0.419 C  
ATOM      7  N   MET A   1     -11.014  15.848  64.295  1.00  0.00    -0.888 NA 
ATOM      8  O   MET A   1     -12.637  14.156  63.333  1.00  0.00    -0.818 OA 
ATOM      9  OXT MET A   1     -12.217  12.486  64.814  1.00  0.00    -0.432 OA 
ATOM     10  H1  MET A   1     -11.840  16.231  63.835  1.00  0.00     0.000 HD 
ATOM     11  H2  MET A   1     -10.324  15.545  63.608  1.00  0.00     0.000 HD 
ENDBRANCH   4   5
ENDBRANCH   3   4
ENDBRANCH   2   3
TORSDOF 3
ENDMDL
MODEL       36
REMARK 921   NORMALIZED FREE ENERGY PREDICTED BY IDOCK:   -3.25 KCAL/MOL
REMARK 922        TOTAL FREE ENERGY PREDICTED BY IDOCK:   -3.88 KCAL/MOL
REMARK 923 INTER-LIGAND FREE ENERGY PREDICTED BY IDOCK:   -3.76 KCAL/MOL
REMARK 924 INTRA-LIGAND FREE ENERGY PREDICTED BY IDOCK:   -0.11 KCAL/MOL
REMARK 927      BINDING AFFINITY PREDICTED BY RF-SCORE:    0.00 PKD
ROOT
ATOM      1  CE  MET A   1     -14.346  15.081  71.797  1.00  0.00    -0.580 C  
ATOM      2  SD  MET A   1     -13.020  15.493  72.957  1.00  0.00    -0.557 SA 
ENDROOT
BRANCH   2   3
ATOM      3  CG  MET A   1     -11.632  15.596  71.781  1.00  0.00    -0.450 C  
BRANCH   3   4
ATOM      4  CB  MET A   1     -12.170  15.816  70.367  1.00  0.00    -0.388 C  
BRANCH   4   5
ATOM      5  CA  MET A   1     -11.359  15.079  69.294  1.00  0.00    -0.296 C  
ATOM      6  C   MET A   1     -10.748  16.077  68.287  1.00  0.00    -0.298 C  
ATOM      7  N   MET A   1     -12.171  14.093  68.522  1.00  0.00    -0.561 NA 
ATOM      8  O   MET A   1     -10.718  15.542  67.036  1.00  0.00    -0.314 OA 
ATOM      9  OXT MET A   1     -10.311  17.184  68.551  1.00  0.00    -0.318 OA 
ATOM     10  H1  MET A   1     -11.632  13.603  67.808  1.00  0.00     0.000 HD 
ATOM     11  H2  MET A   1     -12.994  14.538  68.114  1.00  0.00     0.000 HD 
ENDBRANCH   4   5
ENDBRANCH   3   4
ENDBRANCH   2   3
TORSDOF 3
ENDMDL
MODEL       37
REMARK 921   NORMALIZED FREE ENERGY PREDICTED BY IDOCK:   -3.23 KCAL/MOL
REMARK 922        TOTAL FREE ENERGY PREDICTED BY IDOCK:   -3.86 KCAL/MOL
REMARK 923 INTER-LIGAND FREE ENERGY PREDICTED BY IDOCK:   -3.80 KCAL/MOL
REMARK 924 INTRA-LIGAND FREE ENERGY PREDICTED BY IDOCK:   -0.06 KCAL/MOL
REMARK 927      BINDING AFFINITY PREDICTED BY RF-SCORE:    0.00 PKD
ROOT
ATOM      1  CE  MET A   1      -7.555  19.763  67.649  1.00  0.00    -0.282 C  
ATOM      2  SD  MET A   1      -8.131  18.142  68.205  1.00  0.00    -0.303 SA 
ENDROOT
BRANCH   2   3
ATOM      3  CG  MET A   1      -9.641  18.012  67.195  1.00  0.00    -0.281 C  
BRANCH   3   4
ATOM      4  CB  MET A   1      -9.380  17.104  65.993  1.00  0.00    -0.156 C  
BRANCH   4   5
ATOM      5  CA  MET A   1     -10.613  16.292  65.574  1.00  0.00    -0.353 C  
ATOM      6  C   MET A   1     -10.275  14.789  65.484  1.00  0.00    -0.374 C  
ATOM      7  N   MET A   1     -11.170  16.713  64.255  1.00  0.00    -1.380 NA 
ATOM      8  O   MET A   1     -10.972  14.197  64.476  1.00  0.00    -0.385 OA 
ATOM      9  OXT MET A   1      -9.518  14.179  66.222  1.00  0.00    -0.283 OA 
ATOM     10  H1  MET A   1     -11.990  16.173  63.977  1.00  0.00     0.000 HD 
ATOM     11  H2  MET A   1     -10.453  16.685  63.531  1.00  0.00     0.000 HD 
ENDBRANCH   4   5
ENDBRANCH   3   4
ENDBRANCH   2   3
TORSDOF 3
ENDMDL
MODEL       38
REMARK 921   NORMALIZED FREE ENERGY PREDICTED BY IDOCK:   -3.23 KCAL/MOL
REMARK 922        TOTAL FREE ENERGY PREDICTED BY IDOCK:   -3.85 KCAL/MOL
REMARK 923 INTER-LIGAND FREE ENERGY PREDICTED BY IDOCK:   -3.78 KCAL/MOL
REMARK 924 INTRA-LIGAND FREE ENERGY PREDICTED BY IDOCK:   -0.07 KCAL/MOL
REMARK 927      BINDING AFFINITY PREDICTED BY RF-SCORE:    0.00 PKD
ROOT
ATOM      1  CE  MET A   1     -13.924  15.097  71.619  1.00  0.00    -0.523 C  
ATOM      2  SD  MET A   1     -12.352  15.784  72.193  1.00  0.00    -0.498 SA 
ENDROOT
BRANCH   2   3
ATOM      3  CG  MET A   1     -11.294  15.281  70.798  1.00  0.00    -0.331 C  
BRANCH   3   4
ATOM      4  CB  MET A   1     -12.114  14.470  69.795  1.00  0.00    -0.380 C  
BRANCH   4   5
ATOM      5  CA  MET A   1     -11.270  13.467  68.999  1.00  0.00    -0.275 C  
ATOM      6  C   MET A   1     -11.866  13.241  67.593  1.00  0.00    -0.357 C  
ATOM      7  N   MET A   1     -11.160  12.136  69.666  1.00  0.00    -0.474 NA 
ATOM      8  O   MET A   1     -11.687  11.952  67.195  1.00  0.00    -0.528 OA 
ATOM      9  OXT MET A   1     -12.399  14.089  66.897  1.00  0.00    -0.418 OA 
ATOM     10  H1  MET A   1     -10.598  11.468  69.137  1.00  0.00     0.000 HD 
ATOM     11  H2  MET A   1     -12.083  11.753  69.870  1.00  0.00     0.000 HD 
ENDBRANCH   4   5
ENDBRANCH   3   4
ENDBRANCH   2   3
TORSDOF 3
ENDMDL
MODEL       39
REMARK 921   NORMALIZED FREE ENERGY PREDICTED BY IDOCK:   -3.20 KCAL/MOL
REMARK 922        TOTAL FREE ENERGY PREDICTED BY IDOCK:   -3.83 KCAL/MOL
REMARK 923 INTER-LIGAND FREE ENERGY PREDICTED BY IDOCK:   -3.72 KCAL/MOL
REMARK 924 INTRA-LIGAND FREE ENERGY PREDICTED BY IDOCK:   -0.11 KCAL/MOL
REMARK 927      BINDING AFFINITY PREDICTED BY RF-SCORE:    0.00 PKD
ROOT
ATOM      1  CE  MET A   1      -6.520  19.390  69.557  1.00  0.00    -0.320 C  
ATOM      2  SD  MET A   1      -5.621  20.685  68.670  1.00  0.00    -0.351 SA 
ENDROOT
BRANCH   2   3
ATOM      3  CG  MET A   1      -6.840  21.035  67.362  1.00  0.00    -0.371 C  
BRANCH   3   4
ATOM      4  CB  MET A   1      -8.069  20.147  67.552  1.00  0.00    -0.356 C  
BRANCH   4   5
ATOM      5  CA  MET A   1      -8.522  19.461  66.257  1.00  0.00    -0.334 C  
ATOM      6  C   MET A   1      -9.984  18.980  66.372  1.00  0.00    -0.395 C  
ATOM      7  N   MET A   1      -7.682  18.280  65.896  1.00  0.00    -0.512 NA 
ATOM      8  O   MET A   1     -10.164  17.815  65.692  1.00  0.00    -0.590 OA 
ATOM      9  OXT MET A   1     -10.885  19.560  66.955  1.00  0.00    -0.487 OA 
ATOM     10  H1  MET A   1      -7.982  17.824  65.034  1.00  0.00     0.000 HD 
ATOM     11  H2  MET A   1      -7.641  17.613  66.666  1.00  0.00     0.000 HD 
ENDBRANCH   4   5
ENDBRANCH   3   4
ENDBRANCH   2   3
TORSDOF 3
ENDMDL
MODEL       40
REMARK 921   NORMALIZED FREE ENERGY PREDICTED BY IDOCK:   -3.20 KCAL/MOL
REMARK 922        TOTAL FREE ENERGY PREDICTED BY IDOCK:   -3.83 KCAL/MOL
REMARK 923 INTER-LIGAND FREE ENERGY PREDICTED BY IDOCK:   -3.73 KCAL/MOL
REMARK 924 INTRA-LIGAND FREE ENERGY PREDICTED BY IDOCK:   -0.10 KCAL/MOL
REMARK 927      BINDING AFFINITY PREDICTED BY RF-SCORE:    0.00 PKD
ROOT
ATOM      1  CE  MET A   1     -12.223  13.129  70.105  1.00  0.00    -0.290 C  
ATOM      2  SD  MET A   1     -12.835  12.229  71.550  1.00  0.00    -0.186 SA 
ENDROOT
BRANCH   2   3
ATOM      3  CG  MET A   1     -13.014  10.577  70.804  1.00  0.00    -0.330 C  
BRANCH   3   4
ATOM      4  CB  MET A   1     -11.992   9.621  71.419  1.00  0.00    -0.480 C  
BRANCH   4   5
ATOM      5  CA  MET A   1     -12.636   8.526  72.280  1.00  0.00    -0.381 C  
ATOM      6  C   MET A   1     -13.027   7.308  71.417  1.00  0.00    -0.373 C  
ATOM      7  N   MET A   1     -13.862   8.990  72.995  1.00  0.00    -1.108 NA 
ATOM      8  O   MET A   1     -14.172   6.736  71.879  1.00  0.00    -0.267 OA 
ATOM      9  OXT MET A   1     -12.399   6.872  70.466  1.00  0.00    -0.312 OA 
ATOM     10  H1  MET A   1     -14.290   8.262  73.568  1.00  0.00     0.000 HD 
ATOM     11  H2  MET A   1     -14.538   9.382  72.341  1.00  0.00     0.000 HD 
ENDBRANCH   4   5
ENDBRANCH   3   4
ENDBRANCH   2   3
TORSDOF 3
ENDMDL
MODEL       41
REMARK 921   NORMALIZED FREE ENERGY PREDICTED BY IDOCK:   -3.19 KCAL/MOL
REMARK 922        TOTAL FREE ENERGY PREDICTED BY IDOCK:   -3.81 KCAL/MOL
REMARK 923 INTER-LIGAND FREE ENERGY PREDICTED BY IDOCK:   -3.66 KCAL/MOL
REMARK 924 INTRA-LIGAND FREE ENERGY PREDICTED BY IDOCK:   -0.15 KCAL/MOL
REMARK 927      BINDING AFFINITY PREDICTED BY RF-SCORE:    0.00 PKD
ROOT
ATOM      1  CE  MET A   1      -5.924  20.695  68.436  1.00  0.00    -0.333 C  
ATOM      2  SD  MET A   1      -7.253  19.486  68.649  1.00  0.00    -0.348 SA 
ENDROOT
BRANCH   2   3
ATOM      3  CG  MET A   1      -8.419  20.118  67.400  1.00  0.00    -0.339 C  
BRANCH   3   4
ATOM      4  CB  MET A   1      -9.844  20.061  67.950  1.00  0.00    -0.538 C  
BRANCH   4   5
ATOM      5  CA  MET A   1     -10.705  18.985  67.276  1.00  0.00    -0.470 C  
ATOM      6  C   MET A   1     -10.534  17.623  67.982  1.00  0.00    -0.394 C  
ATOM      7  N   MET A   1     -10.377  18.793  65.832  1.00  0.00    -0.582 NA 
ATOM      8  O   MET A   1     -10.602  16.602  67.085  1.00  0.00    -0.316 OA 
ATOM      9  OXT MET A   1     -10.392  17.451  69.181  1.00  0.00    -0.342 OA 
ATOM     10  H1  MET A   1     -10.950  18.078  65.383  1.00  0.00     0.000 HD 
ATOM     11  H2  MET A   1      -9.385  18.595  65.707  1.00  0.00     0.000 HD 
ENDBRANCH   4   5
ENDBRANCH   3   4
ENDBRANCH   2   3
TORSDOF 3
ENDMDL
MODEL       42
REMARK 921   NORMALIZED FREE ENERGY PREDICTED BY IDOCK:   -3.18 KCAL/MOL
REMARK 922        TOTAL FREE ENERGY PREDICTED BY IDOCK:   -3.79 KCAL/MOL
REMARK 923 INTER-LIGAND FREE ENERGY PREDICTED BY IDOCK:   -3.73 KCAL/MOL
REMARK 924 INTRA-LIGAND FREE ENERGY PREDICTED BY IDOCK:   -0.07 KCAL/MOL
REMARK 927      BINDING AFFINITY PREDICTED BY RF-SCORE:    0.00 PKD
ROOT
ATOM      1  CE  MET A   1     -11.815  15.921  71.147  1.00  0.00    -0.438 C  
ATOM      2  SD  MET A   1     -11.264  16.340  69.475  1.00  0.00    -0.270 SA 
ENDROOT
BRANCH   2   3
ATOM      3  CG  MET A   1     -10.601  14.718  68.977  1.00  0.00    -0.248 C  
BRANCH   3   4
ATOM      4  CB  MET A   1     -11.754  13.764  68.665  1.00  0.00    -0.391 C  
BRANCH   4   5
ATOM      5  CA  MET A   1     -11.445  12.807  67.507  1.00  0.00    -0.336 C  
ATOM      6  C   MET A   1     -11.986  13.366  66.174  1.00  0.00    -0.413 C  
ATOM      7  N   MET A   1     -12.029  11.447  67.700  1.00  0.00    -0.626 NA 
ATOM      8  O   MET A   1     -12.422  12.359  65.369  1.00  0.00    -0.637 OA 
ATOM      9  OXT MET A   1     -12.002  14.540  65.843  1.00  0.00    -0.366 OA 
ATOM     10  H1  MET A   1     -11.824  10.810  66.930  1.00  0.00     0.000 HD 
ATOM     11  H2  MET A   1     -13.034  11.502  67.868  1.00  0.00     0.000 HD 
ENDBRANCH   4   5
ENDBRANCH   3   4
ENDBRANCH   2   3
TORSDOF 3
ENDMDL
MODEL       43
REMARK 921   NORMALIZED FREE ENERGY PREDICTED BY IDOCK:   -3.17 KCAL/MOL
REMARK 922        TOTAL FREE ENERGY PREDICTED BY IDOCK:   -3.78 KCAL/MOL
REMARK 923 INTER-LIGAND FREE ENERGY PREDICTED BY IDOCK:   -3.64 KCAL/MOL
REMARK 924 INTRA-LIGAND FREE ENERGY PREDICTED BY IDOCK:   -0.15 KCAL/MOL
REMARK 927      BINDING AFFINITY PREDICTED BY RF-SCORE:    0.00 PKD
ROOT
ATOM      1  CE  MET A   1     -10.141  14.434  67.516  1.00  0.00    -0.232 C  
ATOM      2  SD  MET A   1     -10.353  15.033  65.822  1.00  0.00    -0.363 SA 
ENDROOT
BRANCH   2   3
ATOM      3  CG  MET A   1     -12.102  14.589  65.577  1.00  0.00    -0.299 C  
BRANCH   3   4
ATOM      4  CB  MET A   1     -12.272  13.075  65.709  1.00  0.00    -0.511 C  
BRANCH   4   5
ATOM      5  CA  MET A   1     -12.130  12.336  64.372  1.00  0.00    -0.399 C  
ATOM      6  C   MET A   1     -10.784  11.584  64.301  1.00  0.00    -0.355 C  
ATOM      7  N   MET A   1     -12.207  13.245  63.190  1.00  0.00    -0.901 NA 
ATOM      8  O   MET A   1     -10.293  11.592  63.032  1.00  0.00    -0.322 OA 
ATOM      9  OXT MET A   1     -10.227  11.022  65.229  1.00  0.00    -0.257 OA 
ATOM     10  H1  MET A   1     -12.112  12.754  62.301  1.00  0.00     0.000 HD 
ATOM     11  H2  MET A   1     -11.522  13.997  63.264  1.00  0.00     0.000 HD 
ENDBRANCH   4   5
ENDBRANCH   3   4
ENDBRANCH   2   3
TORSDOF 3
ENDMDL
MODEL       44
REMARK 921   NORMALIZED FREE ENERGY PREDICTED BY IDOCK:   -3.14 KCAL/MOL
REMARK 922        TOTAL FREE ENERGY PREDICTED BY IDOCK:   -3.75 KCAL/MOL
REMARK 923 INTER-LIGAND FREE ENERGY PREDICTED BY IDOCK:   -3.88 KCAL/MOL
REMARK 924 INTRA-LIGAND FREE ENERGY PREDICTED BY IDOCK:    0.12 KCAL/MOL
REMARK 927      BINDING AFFINITY PREDICTED BY RF-SCORE:    0.00 PKD
ROOT
ATOM      1  CE  MET A   1     -11.397  10.947  68.782  1.00  0.00    -0.292 C  
ATOM      2  SD  MET A   1     -10.900  10.380  67.138  1.00  0.00    -0.193 SA 
ENDROOT
BRANCH   2   3
ATOM      3  CG  MET A   1     -11.376  11.849  66.172  1.00  0.00    -0.324 C  
BRANCH   3   4
ATOM      4  CB  MET A   1     -10.597  11.875  64.857  1.00  0.00    -0.333 C  
BRANCH   4   5
ATOM      5  CA  MET A   1     -11.248  12.765  63.790  1.00  0.00    -0.443 C  
ATOM      6  C   MET A   1     -11.601  14.150  64.371  1.00  0.00    -0.362 C  
ATOM      7  N   MET A   1     -12.498  12.178  63.222  1.00  0.00    -0.807 NA 
ATOM      8  O   MET A   1     -12.749  14.627  63.819  1.00  0.00    -0.778 OA 
ATOM      9  OXT MET A   1     -10.943  14.773  65.188  1.00  0.00    -0.344 OA 
ATOM     10  H1  MET A   1     -12.931  12.769  62.513  1.00  0.00     0.000 HD 
ATOM     11  H2  MET A   1     -13.163  11.951  63.962  1.00  0.00     0.000 HD 
ENDBRANCH   4   5
ENDBRANCH   3   4
ENDBRANCH   2   3
TORSDOF 3
ENDMDL
MODEL       45
REMARK 921   NORMALIZED FREE ENERGY PREDICTED BY IDOCK:   -3.08 KCAL/MOL
REMARK 922        TOTAL FREE ENERGY PREDICTED BY IDOCK:   -3.68 KCAL/MOL
REMARK 923 INTER-LIGAND FREE ENERGY PREDICTED BY IDOCK:   -3.61 KCAL/MOL
REMARK 924 INTRA-LIGAND FREE ENERGY PREDICTED BY IDOCK:   -0.07 KCAL/MOL
REMARK 927      BINDING AFFINITY PREDICTED BY RF-SCORE:    0.00 PKD
ROOT
ATOM      1  CE  MET A   1      -7.468  19.141  68.308  1.00  0.00    -0.299 C  
ATOM      2  SD  MET A   1      -9.261  18.988  68.493  1.00  0.00    -0.377 SA 
ENDROOT
BRANCH   2   3
ATOM      3  CG  MET A   1      -9.403  17.173  68.415  1.00  0.00    -0.273 C  
BRANCH   3   4
ATOM      4  CB  MET A   1     -10.704  16.788  67.711  1.00  0.00    -0.321 C  
BRANCH   4   5
ATOM      5  CA  MET A   1     -10.487  16.293  66.276  1.00  0.00    -0.308 C  
ATOM      6  C   MET A   1     -10.862  17.388  65.255  1.00  0.00     0.056 C  
ATOM      7  N   MET A   1     -11.286  15.075  65.950  1.00  0.00    -0.314 NA 
ATOM      8  O   MET A   1     -11.407  16.839  64.136  1.00  0.00    -1.194 OA 
ATOM      9  OXT MET A   1     -10.677  18.586  65.389  1.00  0.00    -0.585 OA 
ATOM     10  H1  MET A   1     -11.142  14.745  64.996  1.00  0.00     0.000 HD 
ATOM     11  H2  MET A   1     -12.277  15.229  66.136  1.00  0.00     0.000 HD 
ENDBRANCH   4   5
ENDBRANCH   3   4
ENDBRANCH   2   3
TORSDOF 3
ENDMDL
MODEL       46
REMARK 921   NORMALIZED FREE ENERGY PREDICTED BY IDOCK:   -3.08 KCAL/MOL
REMARK 922        TOTAL FREE ENERGY PREDICTED BY IDOCK:   -3.68 KCAL/MOL
REMARK 923 INTER-LIGAND FREE ENERGY PREDICTED BY IDOCK:   -3.56 KCAL/MOL
REMARK 924 INTRA-LIGAND FREE ENERGY PREDICTED BY IDOCK:   -0.12 KCAL/MOL
REMARK 927      BINDING AFFINITY PREDICTED BY RF-SCORE:    0.00 PKD
ROOT
ATOM      1  CE  MET A   1     -11.794  12.412  69.002  1.00  0.00    -0.300 C  
ATOM      2  SD  MET A   1     -10.469  12.675  67.799  1.00  0.00    -0.226 SA 
ENDROOT
BRANCH   2   3
ATOM      3  CG  MET A   1      -9.990  14.369  68.266  1.00  0.00    -0.232 C  
BRANCH   3   4
ATOM      4  CB  MET A   1      -9.537  15.137  67.024  1.00  0.00    -0.235 C  
BRANCH   4   5
ATOM      5  CA  MET A   1     -10.639  16.027  66.433  1.00  0.00    -0.284 C  
ATOM      6  C   MET A   1     -10.914  15.655  64.961  1.00  0.00    -0.431 C  
ATOM      7  N   MET A   1     -10.304  17.481  66.481  1.00  0.00    -0.339 NA 
ATOM      8  O   MET A   1     -11.229  16.762  64.234  1.00  0.00    -1.163 OA 
ATOM      9  OXT MET A   1     -10.892  14.530  64.490  1.00  0.00    -0.351 OA 
ATOM     10  H1  MET A   1     -11.037  18.073  66.088  1.00  0.00     0.000 HD 
ATOM     11  H2  MET A   1      -9.408  17.664  66.030  1.00  0.00     0.000 HD 
ENDBRANCH   4   5
ENDBRANCH   3   4
ENDBRANCH   2   3
TORSDOF 3
ENDMDL
MODEL       47
REMARK 921   NORMALIZED FREE ENERGY PREDICTED BY IDOCK:   -3.06 KCAL/MOL
REMARK 922        TOTAL FREE ENERGY PREDICTED BY IDOCK:   -3.66 KCAL/MOL
REMARK 923 INTER-LIGAND FREE ENERGY PREDICTED BY IDOCK:   -3.57 KCAL/MOL
REMARK 924 INTRA-LIGAND FREE ENERGY PREDICTED BY IDOCK:   -0.09 KCAL/MOL
REMARK 927      BINDING AFFINITY PREDICTED BY RF-SCORE:    0.00 PKD
ROOT
ATOM      1  CE  MET A   1     -13.827  15.283  71.826  1.00  0.00    -0.521 C  
ATOM      2  SD  MET A   1     -12.152  15.240  71.144  1.00  0.00    -0.392 SA 
ENDROOT
BRANCH   2   3
ATOM      3  CG  MET A   1     -12.261  13.677  70.215  1.00  0.00    -0.353 C  
BRANCH   3   4
ATOM      4  CB  MET A   1     -11.255  13.690  69.065  1.00  0.00    -0.316 C  
BRANCH   4   5
ATOM      5  CA  MET A   1     -11.869  14.144  67.734  1.00  0.00    -0.379 C  
ATOM      6  C   MET A   1     -11.900  12.982  66.719  1.00  0.00    -0.388 C  
ATOM      7  N   MET A   1     -11.129  15.279  67.106  1.00  0.00    -0.336 NA 
ATOM      8  O   MET A   1     -11.690  13.440  65.455  1.00  0.00    -0.313 OA 
ATOM      9  OXT MET A   1     -12.115  11.810  66.978  1.00  0.00    -0.575 OA 
ATOM     10  H1  MET A   1     -11.537  15.581  66.221  1.00  0.00     0.000 HD 
ATOM     11  H2  MET A   1     -10.142  15.050  66.991  1.00  0.00     0.000 HD 
ENDBRANCH   4   5
ENDBRANCH   3   4
ENDBRANCH   2   3
TORSDOF 3
ENDMDL
MODEL       48
REMARK 921   NORMALIZED FREE ENERGY PREDICTED BY IDOCK:   -3.04 KCAL/MOL
REMARK 922        TOTAL FREE ENERGY PREDICTED BY IDOCK:   -3.63 KCAL/MOL
REMARK 923 INTER-LIGAND FREE ENERGY PREDICTED BY IDOCK:   -3.47 KCAL/MOL
REMARK 924 INTRA-LIGAND FREE ENERGY PREDICTED BY IDOCK:   -0.16 KCAL/MOL
REMARK 927      BINDING AFFINITY PREDICTED BY RF-SCORE:    0.00 PKD
ROOT
ATOM      1  CE  MET A   1      -9.791  16.058  65.896  1.00  0.00    -0.348 C  
ATOM      2  SD  MET A   1      -9.922  14.636  67.006  1.00  0.00    -0.250 SA 
ENDROOT
BRANCH   2   3
ATOM      3  CG  MET A   1     -11.725  14.386  66.940  1.00  0.00    -0.402 C  
BRANCH   3   4
ATOM      4  CB  MET A   1     -12.033  13.012  66.346  1.00  0.00    -0.466 C  
BRANCH   4   5
ATOM      5  CA  MET A   1     -11.008  12.566  65.296  1.00  0.00    -0.293 C  
ATOM      6  C   MET A   1     -11.636  12.551  63.887  1.00  0.00    -0.442 C  
ATOM      7  N   MET A   1     -10.451  11.207  65.562  1.00  0.00    -0.266 NA 
ATOM      8  O   MET A   1     -11.124  11.534  63.141  1.00  0.00    -0.267 OA 
ATOM      9  OXT MET A   1     -12.456  13.346  63.459  1.00  0.00    -0.738 OA 
ATOM     10  H1  MET A   1      -9.769  10.911  64.864  1.00  0.00     0.000 HD 
ATOM     11  H2  MET A   1     -11.198  10.519  65.655  1.00  0.00     0.000 HD 
ENDBRANCH   4   5
ENDBRANCH   3   4
ENDBRANCH   2   3
TORSDOF 3
ENDMDL
MODEL       49
REMARK 921   NORMALIZED FREE ENERGY PREDICTED BY IDOCK:   -3.03 KCAL/MOL
REMARK 922        TOTAL FREE ENERGY PREDICTED BY IDOCK:   -3.62 KCAL/MOL
REMARK 923 INTER-LIGAND FREE ENERGY PREDICTED BY IDOCK:   -3.51 KCAL/MOL
REMARK 924 INTRA-LIGAND FREE ENERGY PREDICTED BY IDOCK:   -0.11 KCAL/MOL
REMARK 927      BINDING AFFINITY PREDICTED BY RF-SCORE:    0.00 PKD
ROOT
ATOM      1  CE  MET A   1      -7.136  18.492  68.482  1.00  0.00    -0.277 C  
ATOM      2  SD  MET A   1      -7.239  16.708  68.759  1.00  0.00    -0.217 SA 
ENDROOT
BRANCH   2   3
ATOM      3  CG  MET A   1      -9.051  16.523  68.773  1.00  0.00    -0.256 C  
BRANCH   3   4
ATOM      4  CB  MET A   1      -9.500  15.745  67.536  1.00  0.00    -0.218 C  
BRANCH   4   5
ATOM      5  CA  MET A   1     -10.610  16.455  66.750  1.00  0.00    -0.238 C  
ATOM      6  C   MET A   1     -10.732  15.871  65.326  1.00  0.00    -0.424 C  
ATOM      7  N   MET A   1     -10.388  17.925  66.622  1.00  0.00    -0.365 NA 
ATOM      8  O   MET A   1     -11.065  16.843  64.434  1.00  0.00    -1.128 OA 
ATOM      9  OXT MET A   1     -10.589  14.700  65.017  1.00  0.00    -0.390 OA 
ATOM     10  H1  MET A   1     -11.126  18.397  66.099  1.00  0.00     0.000 HD 
ATOM     11  H2  MET A   1      -9.473  18.122  66.217  1.00  0.00     0.000 HD 
ENDBRANCH   4   5
ENDBRANCH   3   4
ENDBRANCH   2   3
TORSDOF 3
ENDMDL
MODEL       50
REMARK 921   NORMALIZED FREE ENERGY PREDICTED BY IDOCK:   -3.03 KCAL/MOL
REMARK 922        TOTAL FREE ENERGY PREDICTED BY IDOCK:   -3.62 KCAL/MOL
REMARK 923 INTER-LIGAND FREE ENERGY PREDICTED BY IDOCK:   -3.49 KCAL/MOL
REMARK 924 INTRA-LIGAND FREE ENERGY PREDICTED BY IDOCK:   -0.13 KCAL/MOL
REMARK 927      BINDING AFFINITY PREDICTED BY RF-SCORE:    0.00 PKD
ROOT
ATOM      1  CE  MET A   1     -10.380  12.216  63.813  1.00  0.00    -0.437 C  
ATOM      2  SD  MET A   1     -12.177  12.121  63.633  1.00  0.00    -0.549 SA 
ENDROOT
BRANCH   2   3
ATOM      3  CG  MET A   1     -12.660  13.245  64.984  1.00  0.00    -0.423 C  
BRANCH   3   4
ATOM      4  CB  MET A   1     -11.856  12.914  66.241  1.00  0.00    -0.477 C  
BRANCH   4   5
ATOM      5  CA  MET A   1     -11.317  14.160  66.956  1.00  0.00    -0.332 C  
ATOM      6  C   MET A   1      -9.944  13.873  67.599  1.00  0.00    -0.237 C  
ATOM      7  N   MET A   1     -12.228  14.658  68.029  1.00  0.00    -0.601 NA 
ATOM      8  O   MET A   1      -9.806  14.556  68.767  1.00  0.00    -0.224 OA 
ATOM      9  OXT MET A   1      -9.068  13.163  67.132  1.00  0.00    -0.213 OA 
ATOM     10  H1  MET A   1     -11.870  15.487  68.504  1.00  0.00     0.000 HD 
ATOM     11  H2  MET A   1     -12.440  13.918  68.698  1.00  0.00     0.000 HD 
ENDBRANCH   4   5
ENDBRANCH   3   4
ENDBRANCH   2   3
TORSDOF 3
ENDMDL
MODEL       51
REMARK 921   NORMALIZED FREE ENERGY PREDICTED BY IDOCK:   -3.02 KCAL/MOL
REMARK 922        TOTAL FREE ENERGY PREDICTED BY IDOCK:   -3.61 KCAL/MOL
REMARK 923 INTER-LIGAND FREE ENERGY PREDICTED BY IDOCK:   -3.56 KCAL/MOL
REMARK 924 INTRA-LIGAND FREE ENERGY PREDICTED BY IDOCK:   -0.05 KCAL/MOL
REMARK 927      BINDING AFFINITY PREDICTED BY RF-SCORE:    0.00 PKD
ROOT
ATOM      1  CE  MET A   1     -14.395  15.101  71.573  1.00  0.00    -0.559 C  
ATOM      2  SD  MET A   1     -13.358  13.969  72.530  1.00  0.00    -0.550 SA 
ENDROOT
BRANCH   2   3
ATOM      3  CG  MET A   1     -12.999  12.743  71.230  1.00  0.00    -0.220 C  
BRANCH   3   4
ATOM      4  CB  MET A   1     -13.256  11.335  71.766  1.00  0.00    -0.480 C  
BRANCH   4   5
ATOM      5  CA  MET A   1     -12.431  10.259  71.048  1.00  0.00    -0.384 C  
ATOM      6  C   MET A   1     -12.047   9.123  72.019  1.00  0.00    -0.361 C  
ATOM      7  N   MET A   1     -11.172  10.791  70.448  1.00  0.00    -0.448 NA 
ATOM      8  O   MET A   1     -10.814   8.630  71.721  1.00  0.00    -0.274 OA 
ATOM      9  OXT MET A   1     -12.744   8.682  72.917  1.00  0.00    -0.289 OA 
ATOM     10  H1  MET A   1     -10.623  10.076  69.971  1.00  0.00     0.000 HD 
ATOM     11  H2  MET A   1     -10.609  11.272  71.150  1.00  0.00     0.000 HD 
ENDBRANCH   4   5
ENDBRANCH   3   4
ENDBRANCH   2   3
TORSDOF 3
ENDMDL
MODEL       52
REMARK 921   NORMALIZED FREE ENERGY PREDICTED BY IDOCK:   -3.02 KCAL/MOL
REMARK 922        TOTAL FREE ENERGY PREDICTED BY IDOCK:   -3.61 KCAL/MOL
REMARK 923 INTER-LIGAND FREE ENERGY PREDICTED BY IDOCK:   -3.54 KCAL/MOL
REMARK 924 INTRA-LIGAND FREE ENERGY PREDICTED BY IDOCK:   -0.08 KCAL/MOL
REMARK 927      BINDING AFFINITY PREDICTED BY RF-SCORE:    0.00 PKD
ROOT
ATOM      1  CE  MET A   1     -10.614  13.551  64.994  1.00  0.00    -0.372 C  
ATOM      2  SD  MET A   1     -10.630  15.319  65.377  1.00  0.00    -0.423 SA 
ENDROOT
BRANCH   2   3
ATOM      3  CG  MET A   1     -11.147  15.230  67.122  1.00  0.00    -0.323 C  
BRANCH   3   4
ATOM      4  CB  MET A   1     -11.756  13.858  67.409  1.00  0.00    -0.422 C  
BRANCH   4   5
ATOM      5  CA  MET A   1     -11.161  13.184  68.652  1.00  0.00    -0.276 C  
ATOM      6  C   MET A   1     -11.759  11.776  68.852  1.00  0.00    -0.323 C  
ATOM      7  N   MET A   1     -11.394  13.960  69.906  1.00  0.00    -0.456 NA 
ATOM      8  O   MET A   1     -11.889  11.490  70.177  1.00  0.00    -0.326 OA 
ATOM      9  OXT MET A   1     -12.053  10.990  67.967  1.00  0.00    -0.615 OA 
ATOM     10  H1  MET A   1     -10.998  13.513  70.733  1.00  0.00     0.000 HD 
ATOM     11  H2  MET A   1     -12.387  14.152  70.036  1.00  0.00     0.000 HD 
ENDBRANCH   4   5
ENDBRANCH   3   4
ENDBRANCH   2   3
TORSDOF 3
ENDMDL
MODEL       53
REMARK 921   NORMALIZED FREE ENERGY PREDICTED BY IDOCK:   -3.01 KCAL/MOL
REMARK 922        TOTAL FREE ENERGY PREDICTED BY IDOCK:   -3.59 KCAL/MOL
REMARK 923 INTER-LIGAND FREE ENERGY PREDICTED BY IDOCK:   -3.54 KCAL/MOL
REMARK 924 INTRA-LIGAND FREE ENERGY PREDICTED BY IDOCK:   -0.06 KCAL/MOL
REMARK 927      BINDING AFFINITY PREDICTED BY RF-SCORE:    0.00 PKD
ROOT
ATOM      1  CE  MET A   1     -11.453  15.549  70.450  1.00  0.00    -0.345 C  
ATOM      2  SD  MET A   1     -11.522  15.914  68.680  1.00  0.00    -0.368 SA 
ENDROOT
BRANCH   2   3
ATOM      3  CG  MET A   1      -9.736  15.909  68.316  1.00  0.00    -0.209 C  
BRANCH   3   4
ATOM      4  CB  MET A   1      -9.234  17.346  68.182  1.00  0.00    -0.270 C  
BRANCH   4   5
ATOM      5  CA  MET A   1     -10.334  18.331  67.766  1.00  0.00    -0.401 C  
ATOM      6  C   MET A   1     -10.441  18.417  66.228  1.00  0.00    -0.393 C  
ATOM      7  N   MET A   1     -10.108  19.713  68.284  1.00  0.00    -0.429 NA 
ATOM      8  O   MET A   1     -10.763  19.680  65.837  1.00  0.00    -0.492 OA 
ATOM      9  OXT MET A   1     -10.297  17.491  65.447  1.00  0.00    -0.629 OA 
ATOM     10  H1  MET A   1     -10.840  20.368  68.008  1.00  0.00     0.000 HD 
ATOM     11  H2  MET A   1      -9.189  20.058  68.011  1.00  0.00     0.000 HD 
ENDBRANCH   4   5
ENDBRANCH   3   4
ENDBRANCH   2   3
TORSDOF 3
ENDMDL
MODEL       54
REMARK 921   NORMALIZED FREE ENERGY PREDICTED BY IDOCK:   -3.00 KCAL/MOL
REMARK 922        TOTAL FREE ENERGY PREDICTED BY IDOCK:   -3.58 KCAL/MOL
REMARK 923 INTER-LIGAND FREE ENERGY PREDICTED BY IDOCK:   -3.49 KCAL/MOL
REMARK 924 INTRA-LIGAND FREE ENERGY PREDICTED BY IDOCK:   -0.09 KCAL/MOL
REMARK 927      BINDING AFFINITY PREDICTED BY RF-SCORE:    0.00 PKD
ROOT
ATOM      1  CE  MET A   1     -11.581  15.887  71.478  1.00  0.00    -0.465 C  
ATOM      2  SD  MET A   1     -11.744  14.724  70.102  1.00  0.00    -0.320 SA 
ENDROOT
BRANCH   2   3
ATOM      3  CG  MET A   1     -11.765  15.915  68.723  1.00  0.00    -0.349 C  
BRANCH   3   4
ATOM      4  CB  MET A   1     -10.606  16.900  68.875  1.00  0.00    -0.353 C  
BRANCH   4   5
ATOM      5  CA  MET A   1      -9.939  17.255  67.540  1.00  0.00    -0.296 C  
ATOM      6  C   MET A   1     -10.595  18.505  66.915  1.00  0.00    -0.365 C  
ATOM      7  N   MET A   1     -10.014  16.152  66.537  1.00  0.00    -0.265 NA 
ATOM      8  O   MET A   1     -10.620  18.409  65.558  1.00  0.00    -0.627 OA 
ATOM      9  OXT MET A   1     -11.011  19.476  67.524  1.00  0.00    -0.452 OA 
ATOM     10  H1  MET A   1      -9.571  16.388  65.649  1.00  0.00     0.000 HD 
ATOM     11  H2  MET A   1     -10.979  15.855  66.394  1.00  0.00     0.000 HD 
ENDBRANCH   4   5
ENDBRANCH   3   4
ENDBRANCH   2   3
TORSDOF 3
ENDMDL
MODEL       55
REMARK 921   NORMALIZED FREE ENERGY PREDICTED BY IDOCK:   -2.96 KCAL/MOL
REMARK 922        TOTAL FREE ENERGY PREDICTED BY IDOCK:   -3.54 KCAL/MOL
REMARK 923 INTER-LIGAND FREE ENERGY PREDICTED BY IDOCK:   -3.32 KCAL/MOL
REMARK 924 INTRA-LIGAND FREE ENERGY PREDICTED BY IDOCK:   -0.23 KCAL/MOL
REMARK 927      BINDING AFFINITY PREDICTED BY RF-SCORE:    0.00 PKD
ROOT
ATOM      1  CE  MET A   1     -10.139  10.895  64.959  1.00  0.00    -0.300 C  
ATOM      2  SD  MET A   1      -9.488  11.262  66.606  1.00  0.00    -0.190 SA 
ENDROOT
BRANCH   2   3
ATOM      3  CG  MET A   1     -10.991  11.969  67.356  1.00  0.00    -0.261 C  
BRANCH   3   4
ATOM      4  CB  MET A   1     -11.897  12.532  66.262  1.00  0.00    -0.453 C  
BRANCH   4   5
ATOM      5  CA  MET A   1     -12.153  14.038  66.409  1.00  0.00    -0.455 C  
ATOM      6  C   MET A   1     -10.960  14.853  65.867  1.00  0.00    -0.338 C  
ATOM      7  N   MET A   1     -12.386  14.456  67.823  1.00  0.00    -0.603 NA 
ATOM      8  O   MET A   1     -10.773  15.983  66.603  1.00  0.00    -0.311 OA 
ATOM      9  OXT MET A   1     -10.280  14.568  64.895  1.00  0.00    -0.405 OA 
ATOM     10  H1  MET A   1     -12.556  15.457  67.921  1.00  0.00     0.000 HD 
ATOM     11  H2  MET A   1     -11.616  14.158  68.422  1.00  0.00     0.000 HD 
ENDBRANCH   4   5
ENDBRANCH   3   4
ENDBRANCH   2   3
TORSDOF 3
ENDMDL
MODEL       56
REMARK 921   NORMALIZED FREE ENERGY PREDICTED BY IDOCK:   -2.96 KCAL/MOL
REMARK 922        TOTAL FREE ENERGY PREDICTED BY IDOCK:   -3.54 KCAL/MOL
REMARK 923 INTER-LIGAND FREE ENERGY PREDICTED BY IDOCK:   -3.47 KCAL/MOL
REMARK 924 INTRA-LIGAND FREE ENERGY PREDICTED BY IDOCK:   -0.06 KCAL/MOL
REMARK 927      BINDING AFFINITY PREDICTED BY RF-SCORE:    0.00 PKD
ROOT
ATOM      1  CE  MET A   1      -5.587  19.961  71.384  1.00  0.00    -0.351 C  
ATOM      2  SD  MET A   1      -5.700  20.350  69.621  1.00  0.00    -0.364 SA 
ENDROOT
BRANCH   2   3
ATOM      3  CG  MET A   1      -7.113  19.287  69.183  1.00  0.00    -0.335 C  
BRANCH   3   4
ATOM      4  CB  MET A   1      -7.683  19.719  67.832  1.00  0.00    -0.330 C  
BRANCH   4   5
ATOM      5  CA  MET A   1      -9.143  19.294  67.632  1.00  0.00    -0.301 C  
ATOM      6  C   MET A   1      -9.296  18.435  66.359  1.00  0.00    -0.283 C  
ATOM      7  N   MET A   1     -10.078  20.452  67.514  1.00  0.00    -0.393 NA 
ATOM      8  O   MET A   1     -10.489  18.678  65.752  1.00  0.00    -0.586 OA 
ATOM      9  OXT MET A   1      -8.490  17.617  65.946  1.00  0.00    -0.531 OA 
ATOM     10  H1  MET A   1     -11.050  20.170  67.381  1.00  0.00     0.000 HD 
ATOM     11  H2  MET A   1      -9.780  21.087  66.774  1.00  0.00     0.000 HD 
ENDBRANCH   4   5
ENDBRANCH   3   4
ENDBRANCH   2   3
TORSDOF 3
ENDMDL
MODEL       57
REMARK 921   NORMALIZED FREE ENERGY PREDICTED BY IDOCK:   -2.95 KCAL/MOL
REMARK 922        TOTAL FREE ENERGY PREDICTED BY IDOCK:   -3.52 KCAL/MOL
REMARK 923 INTER-LIGAND FREE ENERGY PREDICTED BY IDOCK:   -3.48 KCAL/MOL
REMARK 924 INTRA-LIGAND FREE ENERGY PREDICTED BY IDOCK:   -0.04 KCAL/MOL
REMARK 927      BINDING AFFINITY PREDICTED BY RF-SCORE:    0.00 PKD
ROOT
ATOM      1  CE  MET A   1     -12.429   8.416  71.829  1.00  0.00    -0.335 C  
ATOM      2  SD  MET A   1     -13.257   9.948  71.338  1.00  0.00    -0.383 SA 
ENDROOT
BRANCH   2   3
ATOM      3  CG  MET A   1     -11.808  10.881  70.748  1.00  0.00    -0.319 C  
BRANCH   3   4
ATOM      4  CB  MET A   1     -11.917  11.101  69.239  1.00  0.00    -0.421 C  
BRANCH   4   5
ATOM      5  CA  MET A   1     -11.875  12.583  68.844  1.00  0.00    -0.301 C  
ATOM      6  C   MET A   1     -11.669  12.739  67.322  1.00  0.00    -0.378 C  
ATOM      7  N   MET A   1     -10.788  13.341  69.531  1.00  0.00    -0.447 NA 
ATOM      8  O   MET A   1     -10.907  13.834  67.048  1.00  0.00    -0.281 OA 
ATOM      9  OXT MET A   1     -12.139  12.019  66.458  1.00  0.00    -0.617 OA 
ATOM     10  H1  MET A   1     -10.760  14.327  69.268  1.00  0.00     0.000 HD 
ATOM     11  H2  MET A   1      -9.882  12.898  69.378  1.00  0.00     0.000 HD 
ENDBRANCH   4   5
ENDBRANCH   3   4
ENDBRANCH   2   3
TORSDOF 3
ENDMDL
MODEL       58
REMARK 921   NORMALIZED FREE ENERGY PREDICTED BY IDOCK:   -2.94 KCAL/MOL
REMARK 922        TOTAL FREE ENERGY PREDICTED BY IDOCK:   -3.52 KCAL/MOL
REMARK 923 INTER-LIGAND FREE ENERGY PREDICTED BY IDOCK:   -3.40 KCAL/MOL
REMARK 924 INTRA-LIGAND FREE ENERGY PREDICTED BY IDOCK:   -0.12 KCAL/MOL
REMARK 927      BINDING AFFINITY PREDICTED BY RF-SCORE:    0.00 PKD
ROOT
ATOM      1  CE  MET A   1      -9.652  10.585  63.766  1.00  0.00    -0.311 C  
ATOM      2  SD  MET A   1     -11.124  11.593  63.463  1.00  0.00    -0.337 SA 
ENDROOT
BRANCH   2   3
ATOM      3  CG  MET A   1     -10.598  13.125  64.298  1.00  0.00    -0.412 C  
BRANCH   3   4
ATOM      4  CB  MET A   1     -10.358  12.847  65.782  1.00  0.00    -0.297 C  
BRANCH   4   5
ATOM      5  CA  MET A   1     -11.644  12.894  66.617  1.00  0.00    -0.372 C  
ATOM      6  C   MET A   1     -11.649  14.125  67.549  1.00  0.00    -0.367 C  
ATOM      7  N   MET A   1     -11.835  11.680  67.466  1.00  0.00    -0.624 NA 
ATOM      8  O   MET A   1     -12.262  13.835  68.728  1.00  0.00    -0.350 OA 
ATOM      9  OXT MET A   1     -11.203  15.228  67.280  1.00  0.00    -0.335 OA 
ATOM     10  H1  MET A   1     -12.690  11.712  68.021  1.00  0.00     0.000 HD 
ATOM     11  H2  MET A   1     -11.021  11.519  68.059  1.00  0.00     0.000 HD 
ENDBRANCH   4   5
ENDBRANCH   3   4
ENDBRANCH   2   3
TORSDOF 3
ENDMDL
MODEL       59
REMARK 921   NORMALIZED FREE ENERGY PREDICTED BY IDOCK:   -2.94 KCAL/MOL
REMARK 922        TOTAL FREE ENERGY PREDICTED BY IDOCK:   -3.51 KCAL/MOL
REMARK 923 INTER-LIGAND FREE ENERGY PREDICTED BY IDOCK:   -3.42 KCAL/MOL
REMARK 924 INTRA-LIGAND FREE ENERGY PREDICTED BY IDOCK:   -0.09 KCAL/MOL
REMARK 927      BINDING AFFINITY PREDICTED BY RF-SCORE:    0.00 PKD
ROOT
ATOM      1  CE  MET A   1     -11.074   7.008  72.109  1.00  0.00    -0.245 C  
ATOM      2  SD  MET A   1     -11.250   8.094  70.673  1.00  0.00    -0.240 SA 
ENDROOT
BRANCH   2   3
ATOM      3  CG  MET A   1     -11.634   9.651  71.536  1.00  0.00    -0.381 C  
BRANCH   3   4
ATOM      4  CB  MET A   1     -12.554  10.509  70.667  1.00  0.00    -0.457 C  
BRANCH   4   5
ATOM      5  CA  MET A   1     -11.798  11.308  69.598  1.00  0.00    -0.360 C  
ATOM      6  C   MET A   1     -12.137  12.811  69.696  1.00  0.00    -0.222 C  
ATOM      7  N   MET A   1     -12.106  10.861  68.207  1.00  0.00    -0.810 NA 
ATOM      8  O   MET A   1     -12.158  13.382  68.461  1.00  0.00    -0.352 OA 
ATOM      9  OXT MET A   1     -12.330  13.437  70.725  1.00  0.00    -0.353 OA 
ATOM     10  H1  MET A   1     -11.603  11.393  67.496  1.00  0.00     0.000 HD 
ATOM     11  H2  MET A   1     -13.110  10.880  68.033  1.00  0.00     0.000 HD 
ENDBRANCH   4   5
ENDBRANCH   3   4
ENDBRANCH   2   3
TORSDOF 3
ENDMDL
MODEL       60
REMARK 921   NORMALIZED FREE ENERGY PREDICTED BY IDOCK:   -2.94 KCAL/MOL
REMARK 922        TOTAL FREE ENERGY PREDICTED BY IDOCK:   -3.51 KCAL/MOL
REMARK 923 INTER-LIGAND FREE ENERGY PREDICTED BY IDOCK:   -3.38 KCAL/MOL
REMARK 924 INTRA-LIGAND FREE ENERGY PREDICTED BY IDOCK:   -0.14 KCAL/MOL
REMARK 927      BINDING AFFINITY PREDICTED BY RF-SCORE:    0.00 PKD
ROOT
ATOM      1  CE  MET A   1      -9.756   5.711  74.056  1.00  0.00    -0.172 C  
ATOM      2  SD  MET A   1     -10.471   7.103  73.151  1.00  0.00    -0.356 SA 
ENDROOT
BRANCH   2   3
ATOM      3  CG  MET A   1     -11.624   6.186  72.079  1.00  0.00    -0.310 C  
BRANCH   3   4
ATOM      4  CB  MET A   1     -12.491   7.170  71.294  1.00  0.00    -0.425 C  
BRANCH   4   5
ATOM      5  CA  MET A   1     -12.098   8.634  71.526  1.00  0.00    -0.316 C  
ATOM      6  C   MET A   1     -13.280   9.433  72.115  1.00  0.00    -0.460 C  
ATOM      7  N   MET A   1     -11.658   9.326  70.278  1.00  0.00    -0.440 NA 
ATOM      8  O   MET A   1     -13.282  10.710  71.645  1.00  0.00    -0.412 OA 
ATOM      9  OXT MET A   1     -14.097   9.016  72.919  1.00  0.00    -0.487 OA 
ATOM     10  H1  MET A   1     -11.397  10.300  70.432  1.00  0.00     0.000 HD 
ATOM     11  H2  MET A   1     -12.369   9.251  69.550  1.00  0.00     0.000 HD 
ENDBRANCH   4   5
ENDBRANCH   3   4
ENDBRANCH   2   3
TORSDOF 3
ENDMDL
MODEL       61
REMARK 921   NORMALIZED FREE ENERGY PREDICTED BY IDOCK:   -2.93 KCAL/MOL
REMARK 922        TOTAL FREE ENERGY PREDICTED BY IDOCK:   -3.51 KCAL/MOL
REMARK 923 INTER-LIGAND FREE ENERGY PREDICTED BY IDOCK:   -3.35 KCAL/MOL
REMARK 924 INTRA-LIGAND FREE ENERGY PREDICTED BY IDOCK:   -0.15 KCAL/MOL
REMARK 927      BINDING AFFINITY PREDICTED BY RF-SCORE:    0.00 PKD
ROOT
ATOM      1  CE  MET A   1     -10.782  17.894  68.039  1.00  0.00    -0.294 C  
ATOM      2  SD  MET A   1      -9.908  16.585  68.930  1.00  0.00    -0.269 SA 
ENDROOT
BRANCH   2   3
ATOM      3  CG  MET A   1     -11.131  16.264  70.242  1.00  0.00    -0.332 C  
BRANCH   3   4
ATOM      4  CB  MET A   1     -12.138  15.219  69.762  1.00  0.00    -0.357 C  
BRANCH   4   5
ATOM      5  CA  MET A   1     -11.475  13.917  69.293  1.00  0.00    -0.297 C  
ATOM      6  C   MET A   1     -11.968  13.529  67.883  1.00  0.00    -0.337 C  
ATOM      7  N   MET A   1     -11.741  12.764  70.202  1.00  0.00    -0.535 NA 
ATOM      8  O   MET A   1     -12.054  12.176  67.758  1.00  0.00    -0.508 OA 
ATOM      9  OXT MET A   1     -12.220  14.301  66.973  1.00  0.00    -0.424 OA 
ATOM     10  H1  MET A   1     -11.301  11.898  69.890  1.00  0.00     0.000 HD 
ATOM     11  H2  MET A   1     -12.743  12.633  70.340  1.00  0.00     0.000 HD 
ENDBRANCH   4   5
ENDBRANCH   3   4
ENDBRANCH   2   3
TORSDOF 3
ENDMDL
MODEL       62
REMARK 921   NORMALIZED FREE ENERGY PREDICTED BY IDOCK:   -2.93 KCAL/MOL
REMARK 922        TOTAL FREE ENERGY PREDICTED BY IDOCK:   -3.51 KCAL/MOL
REMARK 923 INTER-LIGAND FREE ENERGY PREDICTED BY IDOCK:   -3.37 KCAL/MOL
REMARK 924 INTRA-LIGAND FREE ENERGY PREDICTED BY IDOCK:   -0.14 KCAL/MOL
REMARK 927      BINDING AFFINITY PREDICTED BY RF-SCORE:    0.00 PKD
ROOT
ATOM      1  CE  MET A   1     -12.625  13.863  65.551  1.00  0.00    -0.526 C  
ATOM      2  SD  MET A   1     -11.488  12.682  66.315  1.00  0.00    -0.384 SA 
ENDROOT
BRANCH   2   3
ATOM      3  CG  MET A   1     -12.027  12.846  68.048  1.00  0.00    -0.275 C  
BRANCH   3   4
ATOM      4  CB  MET A   1     -10.910  13.480  68.876  1.00  0.00    -0.255 C  
BRANCH   4   5
ATOM      5  CA  MET A   1     -11.354  14.753  69.609  1.00  0.00    -0.283 C  
ATOM      6  C   MET A   1     -12.357  14.418  70.732  1.00  0.00    -0.347 C  
ATOM      7  N   MET A   1     -11.998  15.753  68.706  1.00  0.00    -0.546 NA 
ATOM      8  O   MET A   1     -13.286  15.404  70.860  1.00  0.00    -0.471 OA 
ATOM      9  OXT MET A   1     -12.329  13.430  71.447  1.00  0.00    -0.279 OA 
ATOM     10  H1  MET A   1     -12.293  16.599  69.193  1.00  0.00     0.000 HD 
ATOM     11  H2  MET A   1     -12.777  15.335  68.198  1.00  0.00     0.000 HD 
ENDBRANCH   4   5
ENDBRANCH   3   4
ENDBRANCH   2   3
TORSDOF 3
ENDMDL
MODEL       63
REMARK 921   NORMALIZED FREE ENERGY PREDICTED BY IDOCK:   -2.93 KCAL/MOL
REMARK 922        TOTAL FREE ENERGY PREDICTED BY IDOCK:   -3.50 KCAL/MOL
REMARK 923 INTER-LIGAND FREE ENERGY PREDICTED BY IDOCK:   -3.40 KCAL/MOL
REMARK 924 INTRA-LIGAND FREE ENERGY PREDICTED BY IDOCK:   -0.10 KCAL/MOL
REMARK 927      BINDING AFFINITY PREDICTED BY RF-SCORE:    0.00 PKD
ROOT
ATOM      1  CE  MET A   1     -12.356  12.137  63.343  1.00  0.00    -0.538 C  
ATOM      2  SD  MET A   1     -10.629  12.250  63.870  1.00  0.00    -0.461 SA 
ENDROOT
BRANCH   2   3
ATOM      3  CG  MET A   1     -10.835  11.798  65.623  1.00  0.00    -0.292 C  
BRANCH   3   4
ATOM      4  CB  MET A   1     -11.816  12.761  66.291  1.00  0.00    -0.485 C  
BRANCH   4   5
ATOM      5  CA  MET A   1     -11.148  14.046  66.795  1.00  0.00    -0.306 C  
ATOM      6  C   MET A   1     -11.668  14.421  68.199  1.00  0.00    -0.342 C  
ATOM      7  N   MET A   1     -11.379  15.216  65.897  1.00  0.00    -0.281 NA 
ATOM      8  O   MET A   1     -11.740  15.772  68.343  1.00  0.00    -0.366 OA 
ATOM      9  OXT MET A   1     -11.950  13.638  69.091  1.00  0.00    -0.329 OA 
ATOM     10  H1  MET A   1     -10.935  16.071  66.232  1.00  0.00     0.000 HD 
ATOM     11  H2  MET A   1     -12.376  15.363  65.739  1.00  0.00     0.000 HD 
ENDBRANCH   4   5
ENDBRANCH   3   4
ENDBRANCH   2   3
TORSDOF 3
ENDMDL
MODEL       64
REMARK 921   NORMALIZED FREE ENERGY PREDICTED BY IDOCK:   -2.92 KCAL/MOL
REMARK 922        TOTAL FREE ENERGY PREDICTED BY IDOCK:   -3.49 KCAL/MOL
REMARK 923 INTER-LIGAND FREE ENERGY PREDICTED BY IDOCK:   -3.34 KCAL/MOL
REMARK 924 INTRA-LIGAND FREE ENERGY PREDICTED BY IDOCK:   -0.15 KCAL/MOL
REMARK 927      BINDING AFFINITY PREDICTED BY RF-SCORE:    0.00 PKD
ROOT
ATOM      1  CE  MET A   1     -10.455   5.690  70.812  1.00  0.00    -0.265 C  
ATOM      2  SD  MET A   1     -11.487   6.291  72.171  1.00  0.00    -0.316 SA 
ENDROOT
BRANCH   2   3
ATOM      3  CG  MET A   1     -12.201   7.758  71.360  1.00  0.00    -0.319 C  
BRANCH   3   4
ATOM      4  CB  MET A   1     -11.305   8.971  71.609  1.00  0.00    -0.430 C  
BRANCH   4   5
ATOM      5  CA  MET A   1     -11.003   9.767  70.332  1.00  0.00    -0.312 C  
ATOM      6  C   MET A   1     -12.029  10.903  70.137  1.00  0.00    -0.352 C  
ATOM      7  N   MET A   1     -11.017   8.924  69.100  1.00  0.00    -0.428 NA 
ATOM      8  O   MET A   1     -12.291  11.095  68.816  1.00  0.00    -0.539 OA 
ATOM      9  OXT MET A   1     -12.530  11.576  71.023  1.00  0.00    -0.380 OA 
ATOM     10  H1  MET A   1     -10.816   9.452  68.252  1.00  0.00     0.000 HD 
ATOM     11  H2  MET A   1     -11.899   8.420  69.014  1.00  0.00     0.000 HD 
ENDBRANCH   4   5
ENDBRANCH   3   4
ENDBRANCH   2   3
TORSDOF 3
ENDMDL
MODEL       65
REMARK 921   NORMALIZED FREE ENERGY PREDICTED BY IDOCK:   -2.89 KCAL/MOL
REMARK 922        TOTAL FREE ENERGY PREDICTED BY IDOCK:   -3.45 KCAL/MOL
REMARK 923 INTER-LIGAND FREE ENERGY PREDICTED BY IDOCK:   -3.40 KCAL/MOL
REMARK 924 INTRA-LIGAND FREE ENERGY PREDICTED BY IDOCK:   -0.05 KCAL/MOL
REMARK 927      BINDING AFFINITY PREDICTED BY RF-SCORE:    0.00 PKD
ROOT
ATOM      1  CE  MET A   1     -10.485  16.789  69.267  1.00  0.00    -0.331 C  
ATOM      2  SD  MET A   1     -11.452  15.275  69.059  1.00  0.00    -0.345 SA 
ENDROOT
BRANCH   2   3
ATOM      3  CG  MET A   1     -10.763  14.711  67.469  1.00  0.00    -0.268 C  
BRANCH   3   4
ATOM      4  CB  MET A   1     -11.893  14.523  66.456  1.00  0.00    -0.367 C  
BRANCH   4   5
ATOM      5  CA  MET A   1     -11.555  13.502  65.362  1.00  0.00    -0.316 C  
ATOM      6  C   MET A   1     -11.348  12.097  65.968  1.00  0.00    -0.358 C  
ATOM      7  N   MET A   1     -10.324  13.853  64.594  1.00  0.00    -0.587 NA 
ATOM      8  O   MET A   1     -10.383  11.417  65.290  1.00  0.00    -0.259 OA 
ATOM      9  OXT MET A   1     -11.970  11.621  66.902  1.00  0.00    -0.567 OA 
ATOM     10  H1  MET A   1     -10.099  13.174  63.867  1.00  0.00     0.000 HD 
ATOM     11  H2  MET A   1      -9.531  13.990  65.221  1.00  0.00     0.000 HD 
ENDBRANCH   4   5
ENDBRANCH   3   4
ENDBRANCH   2   3
TORSDOF 3
ENDMDL
MODEL       66
REMARK 921   NORMALIZED FREE ENERGY PREDICTED BY IDOCK:   -2.87 KCAL/MOL
REMARK 922        TOTAL FREE ENERGY PREDICTED BY IDOCK:   -3.44 KCAL/MOL
REMARK 923 INTER-LIGAND FREE ENERGY PREDICTED BY IDOCK:   -3.36 KCAL/MOL
REMARK 924 INTRA-LIGAND FREE ENERGY PREDICTED BY IDOCK:   -0.08 KCAL/MOL
REMARK 927      BINDING AFFINITY PREDICTED BY RF-SCORE:    0.00 PKD
ROOT
ATOM      1  CE  MET A   1      -9.856  18.903  68.715  1.00  0.00    -0.404 C  
ATOM      2  SD  MET A   1     -10.310  17.687  67.455  1.00  0.00    -0.358 SA 
ENDROOT
BRANCH   2   3
ATOM      3  CG  MET A   1     -11.132  16.461  68.523  1.00  0.00    -0.357 C  
BRANCH   3   4
ATOM      4  CB  MET A   1     -10.683  15.053  68.131  1.00  0.00    -0.256 C  
BRANCH   4   5
ATOM      5  CA  MET A   1     -11.812  14.209  67.525  1.00  0.00    -0.401 C  
ATOM      6  C   MET A   1     -11.697  12.737  67.973  1.00  0.00    -0.356 C  
ATOM      7  N   MET A   1     -11.822  14.232  66.032  1.00  0.00    -0.381 NA 
ATOM      8  O   MET A   1     -12.096  11.897  66.979  1.00  0.00    -0.600 OA 
ATOM      9  OXT MET A   1     -11.336  12.348  69.071  1.00  0.00    -0.249 OA 
ATOM     10  H1  MET A   1     -12.572  13.670  65.629  1.00  0.00     0.000 HD 
ATOM     11  H2  MET A   1     -10.916  13.950  65.658  1.00  0.00     0.000 HD 
ENDBRANCH   4   5
ENDBRANCH   3   4
ENDBRANCH   2   3
TORSDOF 3
ENDMDL
MODEL       67
REMARK 921   NORMALIZED FREE ENERGY PREDICTED BY IDOCK:   -2.86 KCAL/MOL
REMARK 922        TOTAL FREE ENERGY PREDICTED BY IDOCK:   -3.42 KCAL/MOL
REMARK 923 INTER-LIGAND FREE ENERGY PREDICTED BY IDOCK:   -3.35 KCAL/MOL
REMARK 924 INTRA-LIGAND FREE ENERGY PREDICTED BY IDOCK:   -0.07 KCAL/MOL
REMARK 927      BINDING AFFINITY PREDICTED BY RF-SCORE:    0.00 PKD
ROOT
ATOM      1  CE  MET A   1      -9.032  10.426  68.871  1.00  0.00    -0.169 C  
ATOM      2  SD  MET A   1     -10.448   9.325  69.106  1.00  0.00    -0.211 SA 
ENDROOT
BRANCH   2   3
ATOM      3  CG  MET A   1      -9.950   8.550  70.678  1.00  0.00    -0.189 C  
BRANCH   3   4
ATOM      4  CB  MET A   1     -10.868   9.031  71.802  1.00  0.00    -0.437 C  
BRANCH   4   5
ATOM      5  CA  MET A   1     -12.311   8.530  71.657  1.00  0.00    -0.326 C  
ATOM      6  C   MET A   1     -13.308   9.549  72.247  1.00  0.00    -0.441 C  
ATOM      7  N   MET A   1     -12.545   7.219  72.332  1.00  0.00    -0.505 NA 
ATOM      8  O   MET A   1     -14.366   8.913  72.820  1.00  0.00    -0.600 OA 
ATOM      9  OXT MET A   1     -13.207  10.764  72.193  1.00  0.00    -0.473 OA 
ATOM     10  H1  MET A   1     -13.505   6.886  72.235  1.00  0.00     0.000 HD 
ATOM     11  H2  MET A   1     -12.272   7.262  73.314  1.00  0.00     0.000 HD 
ENDBRANCH   4   5
ENDBRANCH   3   4
ENDBRANCH   2   3
TORSDOF 3
ENDMDL
MODEL       68
REMARK 921   NORMALIZED FREE ENERGY PREDICTED BY IDOCK:   -2.84 KCAL/MOL
REMARK 922        TOTAL FREE ENERGY PREDICTED BY IDOCK:   -3.40 KCAL/MOL
REMARK 923 INTER-LIGAND FREE ENERGY PREDICTED BY IDOCK:   -3.33 KCAL/MOL
REMARK 924 INTRA-LIGAND FREE ENERGY PREDICTED BY IDOCK:   -0.07 KCAL/MOL
REMARK 927      BINDING AFFINITY PREDICTED BY RF-SCORE:    0.00 PKD
ROOT
ATOM      1  CE  MET A   1     -11.822  15.186  69.396  1.00  0.00    -0.330 C  
ATOM      2  SD  MET A   1     -10.865  13.967  68.462  1.00  0.00    -0.261 SA 
ENDROOT
BRANCH   2   3
ATOM      3  CG  MET A   1     -11.617  14.210  66.821  1.00  0.00    -0.391 C  
BRANCH   3   4
ATOM      4  CB  MET A   1     -10.577  13.943  65.733  1.00  0.00    -0.300 C  
BRANCH   4   5
ATOM      5  CA  MET A   1     -10.162  15.210  64.975  1.00  0.00    -0.297 C  
ATOM      6  C   MET A   1      -9.290  16.122  65.864  1.00  0.00    -0.281 C  
ATOM      7  N   MET A   1     -11.326  16.016  64.500  1.00  0.00    -0.711 NA 
ATOM      8  O   MET A   1      -9.537  17.434  65.599  1.00  0.00    -0.519 OA 
ATOM      9  OXT MET A   1      -8.461  15.749  66.678  1.00  0.00    -0.239 OA 
ATOM     10  H1  MET A   1     -11.050  16.858  63.995  1.00  0.00     0.000 HD 
ATOM     11  H2  MET A   1     -11.951  16.243  65.273  1.00  0.00     0.000 HD 
ENDBRANCH   4   5
ENDBRANCH   3   4
ENDBRANCH   2   3
TORSDOF 3
ENDMDL
MODEL       69
REMARK 921   NORMALIZED FREE ENERGY PREDICTED BY IDOCK:   -2.82 KCAL/MOL
REMARK 922        TOTAL FREE ENERGY PREDICTED BY IDOCK:   -3.38 KCAL/MOL
REMARK 923 INTER-LIGAND FREE ENERGY PREDICTED BY IDOCK:   -3.31 KCAL/MOL
REMARK 924 INTRA-LIGAND FREE ENERGY PREDICTED BY IDOCK:   -0.06 KCAL/MOL
REMARK 927      BINDING AFFINITY PREDICTED BY RF-SCORE:    0.00 PKD
ROOT
ATOM      1  CE  MET A   1      -9.035  18.579  68.323  1.00  0.00    -0.310 C  
ATOM      2  SD  MET A   1      -9.047  16.781  68.526  1.00  0.00    -0.246 SA 
ENDROOT
BRANCH   2   3
ATOM      3  CG  MET A   1     -10.848  16.507  68.550  1.00  0.00    -0.349 C  
BRANCH   3   4
ATOM      4  CB  MET A   1     -11.278  16.028  69.936  1.00  0.00    -0.361 C  
BRANCH   4   5
ATOM      5  CA  MET A   1     -12.072  14.716  69.899  1.00  0.00    -0.335 C  
ATOM      6  C   MET A   1     -13.165  14.704  70.989  1.00  0.00    -0.374 C  
ATOM      7  N   MET A   1     -11.216  13.508  70.099  1.00  0.00    -0.463 NA 
ATOM      8  O   MET A   1     -13.334  13.450  71.489  1.00  0.00    -0.337 OA 
ATOM      9  OXT MET A   1     -13.827  15.663  71.349  1.00  0.00    -0.537 OA 
ATOM     10  H1  MET A   1     -11.744  12.636  70.075  1.00  0.00     0.000 HD 
ATOM     11  H2  MET A   1     -10.678  13.583  70.962  1.00  0.00     0.000 HD 
ENDBRANCH   4   5
ENDBRANCH   3   4
ENDBRANCH   2   3
TORSDOF 3
ENDMDL
MODEL       70
REMARK 921   NORMALIZED FREE ENERGY PREDICTED BY IDOCK:   -2.79 KCAL/MOL
REMARK 922        TOTAL FREE ENERGY PREDICTED BY IDOCK:   -3.34 KCAL/MOL
REMARK 923 INTER-LIGAND FREE ENERGY PREDICTED BY IDOCK:   -3.30 KCAL/MOL
REMARK 924 INTRA-LIGAND FREE ENERGY PREDICTED BY IDOCK:   -0.05 KCAL/MOL
REMARK 927      BINDING AFFINITY PREDICTED BY RF-SCORE:    0.00 PKD
ROOT
ATOM      1  CE  MET A   1     -12.727  15.135  73.533  1.00  0.00    -0.547 C  
ATOM      2  SD  MET A   1     -13.065  13.999  72.167  1.00  0.00    -0.427 SA 
ENDROOT
BRANCH   2   3
ATOM      3  CG  MET A   1     -12.837  15.150  70.774  1.00  0.00    -0.416 C  
BRANCH   3   4
ATOM      4  CB  MET A   1     -11.819  14.573  69.791  1.00  0.00    -0.367 C  
BRANCH   4   5
ATOM      5  CA  MET A   1     -11.927  15.183  68.387  1.00  0.00    -0.187 C  
ATOM      6  C   MET A   1     -11.514  14.157  67.310  1.00  0.00    -0.350 C  
ATOM      7  N   MET A   1     -11.076  16.397  68.210  1.00  0.00    -0.352 NA 
ATOM      8  O   MET A   1     -10.881  14.773  66.274  1.00  0.00    -0.309 OA 
ATOM      9  OXT MET A   1     -11.739  12.959  67.338  1.00  0.00    -0.340 OA 
ATOM     10  H1  MET A   1     -11.147  16.802  67.276  1.00  0.00     0.000 HD 
ATOM     11  H2  MET A   1     -10.104  16.198  68.446  1.00  0.00     0.000 HD 
ENDBRANCH   4   5
ENDBRANCH   3   4
ENDBRANCH   2   3
TORSDOF 3
ENDMDL
MODEL       71
REMARK 921   NORMALIZED FREE ENERGY PREDICTED BY IDOCK:   -2.78 KCAL/MOL
REMARK 922        TOTAL FREE ENERGY PREDICTED BY IDOCK:   -3.33 KCAL/MOL
REMARK 923 INTER-LIGAND FREE ENERGY PREDICTED BY IDOCK:   -3.22 KCAL/MOL
REMARK 924 INTRA-LIGAND FREE ENERGY PREDICTED BY IDOCK:   -0.12 KCAL/MOL
REMARK 927      BINDING AFFINITY PREDICTED BY RF-SCORE:    0.00 PKD
ROOT
ATOM      1  CE  MET A   1      -8.957  10.387  63.403  1.00  0.00    -0.229 C  
ATOM      2  SD  MET A   1     -10.047  10.642  64.825  1.00  0.00    -0.332 SA 
ENDROOT
BRANCH   2   3
ATOM      3  CG  MET A   1     -11.281  11.733  64.048  1.00  0.00    -0.385 C  
BRANCH   3   4
ATOM      4  CB  MET A   1     -10.850  13.191  64.203  1.00  0.00    -0.407 C  
BRANCH   4   5
ATOM      5  CA  MET A   1     -10.484  13.559  65.646  1.00  0.00    -0.293 C  
ATOM      6  C   MET A   1     -11.682  14.213  66.367  1.00  0.00    -0.390 C  
ATOM      7  N   MET A   1      -9.329  14.502  65.735  1.00  0.00    -0.531 NA 
ATOM      8  O   MET A   1     -11.259  15.172  67.235  1.00  0.00    -0.329 OA 
ATOM      9  OXT MET A   1     -12.855  13.911  66.224  1.00  0.00    -0.320 OA 
ATOM     10  H1  MET A   1      -9.086  14.747  66.695  1.00  0.00     0.000 HD 
ATOM     11  H2  MET A   1      -9.500  15.340  65.178  1.00  0.00     0.000 HD 
ENDBRANCH   4   5
ENDBRANCH   3   4
ENDBRANCH   2   3
TORSDOF 3
ENDMDL
MODEL       72
REMARK 921   NORMALIZED FREE ENERGY PREDICTED BY IDOCK:   -2.78 KCAL/MOL
REMARK 922        TOTAL FREE ENERGY PREDICTED BY IDOCK:   -3.33 KCAL/MOL
REMARK 923 INTER-LIGAND FREE ENERGY PREDICTED BY IDOCK:   -3.18 KCAL/MOL
REMARK 924 INTRA-LIGAND FREE ENERGY PREDICTED BY IDOCK:   -0.14 KCAL/MOL
REMARK 927      BINDING AFFINITY PREDICTED BY RF-SCORE:    0.00 PKD
ROOT
ATOM      1  CE  MET A   1      -6.950  20.064  68.651  1.00  0.00    -0.284 C  
ATOM      2  SD  MET A   1      -6.069  19.049  67.441  1.00  0.00    -0.178 SA 
ENDROOT
BRANCH   2   3
ATOM      3  CG  MET A   1      -7.335  19.002  66.131  1.00  0.00    -0.270 C  
BRANCH   3   4
ATOM      4  CB  MET A   1      -8.564  19.794  66.575  1.00  0.00    -0.396 C  
BRANCH   4   5
ATOM      5  CA  MET A   1      -9.860  18.975  66.516  1.00  0.00    -0.369 C  
ATOM      6  C   MET A   1     -10.359  18.634  67.936  1.00  0.00    -0.398 C  
ATOM      7  N   MET A   1      -9.709  17.693  65.766  1.00  0.00    -0.538 NA 
ATOM      8  O   MET A   1     -10.942  17.405  67.960  1.00  0.00    -0.341 OA 
ATOM      9  OXT MET A   1     -10.286  19.358  68.914  1.00  0.00    -0.410 OA 
ATOM     10  H1  MET A   1     -10.570  17.148  65.727  1.00  0.00     0.000 HD 
ATOM     11  H2  MET A   1      -8.944  17.136  66.148  1.00  0.00     0.000 HD 
ENDBRANCH   4   5
ENDBRANCH   3   4
ENDBRANCH   2   3
TORSDOF 3
ENDMDL
MODEL       73
REMARK 921   NORMALIZED FREE ENERGY PREDICTED BY IDOCK:   -2.76 KCAL/MOL
REMARK 922        TOTAL FREE ENERGY PREDICTED BY IDOCK:   -3.30 KCAL/MOL
REMARK 923 INTER-LIGAND FREE ENERGY PREDICTED BY IDOCK:   -3.19 KCAL/MOL
REMARK 924 INTRA-LIGAND FREE ENERGY PREDICTED BY IDOCK:   -0.12 KCAL/MOL
REMARK 927      BINDING AFFINITY PREDICTED BY RF-SCORE:    0.00 PKD
ROOT
ATOM      1  CE  MET A   1     -10.261  16.599  67.737  1.00  0.00    -0.292 C  
ATOM      2  SD  MET A   1     -11.514  15.495  68.431  1.00  0.00    -0.352 SA 
ENDROOT
BRANCH   2   3
ATOM      3  CG  MET A   1     -11.306  14.080  67.303  1.00  0.00    -0.330 C  
BRANCH   3   4
ATOM      4  CB  MET A   1     -10.782  12.873  68.081  1.00  0.00    -0.258 C  
BRANCH   4   5
ATOM      5  CA  MET A   1     -11.879  11.858  68.426  1.00  0.00    -0.289 C  
ATOM      6  C   MET A   1     -12.140  11.827  69.946  1.00  0.00    -0.287 C  
ATOM      7  N   MET A   1     -11.546  10.468  67.992  1.00  0.00    -0.716 NA 
ATOM      8  O   MET A   1     -12.451  10.567  70.357  1.00  0.00    -0.309 OA 
ATOM      9  OXT MET A   1     -12.114  12.787  70.698  1.00  0.00    -0.353 OA 
ATOM     10  H1  MET A   1     -12.276   9.793  68.221  1.00  0.00     0.000 HD 
ATOM     11  H2  MET A   1     -10.647  10.174  68.372  1.00  0.00     0.000 HD 
ENDBRANCH   4   5
ENDBRANCH   3   4
ENDBRANCH   2   3
TORSDOF 3
ENDMDL
MODEL       74
REMARK 921   NORMALIZED FREE ENERGY PREDICTED BY IDOCK:   -2.74 KCAL/MOL
REMARK 922        TOTAL FREE ENERGY PREDICTED BY IDOCK:   -3.28 KCAL/MOL
REMARK 923 INTER-LIGAND FREE ENERGY PREDICTED BY IDOCK:   -3.16 KCAL/MOL
REMARK 924 INTRA-LIGAND FREE ENERGY PREDICTED BY IDOCK:   -0.11 KCAL/MOL
REMARK 927      BINDING AFFINITY PREDICTED BY RF-SCORE:    0.00 PKD
ROOT
ATOM      1  CE  MET A   1     -10.344   6.389  73.709  1.00  0.00    -0.311 C  
ATOM      2  SD  MET A   1      -9.285   7.814  73.361  1.00  0.00    -0.293 SA 
ENDROOT
BRANCH   2   3
ATOM      3  CG  MET A   1      -9.725   8.079  71.613  1.00  0.00    -0.171 C  
BRANCH   3   4
ATOM      4  CB  MET A   1     -10.656   9.285  71.494  1.00  0.00    -0.405 C  
BRANCH   4   5
ATOM      5  CA  MET A   1     -12.010   8.939  70.861  1.00  0.00    -0.213 C  
ATOM      6  C   MET A   1     -13.160   9.658  71.597  1.00  0.00    -0.412 C  
ATOM      7  N   MET A   1     -12.306   7.475  70.875  1.00  0.00    -0.515 NA 
ATOM      8  O   MET A   1     -14.276   8.879  71.628  1.00  0.00    -0.361 OA 
ATOM      9  OXT MET A   1     -13.117  10.782  72.068  1.00  0.00    -0.483 OA 
ATOM     10  H1  MET A   1     -13.206   7.245  70.454  1.00  0.00     0.000 HD 
ATOM     11  H2  MET A   1     -12.239   7.100  71.821  1.00  0.00     0.000 HD 
ENDBRANCH   4   5
ENDBRANCH   3   4
ENDBRANCH   2   3
TORSDOF 3
ENDMDL
MODEL       75
REMARK 921   NORMALIZED FREE ENERGY PREDICTED BY IDOCK:   -2.73 KCAL/MOL
REMARK 922        TOTAL FREE ENERGY PREDICTED BY IDOCK:   -3.27 KCAL/MOL
REMARK 923 INTER-LIGAND FREE ENERGY PREDICTED BY IDOCK:   -3.18 KCAL/MOL
REMARK 924 INTRA-LIGAND FREE ENERGY PREDICTED BY IDOCK:   -0.09 KCAL/MOL
REMARK 927      BINDING AFFINITY PREDICTED BY RF-SCORE:    0.00 PKD
ROOT
ATOM      1  CE  MET A   1      -8.546  16.089  66.521  1.00  0.00    -0.309 C  
ATOM      2  SD  MET A   1      -9.775  16.475  67.791  1.00  0.00    -0.238 SA 
ENDROOT
BRANCH   2   3
ATOM      3  CG  MET A   1     -11.248  15.762  66.991  1.00  0.00    -0.082 C  
BRANCH   3   4
ATOM      4  CB  MET A   1     -10.911  14.380  66.431  1.00  0.00    -0.319 C  
BRANCH   4   5
ATOM      5  CA  MET A   1     -11.989  13.330  66.732  1.00  0.00    -0.382 C  
ATOM      6  C   MET A   1     -11.620  12.507  67.983  1.00  0.00    -0.342 C  
ATOM      7  N   MET A   1     -12.205  12.375  65.605  1.00  0.00    -0.626 NA 
ATOM      8  O   MET A   1     -12.035  11.217  67.853  1.00  0.00    -0.630 OA 
ATOM      9  OXT MET A   1     -11.063  12.932  68.982  1.00  0.00    -0.251 OA 
ATOM     10  H1  MET A   1     -12.922  11.677  65.805  1.00  0.00     0.000 HD 
ATOM     11  H2  MET A   1     -11.329  11.929  65.333  1.00  0.00     0.000 HD 
ENDBRANCH   4   5
ENDBRANCH   3   4
ENDBRANCH   2   3
TORSDOF 3
ENDMDL
MODEL       76
REMARK 921   NORMALIZED FREE ENERGY PREDICTED BY IDOCK:   -2.72 KCAL/MOL
REMARK 922        TOTAL FREE ENERGY PREDICTED BY IDOCK:   -3.26 KCAL/MOL
REMARK 923 INTER-LIGAND FREE ENERGY PREDICTED BY IDOCK:   -3.22 KCAL/MOL
REMARK 924 INTRA-LIGAND FREE ENERGY PREDICTED BY IDOCK:   -0.04 KCAL/MOL
REMARK 927      BINDING AFFINITY PREDICTED BY RF-SCORE:    0.00 PKD
ROOT
ATOM      1  CE  MET A   1     -11.372  11.725  64.027  1.00  0.00    -0.381 C  
ATOM      2  SD  MET A   1     -11.871  13.439  63.739  1.00  0.00    -0.382 SA 
ENDROOT
BRANCH   2   3
ATOM      3  CG  MET A   1     -12.549  13.821  65.386  1.00  0.00    -0.497 C  
BRANCH   3   4
ATOM      4  CB  MET A   1     -11.413  13.890  66.407  1.00  0.00    -0.354 C  
BRANCH   4   5
ATOM      5  CA  MET A   1     -11.651  14.937  67.502  1.00  0.00    -0.339 C  
ATOM      6  C   MET A   1     -10.314  15.525  68.000  1.00  0.00    -0.247 C  
ATOM      7  N   MET A   1     -12.378  14.391  68.687  1.00  0.00    -0.584 NA 
ATOM      8  O   MET A   1     -10.374  15.801  69.331  1.00  0.00    -0.224 OA 
ATOM      9  OXT MET A   1      -9.332  15.754  67.314  1.00  0.00    -0.207 OA 
ATOM     10  H1  MET A   1     -12.536  15.087  69.415  1.00  0.00     0.000 HD 
ATOM     11  H2  MET A   1     -11.897  13.574  69.063  1.00  0.00     0.000 HD 
ENDBRANCH   4   5
ENDBRANCH   3   4
ENDBRANCH   2   3
TORSDOF 3
ENDMDL
MODEL       77
REMARK 921   NORMALIZED FREE ENERGY PREDICTED BY IDOCK:   -2.72 KCAL/MOL
REMARK 922        TOTAL FREE ENERGY PREDICTED BY IDOCK:   -3.25 KCAL/MOL
REMARK 923 INTER-LIGAND FREE ENERGY PREDICTED BY IDOCK:   -3.20 KCAL/MOL
REMARK 924 INTRA-LIGAND FREE ENERGY PREDICTED BY IDOCK:   -0.06 KCAL/MOL
REMARK 927      BINDING AFFINITY PREDICTED BY RF-SCORE:    0.00 PKD
ROOT
ATOM      1  CE  MET A   1     -11.953  14.525  69.144  1.00  0.00    -0.309 C  
ATOM      2  SD  MET A   1     -10.895  13.433  68.163  1.00  0.00    -0.264 SA 
ENDROOT
BRANCH   2   3
ATOM      3  CG  MET A   1     -11.777  11.862  68.435  1.00  0.00    -0.326 C  
BRANCH   3   4
ATOM      4  CB  MET A   1     -11.800  11.535  69.928  1.00  0.00    -0.430 C  
BRANCH   4   5
ATOM      5  CA  MET A   1     -11.371  10.094  70.235  1.00  0.00    -0.315 C  
ATOM      6  C   MET A   1     -11.972   9.616  71.573  1.00  0.00    -0.406 C  
ATOM      7  N   MET A   1      -9.890   9.929  70.315  1.00  0.00    -0.365 NA 
ATOM      8  O   MET A   1     -11.108   8.789  72.222  1.00  0.00    -0.359 OA 
ATOM      9  OXT MET A   1     -13.079   9.896  72.002  1.00  0.00    -0.423 OA 
ATOM     10  H1  MET A   1      -9.604   8.971  70.519  1.00  0.00     0.000 HD 
ATOM     11  H2  MET A   1      -9.487  10.580  70.990  1.00  0.00     0.000 HD 
ENDBRANCH   4   5
ENDBRANCH   3   4
ENDBRANCH   2   3
TORSDOF 3
ENDMDL
MODEL       78
REMARK 921   NORMALIZED FREE ENERGY PREDICTED BY IDOCK:   -2.71 KCAL/MOL
REMARK 922        TOTAL FREE ENERGY PREDICTED BY IDOCK:   -3.25 KCAL/MOL
REMARK 923 INTER-LIGAND FREE ENERGY PREDICTED BY IDOCK:   -3.17 KCAL/MOL
REMARK 924 INTRA-LIGAND FREE ENERGY PREDICTED BY IDOCK:   -0.08 KCAL/MOL
REMARK 927      BINDING AFFINITY PREDICTED BY RF-SCORE:    0.00 PKD
ROOT
ATOM      1  CE  MET A   1      -9.295   8.269  69.753  1.00  0.00    -0.158 C  
ATOM      2  SD  MET A   1     -10.402   7.331  68.673  1.00  0.00    -0.192 SA 
ENDROOT
BRANCH   2   3
ATOM      3  CG  MET A   1     -11.264   6.341  69.938  1.00  0.00    -0.429 C  
BRANCH   3   4
ATOM      4  CB  MET A   1     -11.594   7.221  71.143  1.00  0.00    -0.323 C  
BRANCH   4   5
ATOM      5  CA  MET A   1     -13.082   7.579  71.237  1.00  0.00    -0.266 C  
ATOM      6  C   MET A   1     -13.271   8.987  71.841  1.00  0.00    -0.405 C  
ATOM      7  N   MET A   1     -13.864   6.618  72.070  1.00  0.00    -0.425 NA 
ATOM      8  O   MET A   1     -14.394   9.036  72.608  1.00  0.00    -0.603 OA 
ATOM      9  OXT MET A   1     -12.551   9.952  71.649  1.00  0.00    -0.365 OA 
ATOM     10  H1  MET A   1     -14.854   6.856  72.132  1.00  0.00     0.000 HD 
ATOM     11  H2  MET A   1     -13.454   6.523  72.999  1.00  0.00     0.000 HD 
ENDBRANCH   4   5
ENDBRANCH   3   4
ENDBRANCH   2   3
TORSDOF 3
ENDMDL
MODEL       79
REMARK 921   NORMALIZED FREE ENERGY PREDICTED BY IDOCK:   -2.71 KCAL/MOL
REMARK 922        TOTAL FREE ENERGY PREDICTED BY IDOCK:   -3.24 KCAL/MOL
REMARK 923 INTER-LIGAND FREE ENERGY PREDICTED BY IDOCK:   -3.15 KCAL/MOL
REMARK 924 INTRA-LIGAND FREE ENERGY PREDICTED BY IDOCK:   -0.09 KCAL/MOL
REMARK 927      BINDING AFFINITY PREDICTED BY RF-SCORE:    0.00 PKD
ROOT
ATOM      1  CE  MET A   1     -10.485  10.366  68.994  1.00  0.00    -0.219 C  
ATOM      2  SD  MET A   1     -11.768  11.621  69.222  1.00  0.00    -0.349 SA 
ENDROOT
BRANCH   2   3
ATOM      3  CG  MET A   1     -12.553  10.958  70.726  1.00  0.00    -0.377 C  
BRANCH   3   4
ATOM      4  CB  MET A   1     -11.638   9.916  71.368  1.00  0.00    -0.428 C  
BRANCH   4   5
ATOM      5  CA  MET A   1     -12.407   8.749  72.002  1.00  0.00    -0.377 C  
ATOM      6  C   MET A   1     -11.537   7.475  72.042  1.00  0.00    -0.287 C  
ATOM      7  N   MET A   1     -13.668   8.417  71.275  1.00  0.00    -0.567 NA 
ATOM      8  O   MET A   1     -12.299   6.364  71.851  1.00  0.00    -0.345 OA 
ATOM      9  OXT MET A   1     -10.335   7.435  72.247  1.00  0.00    -0.201 OA 
ATOM     10  H1  MET A   1     -14.180   7.641  71.697  1.00  0.00     0.000 HD 
ATOM     11  H2  MET A   1     -13.483   8.237  70.289  1.00  0.00     0.000 HD 
ENDBRANCH   4   5
ENDBRANCH   3   4
ENDBRANCH   2   3
TORSDOF 3
ENDMDL
MODEL       80
REMARK 921   NORMALIZED FREE ENERGY PREDICTED BY IDOCK:   -2.70 KCAL/MOL
REMARK 922        TOTAL FREE ENERGY PREDICTED BY IDOCK:   -3.24 KCAL/MOL
REMARK 923 INTER-LIGAND FREE ENERGY PREDICTED BY IDOCK:   -2.99 KCAL/MOL
REMARK 924 INTRA-LIGAND FREE ENERGY PREDICTED BY IDOCK:   -0.25 KCAL/MOL
REMARK 927      BINDING AFFINITY PREDICTED BY RF-SCORE:    0.00 PKD
ROOT
ATOM      1  CE  MET A   1      -6.558  16.388  67.751  1.00  0.00    -0.139 C  
ATOM      2  SD  MET A   1      -6.882  17.473  69.162  1.00  0.00    -0.196 SA 
ENDROOT
BRANCH   2   3
ATOM      3  CG  MET A   1      -6.798  19.082  68.310  1.00  0.00    -0.246 C  
BRANCH   3   4
ATOM      4  CB  MET A   1      -8.204  19.667  68.175  1.00  0.00    -0.348 C  
BRANCH   4   5
ATOM      5  CA  MET A   1      -8.807  19.465  66.779  1.00  0.00    -0.327 C  
ATOM      6  C   MET A   1      -9.825  18.305  66.783  1.00  0.00    -0.341 C  
ATOM      7  N   MET A   1      -7.781  19.167  65.736  1.00  0.00    -0.459 NA 
ATOM      8  O   MET A   1      -9.788  17.626  65.604  1.00  0.00    -0.536 OA 
ATOM      9  OXT MET A   1     -10.593  18.029  67.689  1.00  0.00    -0.400 OA 
ATOM     10  H1  MET A   1      -8.182  19.033  64.807  1.00  0.00     0.000 HD 
ATOM     11  H2  MET A   1      -7.211  18.366  66.004  1.00  0.00     0.000 HD 
ENDBRANCH   4   5
ENDBRANCH   3   4
ENDBRANCH   2   3
TORSDOF 3
ENDMDL
MODEL       81
REMARK 921   NORMALIZED FREE ENERGY PREDICTED BY IDOCK:   -2.70 KCAL/MOL
REMARK 922        TOTAL FREE ENERGY PREDICTED BY IDOCK:   -3.24 KCAL/MOL
REMARK 923 INTER-LIGAND FREE ENERGY PREDICTED BY IDOCK:   -3.12 KCAL/MOL
REMARK 924 INTRA-LIGAND FREE ENERGY PREDICTED BY IDOCK:   -0.11 KCAL/MOL
REMARK 927      BINDING AFFINITY PREDICTED BY RF-SCORE:    0.00 PKD
ROOT
ATOM      1  CE  MET A   1      -8.226  15.457  69.220  1.00  0.00    -0.252 C  
ATOM      2  SD  MET A   1      -9.500  16.631  68.699  1.00  0.00    -0.256 SA 
ENDROOT
BRANCH   2   3
ATOM      3  CG  MET A   1     -10.321  15.617  67.427  1.00  0.00    -0.275 C  
BRANCH   3   4
ATOM      4  CB  MET A   1     -11.449  14.805  68.064  1.00  0.00    -0.351 C  
BRANCH   4   5
ATOM      5  CA  MET A   1     -11.092  13.325  68.253  1.00  0.00    -0.266 C  
ATOM      6  C   MET A   1     -11.851  12.444  67.239  1.00  0.00    -0.287 C  
ATOM      7  N   MET A   1     -11.406  12.818  69.622  1.00  0.00    -0.478 NA 
ATOM      8  O   MET A   1     -12.181  11.245  67.793  1.00  0.00    -0.504 OA 
ATOM      9  OXT MET A   1     -12.106  12.739  66.083  1.00  0.00    -0.455 OA 
ATOM     10  H1  MET A   1     -11.168  11.834  69.748  1.00  0.00     0.000 HD 
ATOM     11  H2  MET A   1     -12.383  12.990  69.859  1.00  0.00     0.000 HD 
ENDBRANCH   4   5
ENDBRANCH   3   4
ENDBRANCH   2   3
TORSDOF 3
ENDMDL
MODEL       82
REMARK 921   NORMALIZED FREE ENERGY PREDICTED BY IDOCK:   -2.69 KCAL/MOL
REMARK 922        TOTAL FREE ENERGY PREDICTED BY IDOCK:   -3.23 KCAL/MOL
REMARK 923 INTER-LIGAND FREE ENERGY PREDICTED BY IDOCK:   -3.19 KCAL/MOL
REMARK 924 INTRA-LIGAND FREE ENERGY PREDICTED BY IDOCK:   -0.03 KCAL/MOL
REMARK 927      BINDING AFFINITY PREDICTED BY RF-SCORE:    0.00 PKD
ROOT
ATOM      1  CE  MET A   1      -8.894  14.110  67.111  1.00  0.00    -0.229 C  
ATOM      2  SD  MET A   1     -10.191  14.672  65.981  1.00  0.00    -0.328 SA 
ENDROOT
BRANCH   2   3
ATOM      3  CG  MET A   1     -11.642  14.005  66.858  1.00  0.00    -0.386 C  
BRANCH   3   4
ATOM      4  CB  MET A   1     -11.834  12.533  66.492  1.00  0.00    -0.434 C  
BRANCH   4   5
ATOM      5  CA  MET A   1     -11.254  11.573  67.538  1.00  0.00    -0.298 C  
ATOM      6  C   MET A   1     -10.593  10.355  66.859  1.00  0.00    -0.230 C  
ATOM      7  N   MET A   1     -12.280  11.060  68.494  1.00  0.00    -0.781 NA 
ATOM      8  O   MET A   1     -10.766   9.232  67.608  1.00  0.00    -0.269 OA 
ATOM      9  OXT MET A   1      -9.965  10.371  65.814  1.00  0.00    -0.240 OA 
ATOM     10  H1  MET A   1     -11.895  10.422  69.190  1.00  0.00     0.000 HD 
ATOM     11  H2  MET A   1     -13.058  10.628  67.995  1.00  0.00     0.000 HD 
ENDBRANCH   4   5
ENDBRANCH   3   4
ENDBRANCH   2   3
TORSDOF 3
ENDMDL
MODEL       83
REMARK 921   NORMALIZED FREE ENERGY PREDICTED BY IDOCK:   -2.69 KCAL/MOL
REMARK 922        TOTAL FREE ENERGY PREDICTED BY IDOCK:   -3.22 KCAL/MOL
REMARK 923 INTER-LIGAND FREE ENERGY PREDICTED BY IDOCK:   -3.13 KCAL/MOL
REMARK 924 INTRA-LIGAND FREE ENERGY PREDICTED BY IDOCK:   -0.08 KCAL/MOL
REMARK 927      BINDING AFFINITY PREDICTED BY RF-SCORE:    0.00 PKD
ROOT
ATOM      1  CE  MET A   1     -10.456  13.009  65.241  1.00  0.00    -0.304 C  
ATOM      2  SD  MET A   1     -11.173  12.678  66.869  1.00  0.00    -0.319 SA 
ENDROOT
BRANCH   2   3
ATOM      3  CG  MET A   1     -11.132  14.368  67.549  1.00  0.00    -0.302 C  
BRANCH   3   4
ATOM      4  CB  MET A   1     -10.750  14.319  69.028  1.00  0.00    -0.259 C  
BRANCH   4   5
ATOM      5  CA  MET A   1     -11.956  14.108  69.953  1.00  0.00    -0.338 C  
ATOM      6  C   MET A   1     -11.919  15.097  71.137  1.00  0.00    -0.333 C  
ATOM      7  N   MET A   1     -12.027  12.727  70.515  1.00  0.00    -0.532 NA 
ATOM      8  O   MET A   1     -12.413  14.518  72.265  1.00  0.00    -0.320 OA 
ATOM      9  OXT MET A   1     -11.537  16.255  71.093  1.00  0.00    -0.427 OA 
ATOM     10  H1  MET A   1     -12.829  12.586  71.130  1.00  0.00     0.000 HD 
ATOM     11  H2  MET A   1     -11.158  12.481  70.989  1.00  0.00     0.000 HD 
ENDBRANCH   4   5
ENDBRANCH   3   4
ENDBRANCH   2   3
TORSDOF 3
ENDMDL
MODEL       84
REMARK 921   NORMALIZED FREE ENERGY PREDICTED BY IDOCK:   -2.69 KCAL/MOL
REMARK 922        TOTAL FREE ENERGY PREDICTED BY IDOCK:   -3.22 KCAL/MOL
REMARK 923 INTER-LIGAND FREE ENERGY PREDICTED BY IDOCK:   -3.05 KCAL/MOL
REMARK 924 INTRA-LIGAND FREE ENERGY PREDICTED BY IDOCK:   -0.16 KCAL/MOL
REMARK 927      BINDING AFFINITY PREDICTED BY RF-SCORE:    0.00 PKD
ROOT
ATOM      1  CE  MET A   1     -12.098  11.486  70.050  1.00  0.00    -0.331 C  
ATOM      2  SD  MET A   1     -10.980  10.667  68.887  1.00  0.00    -0.269 SA 
ENDROOT
BRANCH   2   3
ATOM      3  CG  MET A   1     -10.532  12.103  67.860  1.00  0.00    -0.208 C  
BRANCH   3   4
ATOM      4  CB  MET A   1     -11.738  12.538  67.028  1.00  0.00    -0.437 C  
BRANCH   4   5
ATOM      5  CA  MET A   1     -11.946  14.058  67.018  1.00  0.00    -0.438 C  
ATOM      6  C   MET A   1     -11.028  14.730  65.975  1.00  0.00    -0.328 C  
ATOM      7  N   MET A   1     -11.674  14.693  68.342  1.00  0.00    -0.347 NA 
ATOM      8  O   MET A   1     -10.610  15.949  66.415  1.00  0.00    -0.307 OA 
ATOM      9  OXT MET A   1     -10.728  14.274  64.885  1.00  0.00    -0.389 OA 
ATOM     10  H1  MET A   1     -11.811  15.704  68.336  1.00  0.00     0.000 HD 
ATOM     11  H2  MET A   1     -10.739  14.456  68.674  1.00  0.00     0.000 HD 
ENDBRANCH   4   5
ENDBRANCH   3   4
ENDBRANCH   2   3
TORSDOF 3
ENDMDL
MODEL       85
REMARK 921   NORMALIZED FREE ENERGY PREDICTED BY IDOCK:   -2.67 KCAL/MOL
REMARK 922        TOTAL FREE ENERGY PREDICTED BY IDOCK:   -3.20 KCAL/MOL
REMARK 923 INTER-LIGAND FREE ENERGY PREDICTED BY IDOCK:   -3.08 KCAL/MOL
REMARK 924 INTRA-LIGAND FREE ENERGY PREDICTED BY IDOCK:   -0.12 KCAL/MOL
REMARK 927      BINDING AFFINITY PREDICTED BY RF-SCORE:    0.00 PKD
ROOT
ATOM      1  CE  MET A   1      -9.298   7.828  69.415  1.00  0.00    -0.152 C  
ATOM      2  SD  MET A   1     -10.210   8.751  68.155  1.00  0.00    -0.208 SA 
ENDROOT
BRANCH   2   3
ATOM      3  CG  MET A   1     -10.765  10.155  69.174  1.00  0.00    -0.226 C  
BRANCH   3   4
ATOM      4  CB  MET A   1     -10.731   9.764  70.652  1.00  0.00    -0.394 C  
BRANCH   4   5
ATOM      5  CA  MET A   1     -12.099   9.883  71.336  1.00  0.00    -0.413 C  
ATOM      6  C   MET A   1     -12.394   8.633  72.193  1.00  0.00    -0.386 C  
ATOM      7  N   MET A   1     -13.224  10.049  70.370  1.00  0.00    -0.577 NA 
ATOM      8  O   MET A   1     -13.721   8.332  72.166  1.00  0.00    -0.328 OA 
ATOM      9  OXT MET A   1     -11.578   8.001  72.843  1.00  0.00    -0.397 OA 
ATOM     10  H1  MET A   1     -14.134  10.128  70.825  1.00  0.00     0.000 HD 
ATOM     11  H2  MET A   1     -13.226   9.297  69.681  1.00  0.00     0.000 HD 
ENDBRANCH   4   5
ENDBRANCH   3   4
ENDBRANCH   2   3
TORSDOF 3
ENDMDL
MODEL       86
REMARK 921   NORMALIZED FREE ENERGY PREDICTED BY IDOCK:   -2.67 KCAL/MOL
REMARK 922        TOTAL FREE ENERGY PREDICTED BY IDOCK:   -3.20 KCAL/MOL
REMARK 923 INTER-LIGAND FREE ENERGY PREDICTED BY IDOCK:   -3.11 KCAL/MOL
REMARK 924 INTRA-LIGAND FREE ENERGY PREDICTED BY IDOCK:   -0.09 KCAL/MOL
REMARK 927      BINDING AFFINITY PREDICTED BY RF-SCORE:    0.00 PKD
ROOT
ATOM      1  CE  MET A   1     -11.306  13.412  68.765  1.00  0.00    -0.292 C  
ATOM      2  SD  MET A   1     -11.639  13.652  67.003  1.00  0.00    -0.382 SA 
ENDROOT
BRANCH   2   3
ATOM      3  CG  MET A   1     -10.114  14.535  66.541  1.00  0.00    -0.274 C  
BRANCH   3   4
ATOM      4  CB  MET A   1     -10.458  15.954  66.088  1.00  0.00    -0.336 C  
BRANCH   4   5
ATOM      5  CA  MET A   1      -9.675  17.034  66.846  1.00  0.00    -0.262 C  
ATOM      6  C   MET A   1     -10.458  17.509  68.088  1.00  0.00    -0.386 C  
ATOM      7  N   MET A   1      -9.374  18.234  66.010  1.00  0.00    -0.512 NA 
ATOM      8  O   MET A   1     -10.253  18.836  68.309  1.00  0.00    -0.364 OA 
ATOM      9  OXT MET A   1     -11.147  16.810  68.812  1.00  0.00    -0.306 OA 
ATOM     10  H1  MET A   1      -8.854  18.952  66.514  1.00  0.00     0.000 HD 
ATOM     11  H2  MET A   1     -10.228  18.619  65.607  1.00  0.00     0.000 HD 
ENDBRANCH   4   5
ENDBRANCH   3   4
ENDBRANCH   2   3
TORSDOF 3
ENDMDL
MODEL       87
REMARK 921   NORMALIZED FREE ENERGY PREDICTED BY IDOCK:   -2.67 KCAL/MOL
REMARK 922        TOTAL FREE ENERGY PREDICTED BY IDOCK:   -3.20 KCAL/MOL
REMARK 923 INTER-LIGAND FREE ENERGY PREDICTED BY IDOCK:   -3.12 KCAL/MOL
REMARK 924 INTRA-LIGAND FREE ENERGY PREDICTED BY IDOCK:   -0.08 KCAL/MOL
REMARK 927      BINDING AFFINITY PREDICTED BY RF-SCORE:    0.00 PKD
ROOT
ATOM      1  CE  MET A   1     -14.399   8.115  71.918  1.00  0.00    -0.472 C  
ATOM      2  SD  MET A   1     -12.791   7.376  71.544  1.00  0.00    -0.367 SA 
ENDROOT
BRANCH   2   3
ATOM      3  CG  MET A   1     -11.726   8.812  71.896  1.00  0.00    -0.359 C  
BRANCH   3   4
ATOM      4  CB  MET A   1     -11.358   9.513  70.589  1.00  0.00    -0.364 C  
BRANCH   4   5
ATOM      5  CA  MET A   1     -12.247  10.727  70.288  1.00  0.00    -0.348 C  
ATOM      6  C   MET A   1     -11.877  11.353  68.926  1.00  0.00    -0.347 C  
ATOM      7  N   MET A   1     -12.147  11.797  71.324  1.00  0.00    -0.157 NA 
ATOM      8  O   MET A   1     -12.024  12.706  68.962  1.00  0.00    -0.290 OA 
ATOM      9  OXT MET A   1     -11.530  10.745  67.928  1.00  0.00    -0.421 OA 
ATOM     10  H1  MET A   1     -12.738  12.604  71.123  1.00  0.00     0.000 HD 
ATOM     11  H2  MET A   1     -11.177  12.082  71.461  1.00  0.00     0.000 HD 
ENDBRANCH   4   5
ENDBRANCH   3   4
ENDBRANCH   2   3
TORSDOF 3
ENDMDL
MODEL       88
REMARK 921   NORMALIZED FREE ENERGY PREDICTED BY IDOCK:   -2.67 KCAL/MOL
REMARK 922        TOTAL FREE ENERGY PREDICTED BY IDOCK:   -3.20 KCAL/MOL
REMARK 923 INTER-LIGAND FREE ENERGY PREDICTED BY IDOCK:   -2.97 KCAL/MOL
REMARK 924 INTRA-LIGAND FREE ENERGY PREDICTED BY IDOCK:   -0.22 KCAL/MOL
REMARK 927      BINDING AFFINITY PREDICTED BY RF-SCORE:    0.00 PKD
ROOT
ATOM      1  CE  MET A   1      -9.908   5.970  70.787  1.00  0.00    -0.181 C  
ATOM      2  SD  MET A   1     -11.110   6.293  69.474  1.00  0.00    -0.421 SA 
ENDROOT
BRANCH   2   3
ATOM      3  CG  MET A   1     -10.493   7.913  68.913  1.00  0.00    -0.190 C  
BRANCH   3   4
ATOM      4  CB  MET A   1     -10.052   8.742  70.119  1.00  0.00    -0.203 C  
BRANCH   4   5
ATOM      5  CA  MET A   1     -11.048   9.850  70.483  1.00  0.00    -0.332 C  
ATOM      6  C   MET A   1     -12.081   9.344  71.511  1.00  0.00    -0.379 C  
ATOM      7  N   MET A   1     -11.798  10.373  69.302  1.00  0.00    -0.504 NA 
ATOM      8  O   MET A   1     -13.299   9.911  71.291  1.00  0.00    -0.383 OA 
ATOM      9  OXT MET A   1     -11.861   8.568  72.426  1.00  0.00    -0.380 OA 
ATOM     10  H1  MET A   1     -12.460  11.110  69.544  1.00  0.00     0.000 HD 
ATOM     11  H2  MET A   1     -12.263   9.616  68.802  1.00  0.00     0.000 HD 
ENDBRANCH   4   5
ENDBRANCH   3   4
ENDBRANCH   2   3
TORSDOF 3
ENDMDL
MODEL       89
REMARK 921   NORMALIZED FREE ENERGY PREDICTED BY IDOCK:   -2.66 KCAL/MOL
REMARK 922        TOTAL FREE ENERGY PREDICTED BY IDOCK:   -3.18 KCAL/MOL
REMARK 923 INTER-LIGAND FREE ENERGY PREDICTED BY IDOCK:   -3.07 KCAL/MOL
REMARK 924 INTRA-LIGAND FREE ENERGY PREDICTED BY IDOCK:   -0.11 KCAL/MOL
REMARK 927      BINDING AFFINITY PREDICTED BY RF-SCORE:    0.00 PKD
ROOT
ATOM      1  CE  MET A   1      -9.372  14.581  66.504  1.00  0.00    -0.284 C  
ATOM      2  SD  MET A   1      -7.933  15.503  67.096  1.00  0.00    -0.233 SA 
ENDROOT
BRANCH   2   3
ATOM      3  CG  MET A   1      -8.502  17.193  66.721  1.00  0.00    -0.235 C  
BRANCH   3   4
ATOM      4  CB  MET A   1     -10.020  17.198  66.544  1.00  0.00    -0.308 C  
BRANCH   4   5
ATOM      5  CA  MET A   1     -10.723  18.249  67.412  1.00  0.00    -0.350 C  
ATOM      6  C   MET A   1     -10.347  19.676  66.959  1.00  0.00    -0.460 C  
ATOM      7  N   MET A   1     -10.388  18.130  68.862  1.00  0.00    -0.436 NA 
ATOM      8  O   MET A   1     -10.275  20.518  68.025  1.00  0.00    -0.295 OA 
ATOM      9  OXT MET A   1     -10.166  20.038  65.808  1.00  0.00    -0.468 OA 
ATOM     10  H1  MET A   1     -10.855  18.829  69.440  1.00  0.00     0.000 HD 
ATOM     11  H2  MET A   1      -9.378  18.155  69.006  1.00  0.00     0.000 HD 
ENDBRANCH   4   5
ENDBRANCH   3   4
ENDBRANCH   2   3
TORSDOF 3
ENDMDL
MODEL       90
REMARK 921   NORMALIZED FREE ENERGY PREDICTED BY IDOCK:   -2.65 KCAL/MOL
REMARK 922        TOTAL FREE ENERGY PREDICTED BY IDOCK:   -3.18 KCAL/MOL
REMARK 923 INTER-LIGAND FREE ENERGY PREDICTED BY IDOCK:   -3.06 KCAL/MOL
REMARK 924 INTRA-LIGAND FREE ENERGY PREDICTED BY IDOCK:   -0.12 KCAL/MOL
REMARK 927      BINDING AFFINITY PREDICTED BY RF-SCORE:    0.00 PKD
ROOT
ATOM      1  CE  MET A   1     -11.938  14.831  71.694  1.00  0.00    -0.345 C  
ATOM      2  SD  MET A   1     -10.906  15.798  70.565  1.00  0.00    -0.240 SA 
ENDROOT
BRANCH   2   3
ATOM      3  CG  MET A   1     -11.885  15.599  69.041  1.00  0.00    -0.364 C  
BRANCH   3   4
ATOM      4  CB  MET A   1     -11.052  14.873  67.985  1.00  0.00    -0.301 C  
BRANCH   4   5
ATOM      5  CA  MET A   1     -11.844  13.801  67.227  1.00  0.00    -0.401 C  
ATOM      6  C   MET A   1     -11.606  12.405  67.842  1.00  0.00    -0.356 C  
ATOM      7  N   MET A   1     -11.491  13.727  65.778  1.00  0.00    -0.312 NA 
ATOM      8  O   MET A   1     -11.606  11.446  66.876  1.00  0.00    -0.492 OA 
ATOM      9  OXT MET A   1     -11.466  12.159  69.028  1.00  0.00    -0.252 OA 
ATOM     10  H1  MET A   1     -12.017  13.014  65.274  1.00  0.00     0.000 HD 
ATOM     11  H2  MET A   1     -10.487  13.593  65.655  1.00  0.00     0.000 HD 
ENDBRANCH   4   5
ENDBRANCH   3   4
ENDBRANCH   2   3
TORSDOF 3
ENDMDL
MODEL       91
REMARK 921   NORMALIZED FREE ENERGY PREDICTED BY IDOCK:   -2.65 KCAL/MOL
REMARK 922        TOTAL FREE ENERGY PREDICTED BY IDOCK:   -3.17 KCAL/MOL
REMARK 923 INTER-LIGAND FREE ENERGY PREDICTED BY IDOCK:   -3.15 KCAL/MOL
REMARK 924 INTRA-LIGAND FREE ENERGY PREDICTED BY IDOCK:   -0.02 KCAL/MOL
REMARK 927      BINDING AFFINITY PREDICTED BY RF-SCORE:    0.00 PKD
ROOT
ATOM      1  CE  MET A   1     -13.207  11.097  71.783  1.00  0.00    -0.381 C  
ATOM      2  SD  MET A   1     -12.171  11.476  70.350  1.00  0.00    -0.333 SA 
ENDROOT
BRANCH   2   3
ATOM      3  CG  MET A   1     -11.244   9.912  70.244  1.00  0.00    -0.301 C  
BRANCH   3   4
ATOM      4  CB  MET A   1     -11.282   9.198  71.596  1.00  0.00    -0.447 C  
BRANCH   4   5
ATOM      5  CA  MET A   1     -11.900   7.796  71.518  1.00  0.00    -0.293 C  
ATOM      6  C   MET A   1     -11.262   6.856  72.562  1.00  0.00    -0.267 C  
ATOM      7  N   MET A   1     -11.742   7.161  70.176  1.00  0.00    -0.540 NA 
ATOM      8  O   MET A   1     -11.172   5.587  72.078  1.00  0.00    -0.235 OA 
ATOM      9  OXT MET A   1     -10.907   7.169  73.686  1.00  0.00    -0.352 OA 
ATOM     10  H1  MET A   1     -12.153   6.229  70.123  1.00  0.00     0.000 HD 
ATOM     11  H2  MET A   1     -10.761   7.143  69.895  1.00  0.00     0.000 HD 
ENDBRANCH   4   5
ENDBRANCH   3   4
ENDBRANCH   2   3
TORSDOF 3
ENDMDL
MODEL       92
REMARK 921   NORMALIZED FREE ENERGY PREDICTED BY IDOCK:   -2.65 KCAL/MOL
REMARK 922        TOTAL FREE ENERGY PREDICTED BY IDOCK:   -3.17 KCAL/MOL
REMARK 923 INTER-LIGAND FREE ENERGY PREDICTED BY IDOCK:   -3.09 KCAL/MOL
REMARK 924 INTRA-LIGAND FREE ENERGY PREDICTED BY IDOCK:   -0.07 KCAL/MOL
REMARK 927      BINDING AFFINITY PREDICTED BY RF-SCORE:    0.00 PKD
ROOT
ATOM      1  CE  MET A   1     -11.628  15.247  71.289  1.00  0.00    -0.380 C  
ATOM      2  SD  MET A   1     -11.986  14.507  69.678  1.00  0.00    -0.332 SA 
ENDROOT
BRANCH   2   3
ATOM      3  CG  MET A   1     -11.462  15.885  68.607  1.00  0.00    -0.391 C  
BRANCH   3   4
ATOM      4  CB  MET A   1     -10.553  16.831  69.392  1.00  0.00    -0.318 C  
BRANCH   4   5
ATOM      5  CA  MET A   1     -10.012  17.987  68.542  1.00  0.00    -0.390 C  
ATOM      6  C   MET A   1      -8.469  17.974  68.517  1.00  0.00    -0.305 C  
ATOM      7  N   MET A   1     -10.448  19.328  69.033  1.00  0.00    -0.428 NA 
ATOM      8  O   MET A   1      -7.976  19.242  68.484  1.00  0.00    -0.334 OA 
ATOM      9  OXT MET A   1      -7.761  16.981  68.494  1.00  0.00    -0.215 OA 
ATOM     10  H1  MET A   1     -10.088  20.097  68.468  1.00  0.00     0.000 HD 
ATOM     11  H2  MET A   1     -10.203  19.453  70.016  1.00  0.00     0.000 HD 
ENDBRANCH   4   5
ENDBRANCH   3   4
ENDBRANCH   2   3
TORSDOF 3
ENDMDL
MODEL       93
REMARK 921   NORMALIZED FREE ENERGY PREDICTED BY IDOCK:   -2.62 KCAL/MOL
REMARK 922        TOTAL FREE ENERGY PREDICTED BY IDOCK:   -3.14 KCAL/MOL
REMARK 923 INTER-LIGAND FREE ENERGY PREDICTED BY IDOCK:   -3.10 KCAL/MOL
REMARK 924 INTRA-LIGAND FREE ENERGY PREDICTED BY IDOCK:   -0.04 KCAL/MOL
REMARK 927      BINDING AFFINITY PREDICTED BY RF-SCORE:    0.00 PKD
ROOT
ATOM      1  CE  MET A   1     -12.092  10.108  70.724  1.00  0.00    -0.343 C  
ATOM      2  SD  MET A   1     -10.718  10.428  69.593  1.00  0.00    -0.271 SA 
ENDROOT
BRANCH   2   3
ATOM      3  CG  MET A   1     -11.670  10.876  68.105  1.00  0.00    -0.154 C  
BRANCH   3   4
ATOM      4  CB  MET A   1     -11.723  12.397  67.967  1.00  0.00    -0.414 C  
BRANCH   4   5
ATOM      5  CA  MET A   1     -11.382  12.884  66.553  1.00  0.00    -0.318 C  
ATOM      6  C   MET A   1     -11.258  14.422  66.517  1.00  0.00    -0.340 C  
ATOM      7  N   MET A   1     -12.400  12.486  65.535  1.00  0.00    -0.642 NA 
ATOM      8  O   MET A   1     -11.711  14.916  65.333  1.00  0.00    -0.326 OA 
ATOM      9  OXT MET A   1     -10.791  15.124  67.399  1.00  0.00    -0.288 OA 
ATOM     10  H1  MET A   1     -12.173  12.810  64.595  1.00  0.00     0.000 HD 
ATOM     11  H2  MET A   1     -13.331  12.795  65.812  1.00  0.00     0.000 HD 
ENDBRANCH   4   5
ENDBRANCH   3   4
ENDBRANCH   2   3
TORSDOF 3
ENDMDL
MODEL       94
REMARK 921   NORMALIZED FREE ENERGY PREDICTED BY IDOCK:   -2.61 KCAL/MOL
REMARK 922        TOTAL FREE ENERGY PREDICTED BY IDOCK:   -3.12 KCAL/MOL
REMARK 923 INTER-LIGAND FREE ENERGY PREDICTED BY IDOCK:   -3.07 KCAL/MOL
REMARK 924 INTRA-LIGAND FREE ENERGY PREDICTED BY IDOCK:   -0.06 KCAL/MOL
REMARK 927      BINDING AFFINITY PREDICTED BY RF-SCORE:    0.00 PKD
ROOT
ATOM      1  CE  MET A   1     -11.289  14.047  69.044  1.00  0.00    -0.281 C  
ATOM      2  SD  MET A   1     -11.765  12.791  67.831  1.00  0.00    -0.345 SA 
ENDROOT
BRANCH   2   3
ATOM      3  CG  MET A   1     -10.341  12.929  66.703  1.00  0.00    -0.251 C  
BRANCH   3   4
ATOM      4  CB  MET A   1     -10.208  11.646  65.883  1.00  0.00    -0.277 C  
BRANCH   4   5
ATOM      5  CA  MET A   1     -10.407  11.871  64.378  1.00  0.00    -0.299 C  
ATOM      6  C   MET A   1      -9.475  10.954  63.558  1.00  0.00    -0.294 C  
ATOM      7  N   MET A   1     -10.145  13.279  63.958  1.00  0.00    -0.776 NA 
ATOM      8  O   MET A   1      -9.054  11.581  62.426  1.00  0.00    -0.289 OA 
ATOM      9  OXT MET A   1      -9.165   9.809  63.842  1.00  0.00    -0.256 OA 
ATOM     10  H1  MET A   1     -10.277  13.429  62.958  1.00  0.00     0.000 HD 
ATOM     11  H2  MET A   1      -9.216  13.580  64.251  1.00  0.00     0.000 HD 
ENDBRANCH   4   5
ENDBRANCH   3   4
ENDBRANCH   2   3
TORSDOF 3
ENDMDL
MODEL       95
REMARK 921   NORMALIZED FREE ENERGY PREDICTED BY IDOCK:   -2.61 KCAL/MOL
REMARK 922        TOTAL FREE ENERGY PREDICTED BY IDOCK:   -3.12 KCAL/MOL
REMARK 923 INTER-LIGAND FREE ENERGY PREDICTED BY IDOCK:   -3.04 KCAL/MOL
REMARK 924 INTRA-LIGAND FREE ENERGY PREDICTED BY IDOCK:   -0.08 KCAL/MOL
REMARK 927      BINDING AFFINITY PREDICTED BY RF-SCORE:    0.00 PKD
ROOT
ATOM      1  CE  MET A   1      -6.108  15.838  67.724  1.00  0.00    -0.150 C  
ATOM      2  SD  MET A   1      -7.039  17.105  68.619  1.00  0.00    -0.228 SA 
ENDROOT
BRANCH   2   3
ATOM      3  CG  MET A   1      -8.550  16.151  68.976  1.00  0.00    -0.251 C  
BRANCH   3   4
ATOM      4  CB  MET A   1      -9.500  16.225  67.781  1.00  0.00    -0.221 C  
BRANCH   4   5
ATOM      5  CA  MET A   1     -10.589  17.293  67.944  1.00  0.00    -0.384 C  
ATOM      6  C   MET A   1     -10.491  18.351  66.825  1.00  0.00    -0.385 C  
ATOM      7  N   MET A   1     -10.516  18.007  69.253  1.00  0.00    -0.351 NA 
ATOM      8  O   MET A   1     -10.829  19.583  67.294  1.00  0.00    -0.493 OA 
ATOM      9  OXT MET A   1     -10.188  18.139  65.663  1.00  0.00    -0.578 OA 
ATOM     10  H1  MET A   1     -11.240  18.718  69.362  1.00  0.00     0.000 HD 
ATOM     11  H2  MET A   1      -9.590  18.407  69.399  1.00  0.00     0.000 HD 
ENDBRANCH   4   5
ENDBRANCH   3   4
ENDBRANCH   2   3
TORSDOF 3
ENDMDL
MODEL       96
REMARK 921   NORMALIZED FREE ENERGY PREDICTED BY IDOCK:   -2.60 KCAL/MOL
REMARK 922        TOTAL FREE ENERGY PREDICTED BY IDOCK:   -3.12 KCAL/MOL
REMARK 923 INTER-LIGAND FREE ENERGY PREDICTED BY IDOCK:   -3.03 KCAL/MOL
REMARK 924 INTRA-LIGAND FREE ENERGY PREDICTED BY IDOCK:   -0.08 KCAL/MOL
REMARK 927      BINDING AFFINITY PREDICTED BY RF-SCORE:    0.00 PKD
ROOT
ATOM      1  CE  MET A   1     -12.895   9.810  71.220  1.00  0.00    -0.377 C  
ATOM      2  SD  MET A   1     -12.353  11.477  70.775  1.00  0.00    -0.324 SA 
ENDROOT
BRANCH   2   3
ATOM      3  CG  MET A   1     -11.957  11.190  69.020  1.00  0.00    -0.320 C  
BRANCH   3   4
ATOM      4  CB  MET A   1     -10.891  12.187  68.563  1.00  0.00    -0.267 C  
BRANCH   4   5
ATOM      5  CA  MET A   1     -10.705  12.212  67.040  1.00  0.00    -0.238 C  
ATOM      6  C   MET A   1     -11.901  12.905  66.353  1.00  0.00    -0.415 C  
ATOM      7  N   MET A   1     -10.565  10.850  66.445  1.00  0.00    -0.250 NA 
ATOM      8  O   MET A   1     -12.172  12.323  65.154  1.00  0.00    -0.462 OA 
ATOM      9  OXT MET A   1     -12.516  13.866  66.784  1.00  0.00    -0.381 OA 
ATOM     10  H1  MET A   1     -10.441  10.867  65.433  1.00  0.00     0.000 HD 
ATOM     11  H2  MET A   1     -11.352  10.256  66.706  1.00  0.00     0.000 HD 
ENDBRANCH   4   5
ENDBRANCH   3   4
ENDBRANCH   2   3
TORSDOF 3
ENDMDL
MODEL       97
REMARK 921   NORMALIZED FREE ENERGY PREDICTED BY IDOCK:   -2.59 KCAL/MOL
REMARK 922        TOTAL FREE ENERGY PREDICTED BY IDOCK:   -3.11 KCAL/MOL
REMARK 923 INTER-LIGAND FREE ENERGY PREDICTED BY IDOCK:   -3.04 KCAL/MOL
REMARK 924 INTRA-LIGAND FREE ENERGY PREDICTED BY IDOCK:   -0.07 KCAL/MOL
REMARK 927      BINDING AFFINITY PREDICTED BY RF-SCORE:    0.00 PKD
ROOT
ATOM      1  CE  MET A   1      -6.793   8.887  66.114  1.00  0.00    -0.074 C  
ATOM      2  SD  MET A   1      -8.490   9.319  66.566  1.00  0.00    -0.128 SA 
ENDROOT
BRANCH   2   3
ATOM      3  CG  MET A   1      -8.772  10.665  65.371  1.00  0.00    -0.185 C  
BRANCH   3   4
ATOM      4  CB  MET A   1     -10.267  10.968  65.279  1.00  0.00    -0.344 C  
BRANCH   4   5
ATOM      5  CA  MET A   1     -10.612  11.961  64.162  1.00  0.00    -0.350 C  
ATOM      6  C   MET A   1     -10.971  13.343  64.747  1.00  0.00    -0.360 C  
ATOM      7  N   MET A   1     -11.756  11.514  63.314  1.00  0.00    -0.867 NA 
ATOM      8  O   MET A   1     -11.940  13.945  64.004  1.00  0.00    -0.439 OA 
ATOM      9  OXT MET A   1     -10.453  13.866  65.719  1.00  0.00    -0.289 OA 
ATOM     10  H1  MET A   1     -11.985  12.174  62.571  1.00  0.00     0.000 HD 
ATOM     11  H2  MET A   1     -12.576  11.312  63.886  1.00  0.00     0.000 HD 
ENDBRANCH   4   5
ENDBRANCH   3   4
ENDBRANCH   2   3
TORSDOF 3
ENDMDL
MODEL       98
REMARK 921   NORMALIZED FREE ENERGY PREDICTED BY IDOCK:   -2.59 KCAL/MOL
REMARK 922        TOTAL FREE ENERGY PREDICTED BY IDOCK:   -3.11 KCAL/MOL
REMARK 923 INTER-LIGAND FREE ENERGY PREDICTED BY IDOCK:   -3.07 KCAL/MOL
REMARK 924 INTRA-LIGAND FREE ENERGY PREDICTED BY IDOCK:   -0.04 KCAL/MOL
REMARK 927      BINDING AFFINITY PREDICTED BY RF-SCORE:    0.00 PKD
ROOT
ATOM      1  CE  MET A   1      -9.870  11.040  68.460  1.00  0.00    -0.192 C  
ATOM      2  SD  MET A   1      -9.766   9.405  69.227  1.00  0.00    -0.180 SA 
ENDROOT
BRANCH   2   3
ATOM      3  CG  MET A   1     -11.340   9.418  70.143  1.00  0.00    -0.185 C  
BRANCH   3   4
ATOM      4  CB  MET A   1     -11.097   8.993  71.591  1.00  0.00    -0.433 C  
BRANCH   4   5
ATOM      5  CA  MET A   1     -12.368   8.501  72.295  1.00  0.00    -0.387 C  
ATOM      6  C   MET A   1     -12.936   7.251  71.592  1.00  0.00    -0.372 C  
ATOM      7  N   MET A   1     -13.449   9.531  72.337  1.00  0.00    -0.619 NA 
ATOM      8  O   MET A   1     -14.296   7.248  71.636  1.00  0.00    -0.437 OA 
ATOM      9  OXT MET A   1     -12.282   6.353  71.087  1.00  0.00    -0.266 OA 
ATOM     10  H1  MET A   1     -14.294   9.204  72.806  1.00  0.00     0.000 HD 
ATOM     11  H2  MET A   1     -13.661   9.874  71.401  1.00  0.00     0.000 HD 
ENDBRANCH   4   5
ENDBRANCH   3   4
ENDBRANCH   2   3
TORSDOF 3
ENDMDL
MODEL       99
REMARK 921   NORMALIZED FREE ENERGY PREDICTED BY IDOCK:   -2.59 KCAL/MOL
REMARK 922        TOTAL FREE ENERGY PREDICTED BY IDOCK:   -3.10 KCAL/MOL
REMARK 923 INTER-LIGAND FREE ENERGY PREDICTED BY IDOCK:   -3.06 KCAL/MOL
REMARK 924 INTRA-LIGAND FREE ENERGY PREDICTED BY IDOCK:   -0.04 KCAL/MOL
REMARK 927      BINDING AFFINITY PREDICTED BY RF-SCORE:    0.00 PKD
ROOT
ATOM      1  CE  MET A   1     -14.360   7.435  71.512  1.00  0.00    -0.440 C  
ATOM      2  SD  MET A   1     -13.877   9.014  72.251  1.00  0.00    -0.450 SA 
ENDROOT
BRANCH   2   3
ATOM      3  CG  MET A   1     -12.150   9.084  71.673  1.00  0.00    -0.352 C  
BRANCH   3   4
ATOM      4  CB  MET A   1     -11.292   8.126  72.498  1.00  0.00    -0.469 C  
BRANCH   4   5
ATOM      5  CA  MET A   1      -9.835   8.063  72.022  1.00  0.00    -0.211 C  
ATOM      6  C   MET A   1      -8.865   8.063  73.223  1.00  0.00    -0.265 C  
ATOM      7  N   MET A   1      -9.460   9.203  71.134  1.00  0.00    -0.272 NA 
ATOM      8  O   MET A   1      -7.725   8.744  72.923  1.00  0.00    -0.373 OA 
ATOM      9  OXT MET A   1      -9.051   7.511  74.294  1.00  0.00    -0.225 OA 
ATOM     10  H1  MET A   1      -8.491   9.161  70.817  1.00  0.00     0.000 HD 
ATOM     11  H2  MET A   1      -9.657  10.096  71.585  1.00  0.00     0.000 HD 
ENDBRANCH   4   5
ENDBRANCH   3   4
ENDBRANCH   2   3
TORSDOF 3
ENDMDL
MODEL      100
REMARK 921   NORMALIZED FREE ENERGY PREDICTED BY IDOCK:   -2.59 KCAL/MOL
REMARK 922        TOTAL FREE ENERGY PREDICTED BY IDOCK:   -3.10 KCAL/MOL
REMARK 923 INTER-LIGAND FREE ENERGY PREDICTED BY IDOCK:   -2.99 KCAL/MOL
REMARK 924 INTRA-LIGAND FREE ENERGY PREDICTED BY IDOCK:   -0.12 KCAL/MOL
REMARK 927      BINDING AFFINITY PREDICTED BY RF-SCORE:    0.00 PKD
ROOT
ATOM      1  CE  MET A   1      -5.867  17.835  67.483  1.00  0.00    -0.147 C  
ATOM      2  SD  MET A   1      -7.081  18.293  66.223  1.00  0.00    -0.279 SA 
ENDROOT
BRANCH   2   3
ATOM      3  CG  MET A   1      -8.410  17.129  66.670  1.00  0.00    -0.251 C  
BRANCH   3   4
ATOM      4  CB  MET A   1      -9.762  17.704  66.247  1.00  0.00    -0.275 C  
BRANCH   4   5
ATOM      5  CA  MET A   1     -10.588  18.228  67.429  1.00  0.00    -0.401 C  
ATOM      6  C   MET A   1     -10.154  19.658  67.812  1.00  0.00    -0.413 C  
ATOM      7  N   MET A   1     -10.471  17.374  68.648  1.00  0.00    -0.363 NA 
ATOM      8  O   MET A   1     -10.243  19.846  69.156  1.00  0.00    -0.407 OA 
ATOM      9  OXT MET A   1      -9.807  20.533  67.036  1.00  0.00    -0.449 OA 
ATOM     10  H1  MET A   1     -11.021  17.722  69.434  1.00  0.00     0.000 HD 
ATOM     11  H2  MET A   1      -9.494  17.252  68.914  1.00  0.00     0.000 HD 
ENDBRANCH   4   5
ENDBRANCH   3   4
ENDBRANCH   2   3
TORSDOF 3
ENDMDL
MODEL      101
REMARK 921   NORMALIZED FREE ENERGY PREDICTED BY IDOCK:   -2.58 KCAL/MOL
REMARK 922        TOTAL FREE ENERGY PREDICTED BY IDOCK:   -3.09 KCAL/MOL
REMARK 923 INTER-LIGAND FREE ENERGY PREDICTED BY IDOCK:   -3.01 KCAL/MOL
REMARK 924 INTRA-LIGAND FREE ENERGY PREDICTED BY IDOCK:   -0.08 KCAL/MOL
REMARK 927      BINDING AFFINITY PREDICTED BY RF-SCORE:    0.00 PKD
ROOT
ATOM      1  CE  MET A   1     -10.302  17.153  68.973  1.00  0.00    -0.331 C  
ATOM      2  SD  MET A   1      -9.719  16.472  67.402  1.00  0.00    -0.250 SA 
ENDROOT
BRANCH   2   3
ATOM      3  CG  MET A   1      -9.923  14.699  67.765  1.00  0.00    -0.224 C  
BRANCH   3   4
ATOM      4  CB  MET A   1      -9.733  13.886  66.484  1.00  0.00    -0.303 C  
BRANCH   4   5
ATOM      5  CA  MET A   1      -9.862  12.374  66.707  1.00  0.00    -0.222 C  
ATOM      6  C   MET A   1     -11.336  11.929  66.611  1.00  0.00    -0.337 C  
ATOM      7  N   MET A   1      -9.338  11.931  68.034  1.00  0.00    -0.187 NA 
ATOM      8  O   MET A   1     -11.592  10.914  67.481  1.00  0.00    -0.526 OA 
ATOM      9  OXT MET A   1     -12.173  12.380  65.847  1.00  0.00    -0.629 OA 
ATOM     10  H1  MET A   1      -9.424  10.926  68.182  1.00  0.00     0.000 HD 
ATOM     11  H2  MET A   1      -9.782  12.450  68.791  1.00  0.00     0.000 HD 
ENDBRANCH   4   5
ENDBRANCH   3   4
ENDBRANCH   2   3
TORSDOF 3
ENDMDL
MODEL      102
REMARK 921   NORMALIZED FREE ENERGY PREDICTED BY IDOCK:   -2.57 KCAL/MOL
REMARK 922        TOTAL FREE ENERGY PREDICTED BY IDOCK:   -3.09 KCAL/MOL
REMARK 923 INTER-LIGAND FREE ENERGY PREDICTED BY IDOCK:   -3.07 KCAL/MOL
REMARK 924 INTRA-LIGAND FREE ENERGY PREDICTED BY IDOCK:   -0.01 KCAL/MOL
REMARK 927      BINDING AFFINITY PREDICTED BY RF-SCORE:    0.00 PKD
ROOT
ATOM      1  CE  MET A   1      -7.905  16.471  68.635  1.00  0.00    -0.226 C  
ATOM      2  SD  MET A   1      -8.692  18.072  68.335  1.00  0.00    -0.289 SA 
ENDROOT
BRANCH   2   3
ATOM      3  CG  MET A   1     -10.406  17.635  68.769  1.00  0.00    -0.348 C  
BRANCH   3   4
ATOM      4  CB  MET A   1     -10.590  16.121  68.679  1.00  0.00    -0.283 C  
BRANCH   4   5
ATOM      5  CA  MET A   1     -10.993  15.484  70.015  1.00  0.00    -0.319 C  
ATOM      6  C   MET A   1     -11.990  14.327  69.793  1.00  0.00    -0.339 C  
ATOM      7  N   MET A   1     -11.624  16.454  70.959  1.00  0.00    -0.594 NA 
ATOM      8  O   MET A   1     -12.892  14.265  70.810  1.00  0.00    -0.339 OA 
ATOM      9  OXT MET A   1     -11.976  13.538  68.863  1.00  0.00    -0.336 OA 
ATOM     10  H1  MET A   1     -11.891  16.030  71.847  1.00  0.00     0.000 HD 
ATOM     11  H2  MET A   1     -12.419  16.920  70.523  1.00  0.00     0.000 HD 
ENDBRANCH   4   5
ENDBRANCH   3   4
ENDBRANCH   2   3
TORSDOF 3
ENDMDL
MODEL      103
REMARK 921   NORMALIZED FREE ENERGY PREDICTED BY IDOCK:   -2.57 KCAL/MOL
REMARK 922        TOTAL FREE ENERGY PREDICTED BY IDOCK:   -3.08 KCAL/MOL
REMARK 923 INTER-LIGAND FREE ENERGY PREDICTED BY IDOCK:   -3.01 KCAL/MOL
REMARK 924 INTRA-LIGAND FREE ENERGY PREDICTED BY IDOCK:   -0.07 KCAL/MOL
REMARK 927      BINDING AFFINITY PREDICTED BY RF-SCORE:    0.00 PKD
ROOT
ATOM      1  CE  MET A   1     -13.296   9.661  72.259  1.00  0.00    -0.408 C  
ATOM      2  SD  MET A   1     -13.989   8.059  71.782  1.00  0.00    -0.392 SA 
ENDROOT
BRANCH   2   3
ATOM      3  CG  MET A   1     -12.451   7.083  71.739  1.00  0.00    -0.356 C  
BRANCH   3   4
ATOM      4  CB  MET A   1     -11.283   7.941  72.224  1.00  0.00    -0.389 C  
BRANCH   4   5
ATOM      5  CA  MET A   1     -10.613   7.386  73.488  1.00  0.00    -0.338 C  
ATOM      6  C   MET A   1      -9.112   7.743  73.515  1.00  0.00    -0.283 C  
ATOM      7  N   MET A   1     -10.731   5.902  73.608  1.00  0.00    -0.352 NA 
ATOM      8  O   MET A   1      -8.388   6.741  74.085  1.00  0.00    -0.125 OA 
ATOM      9  OXT MET A   1      -8.616   8.784  73.120  1.00  0.00    -0.366 OA 
ATOM     10  H1  MET A   1     -10.286   5.533  74.449  1.00  0.00     0.000 HD 
ATOM     11  H2  MET A   1     -10.373   5.440  72.773  1.00  0.00     0.000 HD 
ENDBRANCH   4   5
ENDBRANCH   3   4
ENDBRANCH   2   3
TORSDOF 3
ENDMDL
MODEL      104
REMARK 921   NORMALIZED FREE ENERGY PREDICTED BY IDOCK:   -2.57 KCAL/MOL
REMARK 922        TOTAL FREE ENERGY PREDICTED BY IDOCK:   -3.08 KCAL/MOL
REMARK 923 INTER-LIGAND FREE ENERGY PREDICTED BY IDOCK:   -3.01 KCAL/MOL
REMARK 924 INTRA-LIGAND FREE ENERGY PREDICTED BY IDOCK:   -0.06 KCAL/MOL
REMARK 927      BINDING AFFINITY PREDICTED BY RF-SCORE:    0.00 PKD
ROOT
ATOM      1  CE  MET A   1      -9.101   8.946  68.445  1.00  0.00    -0.137 C  
ATOM      2  SD  MET A   1      -9.231   9.035  70.248  1.00  0.00    -0.221 SA 
ENDROOT
BRANCH   2   3
ATOM      3  CG  MET A   1     -10.769  10.002  70.376  1.00  0.00    -0.307 C  
BRANCH   3   4
ATOM      4  CB  MET A   1     -11.142  10.562  69.003  1.00  0.00    -0.300 C  
BRANCH   4   5
ATOM      5  CA  MET A   1     -12.006  11.827  69.084  1.00  0.00    -0.293 C  
ATOM      6  C   MET A   1     -11.977  12.599  67.748  1.00  0.00    -0.243 C  
ATOM      7  N   MET A   1     -11.570  12.765  70.161  1.00  0.00    -0.536 NA 
ATOM      8  O   MET A   1     -12.029  13.941  67.964  1.00  0.00    -0.361 OA 
ATOM      9  OXT MET A   1     -11.946  12.102  66.635  1.00  0.00    -0.616 OA 
ATOM     10  H1  MET A   1     -12.144  13.607  70.215  1.00  0.00     0.000 HD 
ATOM     11  H2  MET A   1     -10.584  13.004  70.058  1.00  0.00     0.000 HD 
ENDBRANCH   4   5
ENDBRANCH   3   4
ENDBRANCH   2   3
TORSDOF 3
ENDMDL
MODEL      105
REMARK 921   NORMALIZED FREE ENERGY PREDICTED BY IDOCK:   -2.56 KCAL/MOL
REMARK 922        TOTAL FREE ENERGY PREDICTED BY IDOCK:   -3.07 KCAL/MOL
REMARK 923 INTER-LIGAND FREE ENERGY PREDICTED BY IDOCK:   -2.99 KCAL/MOL
REMARK 924 INTRA-LIGAND FREE ENERGY PREDICTED BY IDOCK:   -0.08 KCAL/MOL
REMARK 927      BINDING AFFINITY PREDICTED BY RF-SCORE:    0.00 PKD
ROOT
ATOM      1  CE  MET A   1     -13.744   7.263  71.461  1.00  0.00    -0.351 C  
ATOM      2  SD  MET A   1     -12.863   8.799  71.830  1.00  0.00    -0.400 SA 
ENDROOT
BRANCH   2   3
ATOM      3  CG  MET A   1     -11.339   8.490  70.881  1.00  0.00    -0.268 C  
BRANCH   3   4
ATOM      4  CB  MET A   1     -10.708   9.821  70.471  1.00  0.00    -0.381 C  
BRANCH   4   5
ATOM      5  CA  MET A   1     -10.860  10.122  68.974  1.00  0.00    -0.224 C  
ATOM      6  C   MET A   1      -9.735  11.060  68.487  1.00  0.00    -0.189 C  
ATOM      7  N   MET A   1     -12.165  10.762  68.635  1.00  0.00    -0.827 NA 
ATOM      8  O   MET A   1     -10.196  11.908  67.527  1.00  0.00    -0.193 OA 
ATOM      9  OXT MET A   1      -8.576  11.045  68.865  1.00  0.00    -0.161 OA 
ATOM     10  H1  MET A   1     -12.266  10.962  67.640  1.00  0.00     0.000 HD 
ATOM     11  H2  MET A   1     -12.314  11.603  69.193  1.00  0.00     0.000 HD 
ENDBRANCH   4   5
ENDBRANCH   3   4
ENDBRANCH   2   3
TORSDOF 3
ENDMDL
MODEL      106
REMARK 921   NORMALIZED FREE ENERGY PREDICTED BY IDOCK:   -2.56 KCAL/MOL
REMARK 922        TOTAL FREE ENERGY PREDICTED BY IDOCK:   -3.06 KCAL/MOL
REMARK 923 INTER-LIGAND FREE ENERGY PREDICTED BY IDOCK:   -2.91 KCAL/MOL
REMARK 924 INTRA-LIGAND FREE ENERGY PREDICTED BY IDOCK:   -0.16 KCAL/MOL
REMARK 927      BINDING AFFINITY PREDICTED BY RF-SCORE:    0.00 PKD
ROOT
ATOM      1  CE  MET A   1     -12.944  10.767  71.616  1.00  0.00    -0.476 C  
ATOM      2  SD  MET A   1     -11.970  10.601  70.101  1.00  0.00    -0.349 SA 
ENDROOT
BRANCH   2   3
ATOM      3  CG  MET A   1     -11.236   8.963  70.410  1.00  0.00    -0.230 C  
BRANCH   3   4
ATOM      4  CB  MET A   1     -10.698   8.901  71.839  1.00  0.00    -0.426 C  
BRANCH   4   5
ATOM      5  CA  MET A   1     -11.141   7.640  72.594  1.00  0.00    -0.359 C  
ATOM      6  C   MET A   1     -10.227   6.445  72.249  1.00  0.00    -0.185 C  
ATOM      7  N   MET A   1     -12.547   7.241  72.291  1.00  0.00    -0.512 NA 
ATOM      8  O   MET A   1     -10.937   5.285  72.228  1.00  0.00    -0.228 OA 
ATOM      9  OXT MET A   1      -9.024   6.497  72.052  1.00  0.00    -0.140 OA 
ATOM     10  H1  MET A   1     -12.841   6.402  72.792  1.00  0.00     0.000 HD 
ATOM     11  H2  MET A   1     -12.686   7.131  71.286  1.00  0.00     0.000 HD 
ENDBRANCH   4   5
ENDBRANCH   3   4
ENDBRANCH   2   3
TORSDOF 3
ENDMDL
MODEL      107
REMARK 921   NORMALIZED FREE ENERGY PREDICTED BY IDOCK:   -2.55 KCAL/MOL
REMARK 922        TOTAL FREE ENERGY PREDICTED BY IDOCK:   -3.06 KCAL/MOL
REMARK 923 INTER-LIGAND FREE ENERGY PREDICTED BY IDOCK:   -3.01 KCAL/MOL
REMARK 924 INTRA-LIGAND FREE ENERGY PREDICTED BY IDOCK:   -0.05 KCAL/MOL
REMARK 927      BINDING AFFINITY PREDICTED BY RF-SCORE:    0.00 PKD
ROOT
ATOM      1  CE  MET A   1      -5.409  18.729  71.112  1.00  0.00    -0.256 C  
ATOM      2  SD  MET A   1      -5.128  20.516  71.118  1.00  0.00    -0.232 SA 
ENDROOT
BRANCH   2   3
ATOM      3  CG  MET A   1      -5.605  20.886  69.398  1.00  0.00    -0.345 C  
BRANCH   3   4
ATOM      4  CB  MET A   1      -6.630  19.859  68.916  1.00  0.00    -0.358 C  
BRANCH   4   5
ATOM      5  CA  MET A   1      -7.661  20.450  67.946  1.00  0.00    -0.208 C  
ATOM      6  C   MET A   1      -8.613  19.354  67.422  1.00  0.00    -0.297 C  
ATOM      7  N   MET A   1      -7.037  21.115  66.763  1.00  0.00    -0.667 NA 
ATOM      8  O   MET A   1      -8.966  19.598  66.131  1.00  0.00    -0.369 OA 
ATOM      9  OXT MET A   1      -9.036  18.407  68.063  1.00  0.00    -0.277 OA 
ATOM     10  H1  MET A   1      -7.723  21.508  66.118  1.00  0.00     0.000 HD 
ATOM     11  H2  MET A   1      -6.406  20.478  66.279  1.00  0.00     0.000 HD 
ENDBRANCH   4   5
ENDBRANCH   3   4
ENDBRANCH   2   3
TORSDOF 3
ENDMDL
MODEL      108
REMARK 921   NORMALIZED FREE ENERGY PREDICTED BY IDOCK:   -2.55 KCAL/MOL
REMARK 922        TOTAL FREE ENERGY PREDICTED BY IDOCK:   -3.05 KCAL/MOL
REMARK 923 INTER-LIGAND FREE ENERGY PREDICTED BY IDOCK:   -2.99 KCAL/MOL
REMARK 924 INTRA-LIGAND FREE ENERGY PREDICTED BY IDOCK:   -0.06 KCAL/MOL
REMARK 927      BINDING AFFINITY PREDICTED BY RF-SCORE:    0.00 PKD
ROOT
ATOM      1  CE  MET A   1     -11.454  14.255  66.574  1.00  0.00    -0.360 C  
ATOM      2  SD  MET A   1     -10.804  14.052  64.898  1.00  0.00    -0.427 SA 
ENDROOT
BRANCH   2   3
ATOM      3  CG  MET A   1     -10.041  12.408  65.084  1.00  0.00    -0.256 C  
BRANCH   3   4
ATOM      4  CB  MET A   1     -10.593  11.460  64.019  1.00  0.00    -0.444 C  
BRANCH   4   5
ATOM      5  CA  MET A   1      -9.499  10.649  63.312  1.00  0.00    -0.329 C  
ATOM      6  C   MET A   1      -8.779   9.715  64.308  1.00  0.00    -0.206 C  
ATOM      7  N   MET A   1      -8.464  11.504  62.660  1.00  0.00    -0.627 NA 
ATOM      8  O   MET A   1      -7.461   9.596  63.991  1.00  0.00    -0.117 OA 
ATOM      9  OXT MET A   1      -9.298   9.123  65.239  1.00  0.00    -0.229 OA 
ATOM     10  H1  MET A   1      -7.737  10.965  62.190  1.00  0.00     0.000 HD 
ATOM     11  H2  MET A   1      -8.057  12.157  63.329  1.00  0.00     0.000 HD 
ENDBRANCH   4   5
ENDBRANCH   3   4
ENDBRANCH   2   3
TORSDOF 3
ENDMDL
MODEL      109
REMARK 921   NORMALIZED FREE ENERGY PREDICTED BY IDOCK:   -2.54 KCAL/MOL
REMARK 922        TOTAL FREE ENERGY PREDICTED BY IDOCK:   -3.05 KCAL/MOL
REMARK 923 INTER-LIGAND FREE ENERGY PREDICTED BY IDOCK:   -2.93 KCAL/MOL
REMARK 924 INTRA-LIGAND FREE ENERGY PREDICTED BY IDOCK:   -0.12 KCAL/MOL
REMARK 927      BINDING AFFINITY PREDICTED BY RF-SCORE:    0.00 PKD
ROOT
ATOM      1  CE  MET A   1      -9.345  19.238  68.484  1.00  0.00    -0.388 C  
ATOM      2  SD  MET A   1     -10.186  17.976  67.498  1.00  0.00    -0.385 SA 
ENDROOT
BRANCH   2   3
ATOM      3  CG  MET A   1     -10.711  16.864  68.843  1.00  0.00    -0.321 C  
BRANCH   3   4
ATOM      4  CB  MET A   1     -11.227  15.552  68.254  1.00  0.00    -0.343 C  
BRANCH   4   5
ATOM      5  CA  MET A   1     -10.102  14.620  67.785  1.00  0.00    -0.228 C  
ATOM      6  C   MET A   1     -10.325  14.186  66.321  1.00  0.00    -0.292 C  
ATOM      7  N   MET A   1      -9.983  13.384  68.613  1.00  0.00    -0.380 NA 
ATOM      8  O   MET A   1      -9.898  12.908  66.126  1.00  0.00    -0.268 OA 
ATOM      9  OXT MET A   1     -10.785  14.880  65.430  1.00  0.00    -0.325 OA 
ATOM     10  H1  MET A   1      -9.235  12.764  68.301  1.00  0.00     0.000 HD 
ATOM     11  H2  MET A   1     -10.872  12.887  68.656  1.00  0.00     0.000 HD 
ENDBRANCH   4   5
ENDBRANCH   3   4
ENDBRANCH   2   3
TORSDOF 3
ENDMDL
MODEL      110
REMARK 921   NORMALIZED FREE ENERGY PREDICTED BY IDOCK:   -2.54 KCAL/MOL
REMARK 922        TOTAL FREE ENERGY PREDICTED BY IDOCK:   -3.05 KCAL/MOL
REMARK 923 INTER-LIGAND FREE ENERGY PREDICTED BY IDOCK:   -2.93 KCAL/MOL
REMARK 924 INTRA-LIGAND FREE ENERGY PREDICTED BY IDOCK:   -0.12 KCAL/MOL
REMARK 927      BINDING AFFINITY PREDICTED BY RF-SCORE:    0.00 PKD
ROOT
ATOM      1  CE  MET A   1     -10.193  13.049  66.684  1.00  0.00    -0.257 C  
ATOM      2  SD  MET A   1     -10.712  14.701  66.158  1.00  0.00    -0.324 SA 
ENDROOT
BRANCH   2   3
ATOM      3  CG  MET A   1     -11.014  15.440  67.796  1.00  0.00    -0.311 C  
BRANCH   3   4
ATOM      4  CB  MET A   1     -10.071  16.625  68.008  1.00  0.00    -0.262 C  
BRANCH   4   5
ATOM      5  CA  MET A   1     -10.227  17.715  66.941  1.00  0.00    -0.334 C  
ATOM      6  C   MET A   1      -8.852  18.127  66.372  1.00  0.00    -0.236 C  
ATOM      7  N   MET A   1     -10.894  18.947  67.456  1.00  0.00    -0.428 NA 
ATOM      8  O   MET A   1      -8.830  19.455  66.077  1.00  0.00    -0.411 OA 
ATOM      9  OXT MET A   1      -7.907  17.382  66.172  1.00  0.00    -0.368 OA 
ATOM     10  H1  MET A   1     -10.997  19.673  66.746  1.00  0.00     0.000 HD 
ATOM     11  H2  MET A   1     -10.408  19.308  68.277  1.00  0.00     0.000 HD 
ENDBRANCH   4   5
ENDBRANCH   3   4
ENDBRANCH   2   3
TORSDOF 3
ENDMDL
MODEL      111
REMARK 921   NORMALIZED FREE ENERGY PREDICTED BY IDOCK:   -2.54 KCAL/MOL
REMARK 922        TOTAL FREE ENERGY PREDICTED BY IDOCK:   -3.04 KCAL/MOL
REMARK 923 INTER-LIGAND FREE ENERGY PREDICTED BY IDOCK:   -2.91 KCAL/MOL
REMARK 924 INTRA-LIGAND FREE ENERGY PREDICTED BY IDOCK:   -0.13 KCAL/MOL
REMARK 927      BINDING AFFINITY PREDICTED BY RF-SCORE:    0.00 PKD
ROOT
ATOM      1  CE  MET A   1     -13.508  15.174  71.409  1.00  0.00    -0.481 C  
ATOM      2  SD  MET A   1     -11.823  15.513  71.971  1.00  0.00    -0.500 SA 
ENDROOT
BRANCH   2   3
ATOM      3  CG  MET A   1     -10.978  15.515  70.357  1.00  0.00    -0.339 C  
BRANCH   3   4
ATOM      4  CB  MET A   1     -11.885  14.886  69.300  1.00  0.00    -0.350 C  
BRANCH   4   5
ATOM      5  CA  MET A   1     -11.128  13.982  68.318  1.00  0.00    -0.254 C  
ATOM      6  C   MET A   1     -11.078  12.529  68.836  1.00  0.00    -0.260 C  
ATOM      7  N   MET A   1      -9.723  14.428  68.077  1.00  0.00    -0.215 NA 
ATOM      8  O   MET A   1      -9.901  11.936  68.496  1.00  0.00    -0.208 OA 
ATOM      9  OXT MET A   1     -11.967  11.953  69.440  1.00  0.00    -0.306 OA 
ATOM     10  H1  MET A   1      -9.220  13.828  67.424  1.00  0.00     0.000 HD 
ATOM     11  H2  MET A   1      -9.214  14.518  68.956  1.00  0.00     0.000 HD 
ENDBRANCH   4   5
ENDBRANCH   3   4
ENDBRANCH   2   3
TORSDOF 3
ENDMDL
MODEL      112
REMARK 921   NORMALIZED FREE ENERGY PREDICTED BY IDOCK:   -2.53 KCAL/MOL
REMARK 922        TOTAL FREE ENERGY PREDICTED BY IDOCK:   -3.03 KCAL/MOL
REMARK 923 INTER-LIGAND FREE ENERGY PREDICTED BY IDOCK:   -2.96 KCAL/MOL
REMARK 924 INTRA-LIGAND FREE ENERGY PREDICTED BY IDOCK:   -0.07 KCAL/MOL
REMARK 927      BINDING AFFINITY PREDICTED BY RF-SCORE:    0.00 PKD
ROOT
ATOM      1  CE  MET A   1      -8.264  10.681  67.156  1.00  0.00    -0.121 C  
ATOM      2  SD  MET A   1     -10.028  10.480  66.814  1.00  0.00    -0.211 SA 
ENDROOT
BRANCH   2   3
ATOM      3  CG  MET A   1     -10.594  10.024  68.485  1.00  0.00    -0.215 C  
BRANCH   3   4
ATOM      4  CB  MET A   1     -11.826  10.849  68.855  1.00  0.00    -0.340 C  
BRANCH   4   5
ATOM      5  CA  MET A   1     -11.720  11.500  70.240  1.00  0.00    -0.289 C  
ATOM      6  C   MET A   1     -12.683  10.825  71.239  1.00  0.00    -0.441 C  
ATOM      7  N   MET A   1     -12.030  12.960  70.225  1.00  0.00    -0.497 NA 
ATOM      8  O   MET A   1     -13.180  11.735  72.121  1.00  0.00    -0.498 OA 
ATOM      9  OXT MET A   1     -12.956   9.637  71.281  1.00  0.00    -0.345 OA 
ATOM     10  H1  MET A   1     -11.959  13.394  71.146  1.00  0.00     0.000 HD 
ATOM     11  H2  MET A   1     -12.946  13.134  69.810  1.00  0.00     0.000 HD 
ENDBRANCH   4   5
ENDBRANCH   3   4
ENDBRANCH   2   3
TORSDOF 3
ENDMDL
MODEL      113
REMARK 921   NORMALIZED FREE ENERGY PREDICTED BY IDOCK:   -2.52 KCAL/MOL
REMARK 922        TOTAL FREE ENERGY PREDICTED BY IDOCK:   -3.02 KCAL/MOL
REMARK 923 INTER-LIGAND FREE ENERGY PREDICTED BY IDOCK:   -2.98 KCAL/MOL
REMARK 924 INTRA-LIGAND FREE ENERGY PREDICTED BY IDOCK:   -0.04 KCAL/MOL
REMARK 927      BINDING AFFINITY PREDICTED BY RF-SCORE:    0.00 PKD
ROOT
ATOM      1  CE  MET A   1     -10.022  18.466  68.413  1.00  0.00    -0.379 C  
ATOM      2  SD  MET A   1     -11.013  17.051  67.877  1.00  0.00    -0.120 SA 
ENDROOT
BRANCH   2   3
ATOM      3  CG  MET A   1     -10.793  15.980  69.334  1.00  0.00    -0.300 C  
BRANCH   3   4
ATOM      4  CB  MET A   1     -12.124  15.834  70.072  1.00  0.00    -0.344 C  
BRANCH   4   5
ATOM      5  CA  MET A   1     -12.033  14.924  71.303  1.00  0.00    -0.340 C  
ATOM      6  C   MET A   1     -13.215  15.178  72.263  1.00  0.00    -0.379 C  
ATOM      7  N   MET A   1     -10.770  15.111  72.076  1.00  0.00    -0.080 NA 
ATOM      8  O   MET A   1     -12.824  15.036  73.558  1.00  0.00    -0.507 OA 
ATOM      9  OXT MET A   1     -14.360  15.439  71.935  1.00  0.00    -0.526 OA 
ATOM     10  H1  MET A   1     -10.709  14.506  72.895  1.00  0.00     0.000 HD 
ATOM     11  H2  MET A   1     -10.644  16.089  72.337  1.00  0.00     0.000 HD 
ENDBRANCH   4   5
ENDBRANCH   3   4
ENDBRANCH   2   3
TORSDOF 3
ENDMDL
MODEL      114
REMARK 921   NORMALIZED FREE ENERGY PREDICTED BY IDOCK:   -2.51 KCAL/MOL
REMARK 922        TOTAL FREE ENERGY PREDICTED BY IDOCK:   -3.02 KCAL/MOL
REMARK 923 INTER-LIGAND FREE ENERGY PREDICTED BY IDOCK:   -3.02 KCAL/MOL
REMARK 924 INTRA-LIGAND FREE ENERGY PREDICTED BY IDOCK:    0.01 KCAL/MOL
REMARK 927      BINDING AFFINITY PREDICTED BY RF-SCORE:    0.00 PKD
ROOT
ATOM      1  CE  MET A   1     -12.592  14.857  70.786  1.00  0.00    -0.354 C  
ATOM      2  SD  MET A   1     -11.997  13.471  69.787  1.00  0.00    -0.326 SA 
ENDROOT
BRANCH   2   3
ATOM      3  CG  MET A   1     -11.783  14.335  68.198  1.00  0.00    -0.350 C  
BRANCH   3   4
ATOM      4  CB  MET A   1     -10.920  15.580  68.401  1.00  0.00    -0.297 C  
BRANCH   4   5
ATOM      5  CA  MET A   1     -10.766  16.419  67.125  1.00  0.00    -0.233 C  
ATOM      6  C   MET A   1      -9.572  15.923  66.283  1.00  0.00    -0.316 C  
ATOM      7  N   MET A   1     -10.556  17.871  67.402  1.00  0.00    -0.383 NA 
ATOM      8  O   MET A   1      -8.954  16.964  65.661  1.00  0.00    -0.486 OA 
ATOM      9  OXT MET A   1      -9.225  14.761  66.146  1.00  0.00    -0.276 OA 
ATOM     10  H1  MET A   1     -10.453  18.429  66.554  1.00  0.00     0.000 HD 
ATOM     11  H2  MET A   1      -9.762  18.011  68.028  1.00  0.00     0.000 HD 
ENDBRANCH   4   5
ENDBRANCH   3   4
ENDBRANCH   2   3
TORSDOF 3
ENDMDL
MODEL      115
REMARK 921   NORMALIZED FREE ENERGY PREDICTED BY IDOCK:   -2.51 KCAL/MOL
REMARK 922        TOTAL FREE ENERGY PREDICTED BY IDOCK:   -3.01 KCAL/MOL
REMARK 923 INTER-LIGAND FREE ENERGY PREDICTED BY IDOCK:   -2.82 KCAL/MOL
REMARK 924 INTRA-LIGAND FREE ENERGY PREDICTED BY IDOCK:   -0.18 KCAL/MOL
REMARK 927      BINDING AFFINITY PREDICTED BY RF-SCORE:    0.00 PKD
ROOT
ATOM      1  CE  MET A   1     -14.288   8.276  71.768  1.00  0.00    -0.483 C  
ATOM      2  SD  MET A   1     -12.837   7.238  71.468  1.00  0.00    -0.377 SA 
ENDROOT
BRANCH   2   3
ATOM      3  CG  MET A   1     -11.614   8.164  72.452  1.00  0.00    -0.399 C  
BRANCH   3   4
ATOM      4  CB  MET A   1     -10.879   9.160  71.555  1.00  0.00    -0.436 C  
BRANCH   4   5
ATOM      5  CA  MET A   1     -11.030   8.848  70.061  1.00  0.00    -0.206 C  
ATOM      6  C   MET A   1      -9.678   8.425  69.449  1.00  0.00    -0.177 C  
ATOM      7  N   MET A   1     -11.545  10.006  69.271  1.00  0.00    -0.464 NA 
ATOM      8  O   MET A   1      -9.569   8.868  68.167  1.00  0.00    -0.142 OA 
ATOM      9  OXT MET A   1      -8.820   7.757  70.001  1.00  0.00    -0.140 OA 
ATOM     10  H1  MET A   1     -11.646   9.798  68.277  1.00  0.00     0.000 HD 
ATOM     11  H2  MET A   1     -10.963  10.831  69.413  1.00  0.00     0.000 HD 
ENDBRANCH   4   5
ENDBRANCH   3   4
ENDBRANCH   2   3
TORSDOF 3
ENDMDL
MODEL      116
REMARK 921   NORMALIZED FREE ENERGY PREDICTED BY IDOCK:   -2.50 KCAL/MOL
REMARK 922        TOTAL FREE ENERGY PREDICTED BY IDOCK:   -3.00 KCAL/MOL
REMARK 923 INTER-LIGAND FREE ENERGY PREDICTED BY IDOCK:   -2.93 KCAL/MOL
REMARK 924 INTRA-LIGAND FREE ENERGY PREDICTED BY IDOCK:   -0.07 KCAL/MOL
REMARK 927      BINDING AFFINITY PREDICTED BY RF-SCORE:    0.00 PKD
ROOT
ATOM      1  CE  MET A   1     -13.848  15.391  71.755  1.00  0.00    -0.519 C  
ATOM      2  SD  MET A   1     -12.061  15.504  71.498  1.00  0.00    -0.443 SA 
ENDROOT
BRANCH   2   3
ATOM      3  CG  MET A   1     -12.031  15.470  69.676  1.00  0.00    -0.359 C  
BRANCH   3   4
ATOM      4  CB  MET A   1     -10.597  15.266  69.188  1.00  0.00    -0.250 C  
BRANCH   4   5
ATOM      5  CA  MET A   1     -10.412  13.967  68.394  1.00  0.00    -0.253 C  
ATOM      6  C   MET A   1      -9.722  14.245  67.041  1.00  0.00    -0.253 C  
ATOM      7  N   MET A   1     -11.699  13.265  68.113  1.00  0.00    -0.342 NA 
ATOM      8  O   MET A   1     -10.198  13.412  66.076  1.00  0.00    -0.288 OA 
ATOM      9  OXT MET A   1      -8.844  15.067  66.840  1.00  0.00    -0.226 OA 
ATOM     10  H1  MET A   1     -11.576  12.401  67.584  1.00  0.00     0.000 HD 
ATOM     11  H2  MET A   1     -12.358  13.887  67.645  1.00  0.00     0.000 HD 
ENDBRANCH   4   5
ENDBRANCH   3   4
ENDBRANCH   2   3
TORSDOF 3
ENDMDL
MODEL      117
REMARK 921   NORMALIZED FREE ENERGY PREDICTED BY IDOCK:   -2.50 KCAL/MOL
REMARK 922        TOTAL FREE ENERGY PREDICTED BY IDOCK:   -3.00 KCAL/MOL
REMARK 923 INTER-LIGAND FREE ENERGY PREDICTED BY IDOCK:   -2.92 KCAL/MOL
REMARK 924 INTRA-LIGAND FREE ENERGY PREDICTED BY IDOCK:   -0.08 KCAL/MOL
REMARK 927      BINDING AFFINITY PREDICTED BY RF-SCORE:    0.00 PKD
ROOT
ATOM      1  CE  MET A   1     -12.435  15.411  70.490  1.00  0.00    -0.422 C  
ATOM      2  SD  MET A   1     -12.129  13.779  69.772  1.00  0.00    -0.325 SA 
ENDROOT
BRANCH   2   3
ATOM      3  CG  MET A   1     -11.226  14.290  68.274  1.00  0.00    -0.276 C  
BRANCH   3   4
ATOM      4  CB  MET A   1      -9.764  14.568  68.625  1.00  0.00    -0.221 C  
BRANCH   4   5
ATOM      5  CA  MET A   1      -8.949  15.087  67.433  1.00  0.00    -0.186 C  
ATOM      6  C   MET A   1      -9.208  16.591  67.205  1.00  0.00    -0.214 C  
ATOM      7  N   MET A   1      -9.256  14.373  66.159  1.00  0.00    -0.510 NA 
ATOM      8  O   MET A   1      -9.177  16.890  65.877  1.00  0.00    -0.500 OA 
ATOM      9  OXT MET A   1      -9.385  17.428  68.074  1.00  0.00    -0.262 OA 
ATOM     10  H1  MET A   1      -8.714  14.718  65.366  1.00  0.00     0.000 HD 
ATOM     11  H2  MET A   1     -10.256  14.404  65.956  1.00  0.00     0.000 HD 
ENDBRANCH   4   5
ENDBRANCH   3   4
ENDBRANCH   2   3
TORSDOF 3
ENDMDL
MODEL      118
REMARK 921   NORMALIZED FREE ENERGY PREDICTED BY IDOCK:   -2.48 KCAL/MOL
REMARK 922        TOTAL FREE ENERGY PREDICTED BY IDOCK:   -2.98 KCAL/MOL
REMARK 923 INTER-LIGAND FREE ENERGY PREDICTED BY IDOCK:   -2.83 KCAL/MOL
REMARK 924 INTRA-LIGAND FREE ENERGY PREDICTED BY IDOCK:   -0.15 KCAL/MOL
REMARK 927      BINDING AFFINITY PREDICTED BY RF-SCORE:    0.00 PKD
ROOT
ATOM      1  CE  MET A   1     -10.499   8.508  67.333  1.00  0.00    -0.280 C  
ATOM      2  SD  MET A   1     -10.110   9.817  68.519  1.00  0.00    -0.173 SA 
ENDROOT
BRANCH   2   3
ATOM      3  CG  MET A   1      -9.901   8.797  70.014  1.00  0.00    -0.178 C  
BRANCH   3   4
ATOM      4  CB  MET A   1     -10.917   9.223  71.074  1.00  0.00    -0.390 C  
BRANCH   4   5
ATOM      5  CA  MET A   1     -11.831   8.076  71.526  1.00  0.00    -0.292 C  
ATOM      6  C   MET A   1     -11.139   7.215  72.603  1.00  0.00    -0.292 C  
ATOM      7  N   MET A   1     -12.231   7.172  70.407  1.00  0.00    -0.596 NA 
ATOM      8  O   MET A   1     -11.489   5.906  72.473  1.00  0.00    -0.290 OA 
ATOM      9  OXT MET A   1     -10.402   7.625  73.484  1.00  0.00    -0.336 OA 
ATOM     10  H1  MET A   1     -12.839   6.410  70.707  1.00  0.00     0.000 HD 
ATOM     11  H2  MET A   1     -11.411   6.812  69.918  1.00  0.00     0.000 HD 
ENDBRANCH   4   5
ENDBRANCH   3   4
ENDBRANCH   2   3
TORSDOF 3
ENDMDL
MODEL      119
REMARK 921   NORMALIZED FREE ENERGY PREDICTED BY IDOCK:   -2.48 KCAL/MOL
REMARK 922        TOTAL FREE ENERGY PREDICTED BY IDOCK:   -2.98 KCAL/MOL
REMARK 923 INTER-LIGAND FREE ENERGY PREDICTED BY IDOCK:   -2.89 KCAL/MOL
REMARK 924 INTRA-LIGAND FREE ENERGY PREDICTED BY IDOCK:   -0.09 KCAL/MOL
REMARK 927      BINDING AFFINITY PREDICTED BY RF-SCORE:    0.00 PKD
ROOT
ATOM      1  CE  MET A   1      -8.696  16.094  66.862  1.00  0.00    -0.223 C  
ATOM      2  SD  MET A   1      -8.515  14.656  67.944  1.00  0.00    -0.170 SA 
ENDROOT
BRANCH   2   3
ATOM      3  CG  MET A   1     -10.201  14.600  68.631  1.00  0.00    -0.244 C  
BRANCH   3   4
ATOM      4  CB  MET A   1     -10.722  13.164  68.602  1.00  0.00    -0.274 C  
BRANCH   4   5
ATOM      5  CA  MET A   1     -11.998  13.004  67.765  1.00  0.00    -0.295 C  
ATOM      6  C   MET A   1     -11.739  12.110  66.534  1.00  0.00    -0.321 C  
ATOM      7  N   MET A   1     -12.544  14.305  67.277  1.00  0.00    -0.442 NA 
ATOM      8  O   MET A   1     -12.473  12.531  65.469  1.00  0.00    -0.646 OA 
ATOM      9  OXT MET A   1     -11.009  11.134  66.499  1.00  0.00    -0.271 OA 
ATOM     10  H1  MET A   1     -13.393  14.199  66.721  1.00  0.00     0.000 HD 
ATOM     11  H2  MET A   1     -11.835  14.827  66.763  1.00  0.00     0.000 HD 
ENDBRANCH   4   5
ENDBRANCH   3   4
ENDBRANCH   2   3
TORSDOF 3
ENDMDL
MODEL      120
REMARK 921   NORMALIZED FREE ENERGY PREDICTED BY IDOCK:   -2.47 KCAL/MOL
REMARK 922        TOTAL FREE ENERGY PREDICTED BY IDOCK:   -2.96 KCAL/MOL
REMARK 923 INTER-LIGAND FREE ENERGY PREDICTED BY IDOCK:   -2.89 KCAL/MOL
REMARK 924 INTRA-LIGAND FREE ENERGY PREDICTED BY IDOCK:   -0.07 KCAL/MOL
REMARK 927      BINDING AFFINITY PREDICTED BY RF-SCORE:    0.00 PKD
ROOT
ATOM      1  CE  MET A   1     -11.882  14.025  64.851  1.00  0.00    -0.393 C  
ATOM      2  SD  MET A   1     -11.330  12.366  65.316  1.00  0.00    -0.343 SA 
ENDROOT
BRANCH   2   3
ATOM      3  CG  MET A   1     -11.500  12.504  67.124  1.00  0.00    -0.351 C  
BRANCH   3   4
ATOM      4  CB  MET A   1     -11.641  11.110  67.736  1.00  0.00    -0.303 C  
BRANCH   4   5
ATOM      5  CA  MET A   1     -11.694  11.128  69.269  1.00  0.00    -0.331 C  
ATOM      6  C   MET A   1     -10.398  10.546  69.870  1.00  0.00    -0.114 C  
ATOM      7  N   MET A   1     -12.842  10.352  69.824  1.00  0.00    -0.586 NA 
ATOM      8  O   MET A   1     -10.662   9.864  71.018  1.00  0.00    -0.309 OA 
ATOM      9  OXT MET A   1      -9.273  10.688  69.421  1.00  0.00    -0.158 OA 
ATOM     10  H1  MET A   1     -12.878  10.365  70.843  1.00  0.00     0.000 HD 
ATOM     11  H2  MET A   1     -12.839   9.395  69.472  1.00  0.00     0.000 HD 
ENDBRANCH   4   5
ENDBRANCH   3   4
ENDBRANCH   2   3
TORSDOF 3
ENDMDL
MODEL      121
REMARK 921   NORMALIZED FREE ENERGY PREDICTED BY IDOCK:   -2.47 KCAL/MOL
REMARK 922        TOTAL FREE ENERGY PREDICTED BY IDOCK:   -2.96 KCAL/MOL
REMARK 923 INTER-LIGAND FREE ENERGY PREDICTED BY IDOCK:   -2.90 KCAL/MOL
REMARK 924 INTRA-LIGAND FREE ENERGY PREDICTED BY IDOCK:   -0.06 KCAL/MOL
REMARK 927      BINDING AFFINITY PREDICTED BY RF-SCORE:    0.00 PKD
ROOT
ATOM      1  CE  MET A   1     -11.242  15.458  70.487  1.00  0.00    -0.333 C  
ATOM      2  SD  MET A   1     -10.565  15.334  68.814  1.00  0.00    -0.250 SA 
ENDROOT
BRANCH   2   3
ATOM      3  CG  MET A   1     -10.881  17.038  68.251  1.00  0.00    -0.341 C  
BRANCH   3   4
ATOM      4  CB  MET A   1      -9.686  17.925  68.600  1.00  0.00    -0.355 C  
BRANCH   4   5
ATOM      5  CA  MET A   1      -8.717  18.118  67.426  1.00  0.00    -0.245 C  
ATOM      6  C   MET A   1      -7.824  19.356  67.649  1.00  0.00    -0.274 C  
ATOM      7  N   MET A   1      -9.413  18.288  66.116  1.00  0.00    -0.502 NA 
ATOM      8  O   MET A   1      -7.560  19.980  66.468  1.00  0.00    -0.267 OA 
ATOM      9  OXT MET A   1      -7.372  19.731  68.718  1.00  0.00    -0.334 OA 
ATOM     10  H1  MET A   1      -8.769  18.416  65.335  1.00  0.00     0.000 HD 
ATOM     11  H2  MET A   1     -10.088  19.050  66.158  1.00  0.00     0.000 HD 
ENDBRANCH   4   5
ENDBRANCH   3   4
ENDBRANCH   2   3
TORSDOF 3
ENDMDL
MODEL      122
REMARK 921   NORMALIZED FREE ENERGY PREDICTED BY IDOCK:   -2.46 KCAL/MOL
REMARK 922        TOTAL FREE ENERGY PREDICTED BY IDOCK:   -2.96 KCAL/MOL
REMARK 923 INTER-LIGAND FREE ENERGY PREDICTED BY IDOCK:   -2.81 KCAL/MOL
REMARK 924 INTRA-LIGAND FREE ENERGY PREDICTED BY IDOCK:   -0.15 KCAL/MOL
REMARK 927      BINDING AFFINITY PREDICTED BY RF-SCORE:    0.00 PKD
ROOT
ATOM      1  CE  MET A   1      -9.930  10.358  64.985  1.00  0.00    -0.330 C  
ATOM      2  SD  MET A   1      -8.292  10.748  65.646  1.00  0.00    -0.107 SA 
ENDROOT
BRANCH   2   3
ATOM      3  CG  MET A   1      -8.782  11.925  66.948  1.00  0.00    -0.191 C  
BRANCH   3   4
ATOM      4  CB  MET A   1     -10.253  12.302  66.774  1.00  0.00    -0.229 C  
BRANCH   4   5
ATOM      5  CA  MET A   1     -10.456  13.778  66.409  1.00  0.00    -0.284 C  
ATOM      6  C   MET A   1     -11.650  13.946  65.446  1.00  0.00    -0.325 C  
ATOM      7  N   MET A   1      -9.259  14.391  65.761  1.00  0.00    -0.487 NA 
ATOM      8  O   MET A   1     -11.418  14.952  64.560  1.00  0.00    -0.377 OA 
ATOM      9  OXT MET A   1     -12.687  13.305  65.472  1.00  0.00    -0.474 OA 
ATOM     10  H1  MET A   1      -9.394  15.372  65.519  1.00  0.00     0.000 HD 
ATOM     11  H2  MET A   1      -8.970  13.851  64.945  1.00  0.00     0.000 HD 
ENDBRANCH   4   5
ENDBRANCH   3   4
ENDBRANCH   2   3
TORSDOF 3
ENDMDL
MODEL      123
REMARK 921   NORMALIZED FREE ENERGY PREDICTED BY IDOCK:   -2.45 KCAL/MOL
REMARK 922        TOTAL FREE ENERGY PREDICTED BY IDOCK:   -2.94 KCAL/MOL
REMARK 923 INTER-LIGAND FREE ENERGY PREDICTED BY IDOCK:   -2.82 KCAL/MOL
REMARK 924 INTRA-LIGAND FREE ENERGY PREDICTED BY IDOCK:   -0.12 KCAL/MOL
REMARK 927      BINDING AFFINITY PREDICTED BY RF-SCORE:    0.00 PKD
ROOT
ATOM      1  CE  MET A   1     -10.800   6.613  68.801  1.00  0.00    -0.267 C  
ATOM      2  SD  MET A   1     -10.803   6.077  70.529  1.00  0.00    -0.319 SA 
ENDROOT
BRANCH   2   3
ATOM      3  CG  MET A   1     -12.033   7.247  71.190  1.00  0.00    -0.328 C  
BRANCH   3   4
ATOM      4  CB  MET A   1     -11.324   8.360  71.961  1.00  0.00    -0.411 C  
BRANCH   4   5
ATOM      5  CA  MET A   1      -9.802   8.350  71.766  1.00  0.00    -0.243 C  
ATOM      6  C   MET A   1      -9.078   8.127  73.111  1.00  0.00    -0.265 C  
ATOM      7  N   MET A   1      -9.280   9.617  71.173  1.00  0.00    -0.328 NA 
ATOM      8  O   MET A   1      -7.911   8.826  73.152  1.00  0.00    -0.395 OA 
ATOM      9  OXT MET A   1      -9.456   7.404  74.017  1.00  0.00    -0.262 OA 
ATOM     10  H1  MET A   1      -8.269   9.611  71.043  1.00  0.00     0.000 HD 
ATOM     11  H2  MET A   1      -9.571  10.424  71.724  1.00  0.00     0.000 HD 
ENDBRANCH   4   5
ENDBRANCH   3   4
ENDBRANCH   2   3
TORSDOF 3
ENDMDL
MODEL      124
REMARK 921   NORMALIZED FREE ENERGY PREDICTED BY IDOCK:   -2.45 KCAL/MOL
REMARK 922        TOTAL FREE ENERGY PREDICTED BY IDOCK:   -2.93 KCAL/MOL
REMARK 923 INTER-LIGAND FREE ENERGY PREDICTED BY IDOCK:   -2.91 KCAL/MOL
REMARK 924 INTRA-LIGAND FREE ENERGY PREDICTED BY IDOCK:   -0.03 KCAL/MOL
REMARK 927      BINDING AFFINITY PREDICTED BY RF-SCORE:    0.00 PKD
ROOT
ATOM      1  CE  MET A   1      -6.734  19.948  69.565  1.00  0.00    -0.312 C  
ATOM      2  SD  MET A   1      -6.155  18.245  69.370  1.00  0.00    -0.254 SA 
ENDROOT
BRANCH   2   3
ATOM      3  CG  MET A   1      -7.647  17.520  68.618  1.00  0.00    -0.273 C  
BRANCH   3   4
ATOM      4  CB  MET A   1      -8.644  18.628  68.280  1.00  0.00    -0.347 C  
BRANCH   4   5
ATOM      5  CA  MET A   1      -9.591  18.254  67.132  1.00  0.00    -0.281 C  
ATOM      6  C   MET A   1     -10.407  16.991  67.482  1.00  0.00    -0.329 C  
ATOM      7  N   MET A   1      -8.878  17.994  65.846  1.00  0.00    -0.485 NA 
ATOM      8  O   MET A   1     -10.623  16.234  66.372  1.00  0.00    -0.306 OA 
ATOM      9  OXT MET A   1     -10.841  16.702  68.584  1.00  0.00    -0.322 OA 
ATOM     10  H1  MET A   1      -9.508  17.746  65.083  1.00  0.00     0.000 HD 
ATOM     11  H2  MET A   1      -8.156  17.284  65.968  1.00  0.00     0.000 HD 
ENDBRANCH   4   5
ENDBRANCH   3   4
ENDBRANCH   2   3
TORSDOF 3
ENDMDL
MODEL      125
REMARK 921   NORMALIZED FREE ENERGY PREDICTED BY IDOCK:   -2.42 KCAL/MOL
REMARK 922        TOTAL FREE ENERGY PREDICTED BY IDOCK:   -2.90 KCAL/MOL
REMARK 923 INTER-LIGAND FREE ENERGY PREDICTED BY IDOCK:   -2.77 KCAL/MOL
REMARK 924 INTRA-LIGAND FREE ENERGY PREDICTED BY IDOCK:   -0.13 KCAL/MOL
REMARK 927      BINDING AFFINITY PREDICTED BY RF-SCORE:    0.00 PKD
ROOT
ATOM      1  CE  MET A   1      -9.689   8.786  68.271  1.00  0.00    -0.158 C  
ATOM      2  SD  MET A   1     -10.155   9.906  66.929  1.00  0.00    -0.236 SA 
ENDROOT
BRANCH   2   3
ATOM      3  CG  MET A   1     -11.216  11.052  67.869  1.00  0.00    -0.310 C  
BRANCH   3   4
ATOM      4  CB  MET A   1     -10.959  10.881  69.366  1.00  0.00    -0.304 C  
BRANCH   4   5
ATOM      5  CA  MET A   1     -12.249  10.765  70.188  1.00  0.00    -0.346 C  
ATOM      6  C   MET A   1     -12.510  12.059  70.987  1.00  0.00    -0.276 C  
ATOM      7  N   MET A   1     -12.225   9.628  71.156  1.00  0.00    -0.330 NA 
ATOM      8  O   MET A   1     -13.084  11.777  72.188  1.00  0.00    -0.452 OA 
ATOM      9  OXT MET A   1     -12.276  13.194  70.608  1.00  0.00    -0.361 OA 
ATOM     10  H1  MET A   1     -13.083   9.551  71.702  1.00  0.00     0.000 HD 
ATOM     11  H2  MET A   1     -11.410   9.687  71.766  1.00  0.00     0.000 HD 
ENDBRANCH   4   5
ENDBRANCH   3   4
ENDBRANCH   2   3
TORSDOF 3
ENDMDL
MODEL      126
REMARK 921   NORMALIZED FREE ENERGY PREDICTED BY IDOCK:   -2.41 KCAL/MOL
REMARK 922        TOTAL FREE ENERGY PREDICTED BY IDOCK:   -2.90 KCAL/MOL
REMARK 923 INTER-LIGAND FREE ENERGY PREDICTED BY IDOCK:   -2.72 KCAL/MOL
REMARK 924 INTRA-LIGAND FREE ENERGY PREDICTED BY IDOCK:   -0.18 KCAL/MOL
REMARK 927      BINDING AFFINITY PREDICTED BY RF-SCORE:    0.00 PKD
ROOT
ATOM      1  CE  MET A   1     -11.426  12.149  63.951  1.00  0.00    -0.440 C  
ATOM      2  SD  MET A   1     -11.162  13.876  64.419  1.00  0.00    -0.275 SA 
ENDROOT
BRANCH   2   3
ATOM      3  CG  MET A   1     -12.054  13.882  66.007  1.00  0.00    -0.437 C  
BRANCH   3   4
ATOM      4  CB  MET A   1     -11.777  12.580  66.758  1.00  0.00    -0.453 C  
BRANCH   4   5
ATOM      5  CA  MET A   1     -10.698  12.727  67.839  1.00  0.00    -0.219 C  
ATOM      6  C   MET A   1      -9.599  11.657  67.667  1.00  0.00    -0.181 C  
ATOM      7  N   MET A   1     -11.239  12.606  69.225  1.00  0.00    -0.395 NA 
ATOM      8  O   MET A   1      -9.124  11.255  68.877  1.00  0.00    -0.149 OA 
ATOM      9  OXT MET A   1      -9.170  11.235  66.606  1.00  0.00    -0.171 OA 
ATOM     10  H1  MET A   1     -10.522  12.704  69.944  1.00  0.00     0.000 HD 
ATOM     11  H2  MET A   1     -11.752  11.732  69.341  1.00  0.00     0.000 HD 
ENDBRANCH   4   5
ENDBRANCH   3   4
ENDBRANCH   2   3
TORSDOF 3
ENDMDL
MODEL      127
REMARK 921   NORMALIZED FREE ENERGY PREDICTED BY IDOCK:   -2.40 KCAL/MOL
REMARK 922        TOTAL FREE ENERGY PREDICTED BY IDOCK:   -2.88 KCAL/MOL
REMARK 923 INTER-LIGAND FREE ENERGY PREDICTED BY IDOCK:   -2.84 KCAL/MOL
REMARK 924 INTRA-LIGAND FREE ENERGY PREDICTED BY IDOCK:   -0.05 KCAL/MOL
REMARK 927      BINDING AFFINITY PREDICTED BY RF-SCORE:    0.00 PKD
ROOT
ATOM      1  CE  MET A   1      -9.199  10.397  65.834  1.00  0.00    -0.170 C  
ATOM      2  SD  MET A   1     -10.177  10.540  67.349  1.00  0.00    -0.224 SA 
ENDROOT
BRANCH   2   3
ATOM      3  CG  MET A   1     -10.672  12.287  67.207  1.00  0.00    -0.231 C  
BRANCH   3   4
ATOM      4  CB  MET A   1     -11.848  12.567  68.142  1.00  0.00    -0.371 C  
BRANCH   4   5
ATOM      5  CA  MET A   1     -11.738  13.918  68.860  1.00  0.00    -0.337 C  
ATOM      6  C   MET A   1     -12.417  13.861  70.245  1.00  0.00    -0.314 C  
ATOM      7  N   MET A   1     -12.359  15.039  68.094  1.00  0.00    -0.472 NA 
ATOM      8  O   MET A   1     -13.002  15.053  70.545  1.00  0.00    -0.349 OA 
ATOM      9  OXT MET A   1     -12.417  12.906  71.004  1.00  0.00    -0.371 OA 
ATOM     10  H1  MET A   1     -12.286  15.938  68.571  1.00  0.00     0.000 HD 
ATOM     11  H2  MET A   1     -13.330  14.828  67.863  1.00  0.00     0.000 HD 
ENDBRANCH   4   5
ENDBRANCH   3   4
ENDBRANCH   2   3
TORSDOF 3
ENDMDL
MODEL      128
REMARK 921   NORMALIZED FREE ENERGY PREDICTED BY IDOCK:   -2.40 KCAL/MOL
REMARK 922        TOTAL FREE ENERGY PREDICTED BY IDOCK:   -2.88 KCAL/MOL
REMARK 923 INTER-LIGAND FREE ENERGY PREDICTED BY IDOCK:   -2.73 KCAL/MOL
REMARK 924 INTRA-LIGAND FREE ENERGY PREDICTED BY IDOCK:   -0.15 KCAL/MOL
REMARK 927      BINDING AFFINITY PREDICTED BY RF-SCORE:    0.00 PKD
ROOT
ATOM      1  CE  MET A   1     -12.560  13.243  65.371  1.00  0.00    -0.468 C  
ATOM      2  SD  MET A   1     -10.985  13.367  64.489  1.00  0.00    -0.399 SA 
ENDROOT
BRANCH   2   3
ATOM      3  CG  MET A   1      -9.922  13.885  65.874  1.00  0.00    -0.300 C  
BRANCH   3   4
ATOM      4  CB  MET A   1      -9.366  12.652  66.586  1.00  0.00    -0.236 C  
BRANCH   4   5
ATOM      5  CA  MET A   1      -9.544  11.360  65.778  1.00  0.00    -0.233 C  
ATOM      6  C   MET A   1     -10.129  10.237  66.661  1.00  0.00    -0.223 C  
ATOM      7  N   MET A   1      -8.268  10.858  65.189  1.00  0.00    -0.365 NA 
ATOM      8  O   MET A   1      -9.619   9.027  66.303  1.00  0.00    -0.217 OA 
ATOM      9  OXT MET A   1     -10.960  10.378  67.542  1.00  0.00    -0.291 OA 
ATOM     10  H1  MET A   1      -8.386  10.000  64.651  1.00  0.00     0.000 HD 
ATOM     11  H2  MET A   1      -7.555  10.741  65.909  1.00  0.00     0.000 HD 
ENDBRANCH   4   5
ENDBRANCH   3   4
ENDBRANCH   2   3
TORSDOF 3
ENDMDL
MODEL      129
REMARK 921   NORMALIZED FREE ENERGY PREDICTED BY IDOCK:   -2.40 KCAL/MOL
REMARK 922        TOTAL FREE ENERGY PREDICTED BY IDOCK:   -2.88 KCAL/MOL
REMARK 923 INTER-LIGAND FREE ENERGY PREDICTED BY IDOCK:   -2.72 KCAL/MOL
REMARK 924 INTRA-LIGAND FREE ENERGY PREDICTED BY IDOCK:   -0.15 KCAL/MOL
REMARK 927      BINDING AFFINITY PREDICTED BY RF-SCORE:    0.00 PKD
ROOT
ATOM      1  CE  MET A   1      -8.891  11.947  68.293  1.00  0.00    -0.174 C  
ATOM      2  SD  MET A   1     -10.252  10.859  68.779  1.00  0.00    -0.202 SA 
ENDROOT
BRANCH   2   3
ATOM      3  CG  MET A   1     -11.544  12.116  69.043  1.00  0.00    -0.319 C  
BRANCH   3   4
ATOM      4  CB  MET A   1     -11.681  12.985  67.792  1.00  0.00    -0.405 C  
BRANCH   4   5
ATOM      5  CA  MET A   1     -12.021  14.447  68.110  1.00  0.00    -0.285 C  
ATOM      6  C   MET A   1     -10.754  15.327  68.062  1.00  0.00    -0.268 C  
ATOM      7  N   MET A   1     -12.648  14.623  69.453  1.00  0.00    -0.572 NA 
ATOM      8  O   MET A   1     -10.817  16.314  68.997  1.00  0.00    -0.273 OA 
ATOM      9  OXT MET A   1      -9.823  15.203  67.284  1.00  0.00    -0.225 OA 
ATOM     10  H1  MET A   1     -12.874  15.595  69.664  1.00  0.00     0.000 HD 
ATOM     11  H2  MET A   1     -12.063  14.218  70.184  1.00  0.00     0.000 HD 
ENDBRANCH   4   5
ENDBRANCH   3   4
ENDBRANCH   2   3
TORSDOF 3
ENDMDL
MODEL      130
REMARK 921   NORMALIZED FREE ENERGY PREDICTED BY IDOCK:   -2.40 KCAL/MOL
REMARK 922        TOTAL FREE ENERGY PREDICTED BY IDOCK:   -2.88 KCAL/MOL
REMARK 923 INTER-LIGAND FREE ENERGY PREDICTED BY IDOCK:   -2.82 KCAL/MOL
REMARK 924 INTRA-LIGAND FREE ENERGY PREDICTED BY IDOCK:   -0.06 KCAL/MOL
REMARK 927      BINDING AFFINITY PREDICTED BY RF-SCORE:    0.00 PKD
ROOT
ATOM      1  CE  MET A   1     -14.388   8.244  71.575  1.00  0.00    -0.428 C  
ATOM      2  SD  MET A   1     -13.385   9.749  71.580  1.00  0.00    -0.384 SA 
ENDROOT
BRANCH   2   3
ATOM      3  CG  MET A   1     -11.742   8.998  71.814  1.00  0.00    -0.369 C  
BRANCH   3   4
ATOM      4  CB  MET A   1     -11.897   7.514  72.147  1.00  0.00    -0.338 C  
BRANCH   4   5
ATOM      5  CA  MET A   1     -10.590   6.864  72.619  1.00  0.00    -0.233 C  
ATOM      6  C   MET A   1     -10.877   5.626  73.494  1.00  0.00    -0.255 C  
ATOM      7  N   MET A   1      -9.729   7.792  73.412  1.00  0.00    -0.298 NA 
ATOM      8  O   MET A   1      -9.946   5.504  74.479  1.00  0.00    -0.203 OA 
ATOM      9  OXT MET A   1     -11.785   4.828  73.330  1.00  0.00    -0.312 OA 
ATOM     10  H1  MET A   1      -8.860   7.360  73.726  1.00  0.00     0.000 HD 
ATOM     11  H2  MET A   1     -10.245   8.184  74.199  1.00  0.00     0.000 HD 
ENDBRANCH   4   5
ENDBRANCH   3   4
ENDBRANCH   2   3
TORSDOF 3
ENDMDL
MODEL      131
REMARK 921   NORMALIZED FREE ENERGY PREDICTED BY IDOCK:   -2.38 KCAL/MOL
REMARK 922        TOTAL FREE ENERGY PREDICTED BY IDOCK:   -2.86 KCAL/MOL
REMARK 923 INTER-LIGAND FREE ENERGY PREDICTED BY IDOCK:   -2.79 KCAL/MOL
REMARK 924 INTRA-LIGAND FREE ENERGY PREDICTED BY IDOCK:   -0.07 KCAL/MOL
REMARK 927      BINDING AFFINITY PREDICTED BY RF-SCORE:    0.00 PKD
ROOT
ATOM      1  CE  MET A   1      -8.282   8.599  64.056  1.00  0.00    -0.148 C  
ATOM      2  SD  MET A   1      -8.011   9.854  65.331  1.00  0.00    -0.141 SA 
ENDROOT
BRANCH   2   3
ATOM      3  CG  MET A   1      -9.726  10.039  65.919  1.00  0.00    -0.247 C  
BRANCH   3   4
ATOM      4  CB  MET A   1      -9.970  11.487  66.346  1.00  0.00    -0.241 C  
BRANCH   4   5
ATOM      5  CA  MET A   1     -11.452  11.882  66.310  1.00  0.00    -0.301 C  
ATOM      6  C   MET A   1     -11.710  12.943  65.219  1.00  0.00    -0.364 C  
ATOM      7  N   MET A   1     -11.941  12.435  67.607  1.00  0.00    -0.481 NA 
ATOM      8  O   MET A   1     -12.675  13.817  65.615  1.00  0.00    -0.509 OA 
ATOM      9  OXT MET A   1     -11.166  12.997  64.128  1.00  0.00    -0.362 OA 
ATOM     10  H1  MET A   1     -12.927  12.698  67.584  1.00  0.00     0.000 HD 
ATOM     11  H2  MET A   1     -11.363  13.218  67.911  1.00  0.00     0.000 HD 
ENDBRANCH   4   5
ENDBRANCH   3   4
ENDBRANCH   2   3
TORSDOF 3
ENDMDL
MODEL      132
REMARK 921   NORMALIZED FREE ENERGY PREDICTED BY IDOCK:   -2.38 KCAL/MOL
REMARK 922        TOTAL FREE ENERGY PREDICTED BY IDOCK:   -2.86 KCAL/MOL
REMARK 923 INTER-LIGAND FREE ENERGY PREDICTED BY IDOCK:   -2.76 KCAL/MOL
REMARK 924 INTRA-LIGAND FREE ENERGY PREDICTED BY IDOCK:   -0.09 KCAL/MOL
REMARK 927      BINDING AFFINITY PREDICTED BY RF-SCORE:    0.00 PKD
ROOT
ATOM      1  CE  MET A   1      -6.809  20.844  67.601  1.00  0.00    -0.334 C  
ATOM      2  SD  MET A   1      -6.970  19.495  68.795  1.00  0.00    -0.347 SA 
ENDROOT
BRANCH   2   3
ATOM      3  CG  MET A   1      -8.444  18.676  68.106  1.00  0.00    -0.312 C  
BRANCH   3   4
ATOM      4  CB  MET A   1      -8.021  17.452  67.294  1.00  0.00    -0.218 C  
BRANCH   4   5
ATOM      5  CA  MET A   1      -8.860  16.205  67.604  1.00  0.00    -0.186 C  
ATOM      6  C   MET A   1     -10.045  16.084  66.624  1.00  0.00    -0.279 C  
ATOM      7  N   MET A   1      -9.413  16.203  68.991  1.00  0.00    -0.236 NA 
ATOM      8  O   MET A   1     -11.135  15.560  67.247  1.00  0.00    -0.319 OA 
ATOM      9  OXT MET A   1     -10.029  16.377  65.440  1.00  0.00    -0.534 OA 
ATOM     10  H1  MET A   1      -9.971  15.374  69.197  1.00  0.00     0.000 HD 
ATOM     11  H2  MET A   1      -9.945  17.054  69.172  1.00  0.00     0.000 HD 
ENDBRANCH   4   5
ENDBRANCH   3   4
ENDBRANCH   2   3
TORSDOF 3
ENDMDL
MODEL      133
REMARK 921   NORMALIZED FREE ENERGY PREDICTED BY IDOCK:   -2.37 KCAL/MOL
REMARK 922        TOTAL FREE ENERGY PREDICTED BY IDOCK:   -2.85 KCAL/MOL
REMARK 923 INTER-LIGAND FREE ENERGY PREDICTED BY IDOCK:   -2.74 KCAL/MOL
REMARK 924 INTRA-LIGAND FREE ENERGY PREDICTED BY IDOCK:   -0.10 KCAL/MOL
REMARK 927      BINDING AFFINITY PREDICTED BY RF-SCORE:    0.00 PKD
ROOT
ATOM      1  CE  MET A   1     -10.198  12.699  65.207  1.00  0.00    -0.284 C  
ATOM      2  SD  MET A   1     -11.930  12.903  65.687  1.00  0.00    -0.459 SA 
ENDROOT
BRANCH   2   3
ATOM      3  CG  MET A   1     -11.837  12.243  67.382  1.00  0.00    -0.257 C  
BRANCH   3   4
ATOM      4  CB  MET A   1     -11.889  13.394  68.387  1.00  0.00    -0.401 C  
BRANCH   4   5
ATOM      5  CA  MET A   1     -10.503  13.961  68.722  1.00  0.00    -0.221 C  
ATOM      6  C   MET A   1     -10.158  15.148  67.797  1.00  0.00    -0.230 C  
ATOM      7  N   MET A   1      -9.411  12.952  68.594  1.00  0.00    -0.407 NA 
ATOM      8  O   MET A   1      -8.827  15.168  67.515  1.00  0.00    -0.171 OA 
ATOM      9  OXT MET A   1     -10.941  15.988  67.387  1.00  0.00    -0.315 OA 
ATOM     10  H1  MET A   1      -8.490  13.329  68.817  1.00  0.00     0.000 HD 
ATOM     11  H2  MET A   1      -9.415  12.526  67.667  1.00  0.00     0.000 HD 
ENDBRANCH   4   5
ENDBRANCH   3   4
ENDBRANCH   2   3
TORSDOF 3
ENDMDL
MODEL      134
REMARK 921   NORMALIZED FREE ENERGY PREDICTED BY IDOCK:   -2.36 KCAL/MOL
REMARK 922        TOTAL FREE ENERGY PREDICTED BY IDOCK:   -2.83 KCAL/MOL
REMARK 923 INTER-LIGAND FREE ENERGY PREDICTED BY IDOCK:   -2.81 KCAL/MOL
REMARK 924 INTRA-LIGAND FREE ENERGY PREDICTED BY IDOCK:   -0.02 KCAL/MOL
REMARK 927      BINDING AFFINITY PREDICTED BY RF-SCORE:    0.00 PKD
ROOT
ATOM      1  CE  MET A   1     -14.096  15.228  71.810  1.00  0.00    -0.555 C  
ATOM      2  SD  MET A   1     -12.616  14.231  71.516  1.00  0.00    -0.360 SA 
ENDROOT
BRANCH   2   3
ATOM      3  CG  MET A   1     -12.462  14.469  69.717  1.00  0.00    -0.215 C  
BRANCH   3   4
ATOM      4  CB  MET A   1     -10.987  14.441  69.318  1.00  0.00    -0.281 C  
BRANCH   4   5
ATOM      5  CA  MET A   1     -10.618  15.530  68.302  1.00  0.00    -0.255 C  
ATOM      6  C   MET A   1     -10.762  15.006  66.858  1.00  0.00    -0.308 C  
ATOM      7  N   MET A   1      -9.222  16.035  68.467  1.00  0.00    -0.199 NA 
ATOM      8  O   MET A   1      -9.810  15.547  66.051  1.00  0.00    -0.284 OA 
ATOM      9  OXT MET A   1     -11.621  14.238  66.457  1.00  0.00    -0.349 OA 
ATOM     10  H1  MET A   1      -8.976  16.759  67.791  1.00  0.00     0.000 HD 
ATOM     11  H2  MET A   1      -8.551  15.266  68.436  1.00  0.00     0.000 HD 
ENDBRANCH   4   5
ENDBRANCH   3   4
ENDBRANCH   2   3
TORSDOF 3
ENDMDL
MODEL      135
REMARK 921   NORMALIZED FREE ENERGY PREDICTED BY IDOCK:   -2.35 KCAL/MOL
REMARK 922        TOTAL FREE ENERGY PREDICTED BY IDOCK:   -2.82 KCAL/MOL
REMARK 923 INTER-LIGAND FREE ENERGY PREDICTED BY IDOCK:   -2.68 KCAL/MOL
REMARK 924 INTRA-LIGAND FREE ENERGY PREDICTED BY IDOCK:   -0.15 KCAL/MOL
REMARK 927      BINDING AFFINITY PREDICTED BY RF-SCORE:    0.00 PKD
ROOT
ATOM      1  CE  MET A   1     -11.022  15.434  67.237  1.00  0.00    -0.317 C  
ATOM      2  SD  MET A   1     -10.912  14.043  66.086  1.00  0.00    -0.299 SA 
ENDROOT
BRANCH   2   3
ATOM      3  CG  MET A   1     -11.878  12.817  67.026  1.00  0.00    -0.361 C  
BRANCH   3   4
ATOM      4  CB  MET A   1     -11.350  12.733  68.458  1.00  0.00    -0.326 C  
BRANCH   4   5
ATOM      5  CA  MET A   1     -10.826  11.339  68.825  1.00  0.00    -0.208 C  
ATOM      6  C   MET A   1      -9.353  11.175  68.396  1.00  0.00    -0.185 C  
ATOM      7  N   MET A   1     -11.609  10.235  68.194  1.00  0.00    -0.696 NA 
ATOM      8  O   MET A   1      -9.106   9.899  67.993  1.00  0.00    -0.122 OA 
ATOM      9  OXT MET A   1      -8.495  12.042  68.433  1.00  0.00    -0.163 OA 
ATOM     10  H1  MET A   1     -11.261   9.308  68.438  1.00  0.00     0.000 HD 
ATOM     11  H2  MET A   1     -11.653  10.352  67.182  1.00  0.00     0.000 HD 
ENDBRANCH   4   5
ENDBRANCH   3   4
ENDBRANCH   2   3
TORSDOF 3
ENDMDL
MODEL      136
REMARK 921   NORMALIZED FREE ENERGY PREDICTED BY IDOCK:   -2.32 KCAL/MOL
REMARK 922        TOTAL FREE ENERGY PREDICTED BY IDOCK:   -2.79 KCAL/MOL
REMARK 923 INTER-LIGAND FREE ENERGY PREDICTED BY IDOCK:   -2.66 KCAL/MOL
REMARK 924 INTRA-LIGAND FREE ENERGY PREDICTED BY IDOCK:   -0.13 KCAL/MOL
REMARK 927      BINDING AFFINITY PREDICTED BY RF-SCORE:    0.00 PKD
ROOT
ATOM      1  CE  MET A   1      -6.975  13.514  68.895  1.00  0.00    -0.108 C  
ATOM      2  SD  MET A   1      -7.990  12.944  67.511  1.00  0.00    -0.184 SA 
ENDROOT
BRANCH   2   3
ATOM      3  CG  MET A   1      -8.915  14.479  67.182  1.00  0.00    -0.230 C  
BRANCH   3   4
ATOM      4  CB  MET A   1     -10.328  14.361  67.752  1.00  0.00    -0.238 C  
BRANCH   4   5
ATOM      5  CA  MET A   1     -11.354  13.875  66.719  1.00  0.00    -0.333 C  
ATOM      6  C   MET A   1     -11.777  12.420  67.009  1.00  0.00    -0.353 C  
ATOM      7  N   MET A   1     -10.844  13.931  65.317  1.00  0.00    -0.316 NA 
ATOM      8  O   MET A   1     -12.008  11.745  65.850  1.00  0.00    -0.405 OA 
ATOM      9  OXT MET A   1     -11.926  11.923  68.112  1.00  0.00    -0.496 OA 
ATOM     10  H1  MET A   1     -11.525  13.608  64.631  1.00  0.00     0.000 HD 
ATOM     11  H2  MET A   1      -9.967  13.418  65.228  1.00  0.00     0.000 HD 
ENDBRANCH   4   5
ENDBRANCH   3   4
ENDBRANCH   2   3
TORSDOF 3
ENDMDL
MODEL      137
REMARK 921   NORMALIZED FREE ENERGY PREDICTED BY IDOCK:   -2.32 KCAL/MOL
REMARK 922        TOTAL FREE ENERGY PREDICTED BY IDOCK:   -2.79 KCAL/MOL
REMARK 923 INTER-LIGAND FREE ENERGY PREDICTED BY IDOCK:   -2.63 KCAL/MOL
REMARK 924 INTRA-LIGAND FREE ENERGY PREDICTED BY IDOCK:   -0.16 KCAL/MOL
REMARK 927      BINDING AFFINITY PREDICTED BY RF-SCORE:    0.00 PKD
ROOT
ATOM      1  CE  MET A   1      -9.923   6.130  70.646  1.00  0.00    -0.188 C  
ATOM      2  SD  MET A   1     -11.562   6.829  70.333  1.00  0.00    -0.352 SA 
ENDROOT
BRANCH   2   3
ATOM      3  CG  MET A   1     -11.628   8.029  71.703  1.00  0.00    -0.275 C  
BRANCH   3   4
ATOM      4  CB  MET A   1     -11.396   9.440  71.163  1.00  0.00    -0.422 C  
BRANCH   4   5
ATOM      5  CA  MET A   1     -11.127   9.470  69.653  1.00  0.00    -0.171 C  
ATOM      6  C   MET A   1      -9.637   9.753  69.366  1.00  0.00    -0.207 C  
ATOM      7  N   MET A   1     -11.933  10.501  68.935  1.00  0.00    -0.694 NA 
ATOM      8  O   MET A   1      -9.497  10.503  68.240  1.00  0.00    -0.147 OA 
ATOM      9  OXT MET A   1      -8.692   9.346  70.021  1.00  0.00    -0.170 OA 
ATOM     10  H1  MET A   1     -11.754  10.521  67.931  1.00  0.00     0.000 HD 
ATOM     11  H2  MET A   1     -11.794  11.424  69.348  1.00  0.00     0.000 HD 
ENDBRANCH   4   5
ENDBRANCH   3   4
ENDBRANCH   2   3
TORSDOF 3
ENDMDL
MODEL      138
REMARK 921   NORMALIZED FREE ENERGY PREDICTED BY IDOCK:   -2.32 KCAL/MOL
REMARK 922        TOTAL FREE ENERGY PREDICTED BY IDOCK:   -2.79 KCAL/MOL
REMARK 923 INTER-LIGAND FREE ENERGY PREDICTED BY IDOCK:   -2.66 KCAL/MOL
REMARK 924 INTRA-LIGAND FREE ENERGY PREDICTED BY IDOCK:   -0.13 KCAL/MOL
REMARK 927      BINDING AFFINITY PREDICTED BY RF-SCORE:    0.00 PKD
ROOT
ATOM      1  CE  MET A   1      -6.734  12.386  67.216  1.00  0.00    -0.133 C  
ATOM      2  SD  MET A   1      -8.322  12.383  68.083  1.00  0.00    -0.180 SA 
ENDROOT
BRANCH   2   3
ATOM      3  CG  MET A   1      -9.290  11.388  66.903  1.00  0.00    -0.181 C  
BRANCH   3   4
ATOM      4  CB  MET A   1      -9.952  12.306  65.876  1.00  0.00    -0.272 C  
BRANCH   4   5
ATOM      5  CA  MET A   1     -11.392  12.682  66.244  1.00  0.00    -0.329 C  
ATOM      6  C   MET A   1     -11.476  14.154  66.700  1.00  0.00    -0.366 C  
ATOM      7  N   MET A   1     -11.957  11.835  67.337  1.00  0.00    -0.612 NA 
ATOM      8  O   MET A   1     -12.409  14.304  67.680  1.00  0.00    -0.265 OA 
ATOM      9  OXT MET A   1     -10.834  15.084  66.241  1.00  0.00    -0.321 OA 
ATOM     10  H1  MET A   1     -12.915  12.085  67.582  1.00  0.00     0.000 HD 
ATOM     11  H2  MET A   1     -11.354  11.853  68.159  1.00  0.00     0.000 HD 
ENDBRANCH   4   5
ENDBRANCH   3   4
ENDBRANCH   2   3
TORSDOF 3
ENDMDL
MODEL      139
REMARK 921   NORMALIZED FREE ENERGY PREDICTED BY IDOCK:   -2.32 KCAL/MOL
REMARK 922        TOTAL FREE ENERGY PREDICTED BY IDOCK:   -2.79 KCAL/MOL
REMARK 923 INTER-LIGAND FREE ENERGY PREDICTED BY IDOCK:   -2.53 KCAL/MOL
REMARK 924 INTRA-LIGAND FREE ENERGY PREDICTED BY IDOCK:   -0.26 KCAL/MOL
REMARK 927      BINDING AFFINITY PREDICTED BY RF-SCORE:    0.00 PKD
ROOT
ATOM      1  CE  MET A   1      -6.803  20.827  67.628  1.00  0.00    -0.336 C  
ATOM      2  SD  MET A   1      -6.852  19.697  69.040  1.00  0.00    -0.343 SA 
ENDROOT
BRANCH   2   3
ATOM      3  CG  MET A   1      -8.343  18.749  68.597  1.00  0.00    -0.325 C  
BRANCH   3   4
ATOM      4  CB  MET A   1      -7.945  17.342  68.150  1.00  0.00    -0.233 C  
BRANCH   4   5
ATOM      5  CA  MET A   1      -7.902  17.185  66.625  1.00  0.00    -0.262 C  
ATOM      6  C   MET A   1      -6.468  17.387  66.092  1.00  0.00    -0.194 C  
ATOM      7  N   MET A   1      -8.792  18.150  65.912  1.00  0.00    -0.473 NA 
ATOM      8  O   MET A   1      -6.486  17.995  64.875  1.00  0.00    -0.148 OA 
ATOM      9  OXT MET A   1      -5.441  17.031  66.647  1.00  0.00    -0.211 OA 
ATOM     10  H1  MET A   1      -8.764  18.045  64.898  1.00  0.00     0.000 HD 
ATOM     11  H2  MET A   1      -8.582  19.109  66.185  1.00  0.00     0.000 HD 
ENDBRANCH   4   5
ENDBRANCH   3   4
ENDBRANCH   2   3
TORSDOF 3
ENDMDL
MODEL      140
REMARK 921   NORMALIZED FREE ENERGY PREDICTED BY IDOCK:   -2.32 KCAL/MOL
REMARK 922        TOTAL FREE ENERGY PREDICTED BY IDOCK:   -2.78 KCAL/MOL
REMARK 923 INTER-LIGAND FREE ENERGY PREDICTED BY IDOCK:   -2.70 KCAL/MOL
REMARK 924 INTRA-LIGAND FREE ENERGY PREDICTED BY IDOCK:   -0.08 KCAL/MOL
REMARK 927      BINDING AFFINITY PREDICTED BY RF-SCORE:    0.00 PKD
ROOT
ATOM      1  CE  MET A   1      -9.068  16.961  66.653  1.00  0.00    -0.255 C  
ATOM      2  SD  MET A   1      -9.182  15.276  67.301  1.00  0.00    -0.206 SA 
ENDROOT
BRANCH   2   3
ATOM      3  CG  MET A   1     -10.543  14.660  66.258  1.00  0.00    -0.306 C  
BRANCH   3   4
ATOM      4  CB  MET A   1     -11.211  13.464  66.937  1.00  0.00    -0.330 C  
BRANCH   4   5
ATOM      5  CA  MET A   1     -11.693  12.401  65.942  1.00  0.00    -0.419 C  
ATOM      6  C   MET A   1     -10.599  11.340  65.698  1.00  0.00    -0.244 C  
ATOM      7  N   MET A   1     -12.078  12.972  64.616  1.00  0.00    -0.385 NA 
ATOM      8  O   MET A   1     -10.629  10.903  64.409  1.00  0.00    -0.360 OA 
ATOM      9  OXT MET A   1      -9.822  10.907  66.533  1.00  0.00    -0.193 OA 
ATOM     10  H1  MET A   1     -12.399  12.265  63.955  1.00  0.00     0.000 HD 
ATOM     11  H2  MET A   1     -11.314  13.520  64.221  1.00  0.00     0.000 HD 
ENDBRANCH   4   5
ENDBRANCH   3   4
ENDBRANCH   2   3
TORSDOF 3
ENDMDL
MODEL      141
REMARK 921   NORMALIZED FREE ENERGY PREDICTED BY IDOCK:   -2.31 KCAL/MOL
REMARK 922        TOTAL FREE ENERGY PREDICTED BY IDOCK:   -2.78 KCAL/MOL
REMARK 923 INTER-LIGAND FREE ENERGY PREDICTED BY IDOCK:   -2.66 KCAL/MOL
REMARK 924 INTRA-LIGAND FREE ENERGY PREDICTED BY IDOCK:   -0.11 KCAL/MOL
REMARK 927      BINDING AFFINITY PREDICTED BY RF-SCORE:    0.00 PKD
ROOT
ATOM      1  CE  MET A   1      -6.359  14.516  70.106  1.00  0.00    -0.168 C  
ATOM      2  SD  MET A   1      -7.523  14.285  68.741  1.00  0.00    -0.127 SA 
ENDROOT
BRANCH   2   3
ATOM      3  CG  MET A   1      -8.733  15.576  69.174  1.00  0.00    -0.247 C  
BRANCH   3   4
ATOM      4  CB  MET A   1     -10.095  15.228  68.574  1.00  0.00    -0.222 C  
BRANCH   4   5
ATOM      5  CA  MET A   1     -10.695  16.370  67.744  1.00  0.00    -0.328 C  
ATOM      6  C   MET A   1     -10.259  16.263  66.267  1.00  0.00    -0.327 C  
ATOM      7  N   MET A   1     -10.301  17.723  68.238  1.00  0.00    -0.375 NA 
ATOM      8  O   MET A   1     -10.090  17.499  65.723  1.00  0.00    -0.551 OA 
ATOM      9  OXT MET A   1     -10.111  15.229  65.637  1.00  0.00    -0.319 OA 
ATOM     10  H1  MET A   1     -10.701  18.482  67.686  1.00  0.00     0.000 HD 
ATOM     11  H2  MET A   1      -9.287  17.808  68.294  1.00  0.00     0.000 HD 
ENDBRANCH   4   5
ENDBRANCH   3   4
ENDBRANCH   2   3
TORSDOF 3
ENDMDL
MODEL      142
REMARK 921   NORMALIZED FREE ENERGY PREDICTED BY IDOCK:   -2.31 KCAL/MOL
REMARK 922        TOTAL FREE ENERGY PREDICTED BY IDOCK:   -2.77 KCAL/MOL
REMARK 923 INTER-LIGAND FREE ENERGY PREDICTED BY IDOCK:   -2.51 KCAL/MOL
REMARK 924 INTRA-LIGAND FREE ENERGY PREDICTED BY IDOCK:   -0.26 KCAL/MOL
REMARK 927      BINDING AFFINITY PREDICTED BY RF-SCORE:    0.00 PKD
ROOT
ATOM      1  CE  MET A   1      -9.685   4.478  71.631  1.00  0.00    -0.175 C  
ATOM      2  SD  MET A   1      -8.419   5.765  71.520  1.00  0.00    -0.129 SA 
ENDROOT
BRANCH   2   3
ATOM      3  CG  MET A   1      -8.971   6.578  69.986  1.00  0.00    -0.144 C  
BRANCH   3   4
ATOM      4  CB  MET A   1      -9.678   7.890  70.324  1.00  0.00    -0.183 C  
BRANCH   4   5
ATOM      5  CA  MET A   1     -11.206   7.789  70.236  1.00  0.00    -0.206 C  
ATOM      6  C   MET A   1     -11.828   7.628  71.640  1.00  0.00    -0.291 C  
ATOM      7  N   MET A   1     -11.670   6.643  69.399  1.00  0.00    -0.648 NA 
ATOM      8  O   MET A   1     -12.924   6.824  71.593  1.00  0.00    -0.345 OA 
ATOM      9  OXT MET A   1     -11.434   8.163  72.663  1.00  0.00    -0.392 OA 
ATOM     10  H1  MET A   1     -12.686   6.576  69.341  1.00  0.00     0.000 HD 
ATOM     11  H2  MET A   1     -11.266   5.766  69.727  1.00  0.00     0.000 HD 
ENDBRANCH   4   5
ENDBRANCH   3   4
ENDBRANCH   2   3
TORSDOF 3
ENDMDL
MODEL      143
REMARK 921   NORMALIZED FREE ENERGY PREDICTED BY IDOCK:   -2.30 KCAL/MOL
REMARK 922        TOTAL FREE ENERGY PREDICTED BY IDOCK:   -2.76 KCAL/MOL
REMARK 923 INTER-LIGAND FREE ENERGY PREDICTED BY IDOCK:   -2.73 KCAL/MOL
REMARK 924 INTRA-LIGAND FREE ENERGY PREDICTED BY IDOCK:   -0.03 KCAL/MOL
REMARK 927      BINDING AFFINITY PREDICTED BY RF-SCORE:    0.00 PKD
ROOT
ATOM      1  CE  MET A   1     -14.382   8.257  71.835  1.00  0.00    -0.476 C  
ATOM      2  SD  MET A   1     -12.981   9.400  71.826  1.00  0.00    -0.435 SA 
ENDROOT
BRANCH   2   3
ATOM      3  CG  MET A   1     -11.639   8.210  72.148  1.00  0.00    -0.357 C  
BRANCH   3   4
ATOM      4  CB  MET A   1     -11.886   6.928  71.353  1.00  0.00    -0.373 C  
BRANCH   4   5
ATOM      5  CA  MET A   1     -11.041   6.841  70.075  1.00  0.00    -0.315 C  
ATOM      6  C   MET A   1      -9.698   6.134  70.353  1.00  0.00    -0.169 C  
ATOM      7  N   MET A   1     -10.738   8.178  69.482  1.00  0.00    -0.325 NA 
ATOM      8  O   MET A   1      -8.703   6.672  69.595  1.00  0.00    -0.137 OA 
ATOM      9  OXT MET A   1      -9.525   5.197  71.114  1.00  0.00    -0.143 OA 
ATOM     10  H1  MET A   1     -10.176   8.120  68.633  1.00  0.00     0.000 HD 
ATOM     11  H2  MET A   1     -10.297   8.789  70.169  1.00  0.00     0.000 HD 
ENDBRANCH   4   5
ENDBRANCH   3   4
ENDBRANCH   2   3
TORSDOF 3
ENDMDL
MODEL      144
REMARK 921   NORMALIZED FREE ENERGY PREDICTED BY IDOCK:   -2.29 KCAL/MOL
REMARK 922        TOTAL FREE ENERGY PREDICTED BY IDOCK:   -2.76 KCAL/MOL
REMARK 923 INTER-LIGAND FREE ENERGY PREDICTED BY IDOCK:   -2.63 KCAL/MOL
REMARK 924 INTRA-LIGAND FREE ENERGY PREDICTED BY IDOCK:   -0.13 KCAL/MOL
REMARK 927      BINDING AFFINITY PREDICTED BY RF-SCORE:    0.00 PKD
ROOT
ATOM      1  CE  MET A   1     -12.686  12.570  64.530  1.00  0.00    -0.354 C  
ATOM      2  SD  MET A   1     -11.060  12.416  63.753  1.00  0.00    -0.480 SA 
ENDROOT
BRANCH   2   3
ATOM      3  CG  MET A   1     -10.014  12.691  65.219  1.00  0.00    -0.197 C  
BRANCH   3   4
ATOM      4  CB  MET A   1      -9.843  11.379  65.984  1.00  0.00    -0.256 C  
BRANCH   4   5
ATOM      5  CA  MET A   1     -10.411  11.434  67.408  1.00  0.00    -0.205 C  
ATOM      6  C   MET A   1      -9.313  11.130  68.449  1.00  0.00    -0.185 C  
ATOM      7  N   MET A   1     -11.529  10.470  67.630  1.00  0.00    -0.591 NA 
ATOM      8  O   MET A   1      -9.827  10.446  69.507  1.00  0.00    -0.222 OA 
ATOM      9  OXT MET A   1      -8.144  11.471  68.378  1.00  0.00    -0.136 OA 
ATOM     10  H1  MET A   1     -11.906  10.507  68.577  1.00  0.00     0.000 HD 
ATOM     11  H2  MET A   1     -11.244   9.521  67.389  1.00  0.00     0.000 HD 
ENDBRANCH   4   5
ENDBRANCH   3   4
ENDBRANCH   2   3
TORSDOF 3
ENDMDL
MODEL      145
REMARK 921   NORMALIZED FREE ENERGY PREDICTED BY IDOCK:   -2.29 KCAL/MOL
REMARK 922        TOTAL FREE ENERGY PREDICTED BY IDOCK:   -2.75 KCAL/MOL
REMARK 923 INTER-LIGAND FREE ENERGY PREDICTED BY IDOCK:   -2.76 KCAL/MOL
REMARK 924 INTRA-LIGAND FREE ENERGY PREDICTED BY IDOCK:    0.02 KCAL/MOL
REMARK 927      BINDING AFFINITY PREDICTED BY RF-SCORE:    0.00 PKD
ROOT
ATOM      1  CE  MET A   1     -11.001  10.383  67.380  1.00  0.00    -0.270 C  
ATOM      2  SD  MET A   1     -10.163  11.601  68.421  1.00  0.00    -0.211 SA 
ENDROOT
BRANCH   2   3
ATOM      3  CG  MET A   1     -11.615  12.292  69.279  1.00  0.00    -0.324 C  
BRANCH   3   4
ATOM      4  CB  MET A   1     -12.020  13.612  68.624  1.00  0.00    -0.395 C  
BRANCH   4   5
ATOM      5  CA  MET A   1     -11.196  13.940  67.373  1.00  0.00    -0.312 C  
ATOM      6  C   MET A   1     -10.896  15.452  67.294  1.00  0.00    -0.316 C  
ATOM      7  N   MET A   1     -11.876  13.544  66.104  1.00  0.00    -0.369 NA 
ATOM      8  O   MET A   1     -10.892  15.877  66.001  1.00  0.00    -0.305 OA 
ATOM      9  OXT MET A   1     -10.659  16.186  68.239  1.00  0.00    -0.263 OA 
ATOM     10  H1  MET A   1     -11.328  13.762  65.272  1.00  0.00     0.000 HD 
ATOM     11  H2  MET A   1     -12.806  13.957  66.045  1.00  0.00     0.000 HD 
ENDBRANCH   4   5
ENDBRANCH   3   4
ENDBRANCH   2   3
TORSDOF 3
ENDMDL
MODEL      146
REMARK 921   NORMALIZED FREE ENERGY PREDICTED BY IDOCK:   -2.28 KCAL/MOL
REMARK 922        TOTAL FREE ENERGY PREDICTED BY IDOCK:   -2.74 KCAL/MOL
REMARK 923 INTER-LIGAND FREE ENERGY PREDICTED BY IDOCK:   -2.60 KCAL/MOL
REMARK 924 INTRA-LIGAND FREE ENERGY PREDICTED BY IDOCK:   -0.14 KCAL/MOL
REMARK 927      BINDING AFFINITY PREDICTED BY RF-SCORE:    0.00 PKD
ROOT
ATOM      1  CE  MET A   1      -5.822  20.088  70.759  1.00  0.00    -0.321 C  
ATOM      2  SD  MET A   1      -6.350  19.616  69.094  1.00  0.00    -0.329 SA 
ENDROOT
BRANCH   2   3
ATOM      3  CG  MET A   1      -6.869  17.903  69.433  1.00  0.00    -0.120 C  
BRANCH   3   4
ATOM      4  CB  MET A   1      -6.671  17.048  68.182  1.00  0.00    -0.153 C  
BRANCH   4   5
ATOM      5  CA  MET A   1      -7.963  16.847  67.380  1.00  0.00    -0.170 C  
ATOM      6  C   MET A   1      -8.059  17.871  66.229  1.00  0.00    -0.231 C  
ATOM      7  N   MET A   1      -9.195  16.981  68.212  1.00  0.00    -0.247 NA 
ATOM      8  O   MET A   1      -9.352  18.244  66.022  1.00  0.00    -0.505 OA 
ATOM      9  OXT MET A   1      -7.129  18.282  65.556  1.00  0.00    -0.523 OA 
ATOM     10  H1  MET A   1     -10.054  16.848  67.679  1.00  0.00     0.000 HD 
ATOM     11  H2  MET A   1      -9.207  17.875  68.704  1.00  0.00     0.000 HD 
ENDBRANCH   4   5
ENDBRANCH   3   4
ENDBRANCH   2   3
TORSDOF 3
ENDMDL
MODEL      147
REMARK 921   NORMALIZED FREE ENERGY PREDICTED BY IDOCK:   -2.27 KCAL/MOL
REMARK 922        TOTAL FREE ENERGY PREDICTED BY IDOCK:   -2.73 KCAL/MOL
REMARK 923 INTER-LIGAND FREE ENERGY PREDICTED BY IDOCK:   -2.64 KCAL/MOL
REMARK 924 INTRA-LIGAND FREE ENERGY PREDICTED BY IDOCK:   -0.08 KCAL/MOL
REMARK 927      BINDING AFFINITY PREDICTED BY RF-SCORE:    0.00 PKD
ROOT
ATOM      1  CE  MET A   1      -7.347   9.795  66.040  1.00  0.00    -0.102 C  
ATOM      2  SD  MET A   1      -8.864   9.645  67.013  1.00  0.00    -0.131 SA 
ENDROOT
BRANCH   2   3
ATOM      3  CG  MET A   1      -9.484  11.350  66.843  1.00  0.00    -0.179 C  
BRANCH   3   4
ATOM      4  CB  MET A   1     -11.000  11.368  67.033  1.00  0.00    -0.347 C  
BRANCH   4   5
ATOM      5  CA  MET A   1     -11.497  12.609  67.787  1.00  0.00    -0.322 C  
ATOM      6  C   MET A   1     -11.965  13.699  66.800  1.00  0.00    -0.414 C  
ATOM      7  N   MET A   1     -10.456  13.211  68.671  1.00  0.00    -0.322 NA 
ATOM      8  O   MET A   1     -11.681  14.940  67.282  1.00  0.00    -0.362 OA 
ATOM      9  OXT MET A   1     -12.543  13.509  65.743  1.00  0.00    -0.464 OA 
ATOM     10  H1  MET A   1     -10.786  14.036  69.172  1.00  0.00     0.000 HD 
ATOM     11  H2  MET A   1      -9.607  13.421  68.145  1.00  0.00     0.000 HD 
ENDBRANCH   4   5
ENDBRANCH   3   4
ENDBRANCH   2   3
TORSDOF 3
ENDMDL
MODEL      148
REMARK 921   NORMALIZED FREE ENERGY PREDICTED BY IDOCK:   -2.26 KCAL/MOL
REMARK 922        TOTAL FREE ENERGY PREDICTED BY IDOCK:   -2.72 KCAL/MOL
REMARK 923 INTER-LIGAND FREE ENERGY PREDICTED BY IDOCK:   -2.54 KCAL/MOL
REMARK 924 INTRA-LIGAND FREE ENERGY PREDICTED BY IDOCK:   -0.17 KCAL/MOL
REMARK 927      BINDING AFFINITY PREDICTED BY RF-SCORE:    0.00 PKD
ROOT
ATOM      1  CE  MET A   1     -10.784   5.722  71.560  1.00  0.00    -0.258 C  
ATOM      2  SD  MET A   1     -12.166   6.881  71.424  1.00  0.00    -0.373 SA 
ENDROOT
BRANCH   2   3
ATOM      3  CG  MET A   1     -11.411   8.325  72.240  1.00  0.00    -0.384 C  
BRANCH   3   4
ATOM      4  CB  MET A   1     -11.307   9.482  71.247  1.00  0.00    -0.446 C  
BRANCH   4   5
ATOM      5  CA  MET A   1      -9.931   9.576  70.576  1.00  0.00    -0.273 C  
ATOM      6  C   MET A   1      -9.873   8.685  69.317  1.00  0.00    -0.188 C  
ATOM      7  N   MET A   1      -8.812   9.166  71.476  1.00  0.00    -0.337 NA 
ATOM      8  O   MET A   1      -8.632   8.148  69.162  1.00  0.00    -0.133 OA 
ATOM      9  OXT MET A   1     -10.785   8.496  68.530  1.00  0.00    -0.151 OA 
ATOM     10  H1  MET A   1      -7.897   9.229  71.029  1.00  0.00     0.000 HD 
ATOM     11  H2  MET A   1      -8.971   8.231  71.851  1.00  0.00     0.000 HD 
ENDBRANCH   4   5
ENDBRANCH   3   4
ENDBRANCH   2   3
TORSDOF 3
ENDMDL
MODEL      149
REMARK 921   NORMALIZED FREE ENERGY PREDICTED BY IDOCK:   -2.26 KCAL/MOL
REMARK 922        TOTAL FREE ENERGY PREDICTED BY IDOCK:   -2.71 KCAL/MOL
REMARK 923 INTER-LIGAND FREE ENERGY PREDICTED BY IDOCK:   -2.74 KCAL/MOL
REMARK 924 INTRA-LIGAND FREE ENERGY PREDICTED BY IDOCK:    0.03 KCAL/MOL
REMARK 927      BINDING AFFINITY PREDICTED BY RF-SCORE:    0.00 PKD
ROOT
ATOM      1  CE  MET A   1      -8.485   9.144  65.025  1.00  0.00    -0.171 C  
ATOM      2  SD  MET A   1      -9.909  10.253  64.907  1.00  0.00    -0.323 SA 
ENDROOT
BRANCH   2   3
ATOM      3  CG  MET A   1      -9.485  11.408  66.250  1.00  0.00    -0.209 C  
BRANCH   3   4
ATOM      4  CB  MET A   1     -10.006  10.865  67.581  1.00  0.00    -0.197 C  
BRANCH   4   5
ATOM      5  CA  MET A   1     -11.299  11.549  68.044  1.00  0.00    -0.298 C  
ATOM      6  C   MET A   1     -10.985  12.841  68.828  1.00  0.00    -0.250 C  
ATOM      7  N   MET A   1     -12.141  10.679  68.917  1.00  0.00    -0.756 NA 
ATOM      8  O   MET A   1     -11.890  13.030  69.827  1.00  0.00    -0.308 OA 
ATOM      9  OXT MET A   1     -10.080  13.622  68.589  1.00  0.00    -0.230 OA 
ATOM     10  H1  MET A   1     -13.000  11.133  69.225  1.00  0.00     0.000 HD 
ATOM     11  H2  MET A   1     -11.605  10.336  69.714  1.00  0.00     0.000 HD 
ENDBRANCH   4   5
ENDBRANCH   3   4
ENDBRANCH   2   3
TORSDOF 3
ENDMDL
MODEL      150
REMARK 921   NORMALIZED FREE ENERGY PREDICTED BY IDOCK:   -2.25 KCAL/MOL
REMARK 922        TOTAL FREE ENERGY PREDICTED BY IDOCK:   -2.70 KCAL/MOL
REMARK 923 INTER-LIGAND FREE ENERGY PREDICTED BY IDOCK:   -2.65 KCAL/MOL
REMARK 924 INTRA-LIGAND FREE ENERGY PREDICTED BY IDOCK:   -0.06 KCAL/MOL
REMARK 927      BINDING AFFINITY PREDICTED BY RF-SCORE:    0.00 PKD
ROOT
ATOM      1  CE  MET A   1     -10.957  15.487  69.247  1.00  0.00    -0.268 C  
ATOM      2  SD  MET A   1      -9.926  15.531  67.761  1.00  0.00    -0.223 SA 
ENDROOT
BRANCH   2   3
ATOM      3  CG  MET A   1      -8.683  16.744  68.310  1.00  0.00    -0.227 C  
BRANCH   3   4
ATOM      4  CB  MET A   1      -9.348  18.106  68.514  1.00  0.00    -0.321 C  
BRANCH   4   5
ATOM      5  CA  MET A   1      -8.343  19.263  68.574  1.00  0.00    -0.366 C  
ATOM      6  C   MET A   1      -8.398  20.105  67.282  1.00  0.00    -0.341 C  
ATOM      7  N   MET A   1      -6.934  18.804  68.758  1.00  0.00    -0.294 NA 
ATOM      8  O   MET A   1      -7.161  20.570  66.955  1.00  0.00    -0.270 OA 
ATOM      9  OXT MET A   1      -9.401  20.366  66.639  1.00  0.00    -0.336 OA 
ATOM     10  H1  MET A   1      -6.265  19.574  68.798  1.00  0.00     0.000 HD 
ATOM     11  H2  MET A   1      -6.672  18.132  68.037  1.00  0.00     0.000 HD 
ENDBRANCH   4   5
ENDBRANCH   3   4
ENDBRANCH   2   3
TORSDOF 3
ENDMDL
MODEL      151
REMARK 921   NORMALIZED FREE ENERGY PREDICTED BY IDOCK:   -2.22 KCAL/MOL
REMARK 922        TOTAL FREE ENERGY PREDICTED BY IDOCK:   -2.67 KCAL/MOL
REMARK 923 INTER-LIGAND FREE ENERGY PREDICTED BY IDOCK:   -2.59 KCAL/MOL
REMARK 924 INTRA-LIGAND FREE ENERGY PREDICTED BY IDOCK:   -0.07 KCAL/MOL
REMARK 927      BINDING AFFINITY PREDICTED BY RF-SCORE:    0.00 PKD
ROOT
ATOM      1  CE  MET A   1      -7.674   5.379  69.368  1.00  0.00    -0.085 C  
ATOM      2  SD  MET A   1      -9.294   5.489  68.571  1.00  0.00    -0.125 SA 
ENDROOT
BRANCH   2   3
ATOM      3  CG  MET A   1     -10.344   5.523  70.059  1.00  0.00    -0.288 C  
BRANCH   3   4
ATOM      4  CB  MET A   1     -11.531   6.459  69.831  1.00  0.00    -0.483 C  
BRANCH   4   5
ATOM      5  CA  MET A   1     -11.525   7.675  70.767  1.00  0.00    -0.277 C  
ATOM      6  C   MET A   1     -12.899   7.850  71.448  1.00  0.00    -0.280 C  
ATOM      7  N   MET A   1     -11.199   8.951  70.064  1.00  0.00    -0.402 NA 
ATOM      8  O   MET A   1     -13.189   9.169  71.618  1.00  0.00    -0.340 OA 
ATOM      9  OXT MET A   1     -13.631   6.950  71.825  1.00  0.00    -0.312 OA 
ATOM     10  H1  MET A   1     -11.195   9.760  70.686  1.00  0.00     0.000 HD 
ATOM     11  H2  MET A   1     -11.827   9.103  69.274  1.00  0.00     0.000 HD 
ENDBRANCH   4   5
ENDBRANCH   3   4
ENDBRANCH   2   3
TORSDOF 3
ENDMDL
MODEL      152
REMARK 921   NORMALIZED FREE ENERGY PREDICTED BY IDOCK:   -2.22 KCAL/MOL
REMARK 922        TOTAL FREE ENERGY PREDICTED BY IDOCK:   -2.66 KCAL/MOL
REMARK 923 INTER-LIGAND FREE ENERGY PREDICTED BY IDOCK:   -2.61 KCAL/MOL
REMARK 924 INTRA-LIGAND FREE ENERGY PREDICTED BY IDOCK:   -0.06 KCAL/MOL
REMARK 927      BINDING AFFINITY PREDICTED BY RF-SCORE:    0.00 PKD
ROOT
ATOM      1  CE  MET A   1     -14.124  15.208  71.796  1.00  0.00    -0.548 C  
ATOM      2  SD  MET A   1     -12.690  14.126  71.579  1.00  0.00    -0.367 SA 
ENDROOT
BRANCH   2   3
ATOM      3  CG  MET A   1     -12.423  14.361  69.792  1.00  0.00    -0.217 C  
BRANCH   3   4
ATOM      4  CB  MET A   1     -10.938  14.195  69.467  1.00  0.00    -0.176 C  
BRANCH   4   5
ATOM      5  CA  MET A   1     -10.406  15.277  68.520  1.00  0.00    -0.231 C  
ATOM      6  C   MET A   1      -9.053  15.827  69.020  1.00  0.00    -0.245 C  
ATOM      7  N   MET A   1     -11.339  16.433  68.369  1.00  0.00    -0.335 NA 
ATOM      8  O   MET A   1      -8.939  17.154  68.742  1.00  0.00    -0.264 OA 
ATOM      9  OXT MET A   1      -8.173  15.180  69.562  1.00  0.00    -0.224 OA 
ATOM     10  H1  MET A   1     -10.985  17.153  67.739  1.00  0.00     0.000 HD 
ATOM     11  H2  MET A   1     -11.577  16.830  69.277  1.00  0.00     0.000 HD 
ENDBRANCH   4   5
ENDBRANCH   3   4
ENDBRANCH   2   3
TORSDOF 3
ENDMDL
MODEL      153
REMARK 921   NORMALIZED FREE ENERGY PREDICTED BY IDOCK:   -2.21 KCAL/MOL
REMARK 922        TOTAL FREE ENERGY PREDICTED BY IDOCK:   -2.66 KCAL/MOL
REMARK 923 INTER-LIGAND FREE ENERGY PREDICTED BY IDOCK:   -2.58 KCAL/MOL
REMARK 924 INTRA-LIGAND FREE ENERGY PREDICTED BY IDOCK:   -0.08 KCAL/MOL
REMARK 927      BINDING AFFINITY PREDICTED BY RF-SCORE:    0.00 PKD
ROOT
ATOM      1  CE  MET A   1      -7.765   5.478  69.287  1.00  0.00    -0.087 C  
ATOM      2  SD  MET A   1      -9.346   6.170  68.744  1.00  0.00    -0.122 SA 
ENDROOT
BRANCH   2   3
ATOM      3  CG  MET A   1     -10.415   5.512  70.064  1.00  0.00    -0.303 C  
BRANCH   3   4
ATOM      4  CB  MET A   1     -11.489   6.541  70.418  1.00  0.00    -0.465 C  
BRANCH   4   5
ATOM      5  CA  MET A   1     -11.745   6.649  71.926  1.00  0.00    -0.313 C  
ATOM      6  C   MET A   1     -10.900   7.782  72.546  1.00  0.00    -0.328 C  
ATOM      7  N   MET A   1     -11.429   5.390  72.665  1.00  0.00    -0.273 NA 
ATOM      8  O   MET A   1     -10.501   7.453  73.805  1.00  0.00    -0.346 OA 
ATOM      9  OXT MET A   1     -10.639   8.851  72.020  1.00  0.00    -0.341 OA 
ATOM     10  H1  MET A   1     -11.599   5.462  73.668  1.00  0.00     0.000 HD 
ATOM     11  H2  MET A   1     -10.473   5.089  72.479  1.00  0.00     0.000 HD 
ENDBRANCH   4   5
ENDBRANCH   3   4
ENDBRANCH   2   3
TORSDOF 3
ENDMDL
MODEL      154
REMARK 921   NORMALIZED FREE ENERGY PREDICTED BY IDOCK:   -2.21 KCAL/MOL
REMARK 922        TOTAL FREE ENERGY PREDICTED BY IDOCK:   -2.65 KCAL/MOL
REMARK 923 INTER-LIGAND FREE ENERGY PREDICTED BY IDOCK:   -2.54 KCAL/MOL
REMARK 924 INTRA-LIGAND FREE ENERGY PREDICTED BY IDOCK:   -0.12 KCAL/MOL
REMARK 927      BINDING AFFINITY PREDICTED BY RF-SCORE:    0.00 PKD
ROOT
ATOM      1  CE  MET A   1     -12.649  14.009  65.407  1.00  0.00    -0.505 C  
ATOM      2  SD  MET A   1     -11.826  12.445  65.026  1.00  0.00    -0.377 SA 
ENDROOT
BRANCH   2   3
ATOM      3  CG  MET A   1     -11.216  12.028  66.692  1.00  0.00    -0.327 C  
BRANCH   3   4
ATOM      4  CB  MET A   1     -10.509  10.674  66.658  1.00  0.00    -0.296 C  
BRANCH   4   5
ATOM      5  CA  MET A   1      -9.017  10.766  67.006  1.00  0.00    -0.141 C  
ATOM      6  C   MET A   1      -8.819  10.950  68.526  1.00  0.00    -0.153 C  
ATOM      7  N   MET A   1      -8.324  11.894  66.316  1.00  0.00    -0.391 NA 
ATOM      8  O   MET A   1      -7.747  11.749  68.779  1.00  0.00    -0.130 OA 
ATOM      9  OXT MET A   1      -9.492  10.437  69.404  1.00  0.00    -0.216 OA 
ATOM     10  H1  MET A   1      -7.333  11.956  66.548  1.00  0.00     0.000 HD 
ATOM     11  H2  MET A   1      -8.796  12.779  66.501  1.00  0.00     0.000 HD 
ENDBRANCH   4   5
ENDBRANCH   3   4
ENDBRANCH   2   3
TORSDOF 3
ENDMDL
MODEL      155
REMARK 921   NORMALIZED FREE ENERGY PREDICTED BY IDOCK:   -2.20 KCAL/MOL
REMARK 922        TOTAL FREE ENERGY PREDICTED BY IDOCK:   -2.65 KCAL/MOL
REMARK 923 INTER-LIGAND FREE ENERGY PREDICTED BY IDOCK:   -2.59 KCAL/MOL
REMARK 924 INTRA-LIGAND FREE ENERGY PREDICTED BY IDOCK:   -0.06 KCAL/MOL
REMARK 927      BINDING AFFINITY PREDICTED BY RF-SCORE:    0.00 PKD
ROOT
ATOM      1  CE  MET A   1      -7.458  19.777  67.659  1.00  0.00    -0.279 C  
ATOM      2  SD  MET A   1      -7.868  18.148  68.331  1.00  0.00    -0.302 SA 
ENDROOT
BRANCH   2   3
ATOM      3  CG  MET A   1      -9.209  17.695  67.185  1.00  0.00    -0.245 C  
BRANCH   3   4
ATOM      4  CB  MET A   1      -9.327  16.173  67.106  1.00  0.00    -0.225 C  
BRANCH   4   5
ATOM      5  CA  MET A   1     -10.778  15.687  66.997  1.00  0.00    -0.314 C  
ATOM      6  C   MET A   1     -11.069  14.588  68.040  1.00  0.00    -0.276 C  
ATOM      7  N   MET A   1     -11.110  15.135  65.650  1.00  0.00    -0.341 NA 
ATOM      8  O   MET A   1     -11.936  13.666  67.541  1.00  0.00    -0.363 OA 
ATOM      9  OXT MET A   1     -10.626  14.542  69.176  1.00  0.00    -0.244 OA 
ATOM     10  H1  MET A   1     -12.075  14.812  65.577  1.00  0.00     0.000 HD 
ATOM     11  H2  MET A   1     -10.458  14.396  65.388  1.00  0.00     0.000 HD 
ENDBRANCH   4   5
ENDBRANCH   3   4
ENDBRANCH   2   3
TORSDOF 3
ENDMDL
MODEL      156
REMARK 921   NORMALIZED FREE ENERGY PREDICTED BY IDOCK:   -2.19 KCAL/MOL
REMARK 922        TOTAL FREE ENERGY PREDICTED BY IDOCK:   -2.63 KCAL/MOL
REMARK 923 INTER-LIGAND FREE ENERGY PREDICTED BY IDOCK:   -2.53 KCAL/MOL
REMARK 924 INTRA-LIGAND FREE ENERGY PREDICTED BY IDOCK:   -0.10 KCAL/MOL
REMARK 927      BINDING AFFINITY PREDICTED BY RF-SCORE:    0.00 PKD
ROOT
ATOM      1  CE  MET A   1      -9.920   7.573  70.561  1.00  0.00    -0.184 C  
ATOM      2  SD  MET A   1     -10.762   9.099  71.045  1.00  0.00    -0.323 SA 
ENDROOT
BRANCH   2   3
ATOM      3  CG  MET A   1     -10.175  10.187  69.707  1.00  0.00    -0.247 C  
BRANCH   3   4
ATOM      4  CB  MET A   1     -10.514   9.567  68.352  1.00  0.00    -0.261 C  
BRANCH   4   5
ATOM      5  CA  MET A   1     -10.997  10.597  67.323  1.00  0.00    -0.284 C  
ATOM      6  C   MET A   1      -9.808  11.389  66.740  1.00  0.00    -0.206 C  
ATOM      7  N   MET A   1     -11.966  11.581  67.892  1.00  0.00    -0.641 NA 
ATOM      8  O   MET A   1     -10.166  12.678  66.486  1.00  0.00    -0.236 OA 
ATOM      9  OXT MET A   1      -8.700  10.943  66.496  1.00  0.00    -0.152 OA 
ATOM     10  H1  MET A   1     -12.287  12.266  67.208  1.00  0.00     0.000 HD 
ATOM     11  H2  MET A   1     -11.576  12.043  68.713  1.00  0.00     0.000 HD 
ENDBRANCH   4   5
ENDBRANCH   3   4
ENDBRANCH   2   3
TORSDOF 3
ENDMDL
MODEL      157
REMARK 921   NORMALIZED FREE ENERGY PREDICTED BY IDOCK:   -2.19 KCAL/MOL
REMARK 922        TOTAL FREE ENERGY PREDICTED BY IDOCK:   -2.63 KCAL/MOL
REMARK 923 INTER-LIGAND FREE ENERGY PREDICTED BY IDOCK:   -2.46 KCAL/MOL
REMARK 924 INTRA-LIGAND FREE ENERGY PREDICTED BY IDOCK:   -0.17 KCAL/MOL
REMARK 927      BINDING AFFINITY PREDICTED BY RF-SCORE:    0.00 PKD
ROOT
ATOM      1  CE  MET A   1      -9.646  13.972  67.844  1.00  0.00    -0.221 C  
ATOM      2  SD  MET A   1      -9.572  12.426  66.908  1.00  0.00    -0.224 SA 
ENDROOT
BRANCH   2   3
ATOM      3  CG  MET A   1     -11.344  12.004  66.909  1.00  0.00    -0.341 C  
BRANCH   3   4
ATOM      4  CB  MET A   1     -11.656  11.094  68.097  1.00  0.00    -0.350 C  
BRANCH   4   5
ATOM      5  CA  MET A   1     -10.414  10.390  68.657  1.00  0.00    -0.196 C  
ATOM      6  C   MET A   1     -10.330   8.936  68.147  1.00  0.00    -0.212 C  
ATOM      7  N   MET A   1     -10.386  10.351  70.149  1.00  0.00    -0.438 NA 
ATOM      8  O   MET A   1      -9.806   8.119  69.100  1.00  0.00    -0.175 OA 
ATOM      9  OXT MET A   1     -10.650   8.547  67.036  1.00  0.00    -0.306 OA 
ATOM     10  H1  MET A   1      -9.560   9.882  70.522  1.00  0.00     0.000 HD 
ATOM     11  H2  MET A   1     -11.240   9.931  70.518  1.00  0.00     0.000 HD 
ENDBRANCH   4   5
ENDBRANCH   3   4
ENDBRANCH   2   3
TORSDOF 3
ENDMDL
MODEL      158
REMARK 921   NORMALIZED FREE ENERGY PREDICTED BY IDOCK:   -2.17 KCAL/MOL
REMARK 922        TOTAL FREE ENERGY PREDICTED BY IDOCK:   -2.62 KCAL/MOL
REMARK 923 INTER-LIGAND FREE ENERGY PREDICTED BY IDOCK:   -2.56 KCAL/MOL
REMARK 924 INTRA-LIGAND FREE ENERGY PREDICTED BY IDOCK:   -0.06 KCAL/MOL
REMARK 927      BINDING AFFINITY PREDICTED BY RF-SCORE:    0.00 PKD
ROOT
ATOM      1  CE  MET A   1     -12.860  15.490  70.485  1.00  0.00    -0.353 C  
ATOM      2  SD  MET A   1     -12.052  14.652  71.870  1.00  0.00    -0.239 SA 
ENDROOT
BRANCH   2   3
ATOM      3  CG  MET A   1     -13.063  13.138  71.919  1.00  0.00    -0.385 C  
BRANCH   3   4
ATOM      4  CB  MET A   1     -12.780  12.290  70.679  1.00  0.00    -0.139 C  
BRANCH   4   5
ATOM      5  CA  MET A   1     -12.203  10.909  71.014  1.00  0.00    -0.358 C  
ATOM      6  C   MET A   1     -11.041  10.554  70.062  1.00  0.00    -0.308 C  
ATOM      7  N   MET A   1     -13.215   9.814  70.924  1.00  0.00    -0.581 NA 
ATOM      8  O   MET A   1     -11.027   9.220  69.794  1.00  0.00    -0.234 OA 
ATOM      9  OXT MET A   1     -10.212  11.333  69.621  1.00  0.00     0.037 OA 
ATOM     10  H1  MET A   1     -12.831   8.896  71.147  1.00  0.00     0.000 HD 
ATOM     11  H2  MET A   1     -13.665   9.808  70.009  1.00  0.00     0.000 HD 
ENDBRANCH   4   5
ENDBRANCH   3   4
ENDBRANCH   2   3
TORSDOF 3
ENDMDL
MODEL      159
REMARK 921   NORMALIZED FREE ENERGY PREDICTED BY IDOCK:   -2.17 KCAL/MOL
REMARK 922        TOTAL FREE ENERGY PREDICTED BY IDOCK:   -2.61 KCAL/MOL
REMARK 923 INTER-LIGAND FREE ENERGY PREDICTED BY IDOCK:   -2.54 KCAL/MOL
REMARK 924 INTRA-LIGAND FREE ENERGY PREDICTED BY IDOCK:   -0.07 KCAL/MOL
REMARK 927      BINDING AFFINITY PREDICTED BY RF-SCORE:    0.00 PKD
ROOT
ATOM      1  CE  MET A   1      -7.478  10.017  65.104  1.00  0.00    -0.139 C  
ATOM      2  SD  MET A   1      -7.717   9.374  66.778  1.00  0.00    -0.097 SA 
ENDROOT
BRANCH   2   3
ATOM      3  CG  MET A   1      -9.390  10.021  67.098  1.00  0.00    -0.149 C  
BRANCH   3   4
ATOM      4  CB  MET A   1      -9.298  11.281  67.958  1.00  0.00    -0.166 C  
BRANCH   4   5
ATOM      5  CA  MET A   1     -10.037  12.480  67.349  1.00  0.00    -0.210 C  
ATOM      6  C   MET A   1     -11.534  12.161  67.154  1.00  0.00    -0.346 C  
ATOM      7  N   MET A   1      -9.484  12.896  66.025  1.00  0.00    -0.438 NA 
ATOM      8  O   MET A   1     -12.015  12.764  66.033  1.00  0.00    -0.411 OA 
ATOM      9  OXT MET A   1     -12.227  11.493  67.903  1.00  0.00    -0.586 OA 
ATOM     10  H1  MET A   1      -9.975  13.693  65.620  1.00  0.00     0.000 HD 
ATOM     11  H2  MET A   1      -9.467  12.111  65.375  1.00  0.00     0.000 HD 
ENDBRANCH   4   5
ENDBRANCH   3   4
ENDBRANCH   2   3
TORSDOF 3
ENDMDL
MODEL      160
REMARK 921   NORMALIZED FREE ENERGY PREDICTED BY IDOCK:   -2.16 KCAL/MOL
REMARK 922        TOTAL FREE ENERGY PREDICTED BY IDOCK:   -2.60 KCAL/MOL
REMARK 923 INTER-LIGAND FREE ENERGY PREDICTED BY IDOCK:   -2.53 KCAL/MOL
REMARK 924 INTRA-LIGAND FREE ENERGY PREDICTED BY IDOCK:   -0.07 KCAL/MOL
REMARK 927      BINDING AFFINITY PREDICTED BY RF-SCORE:    0.00 PKD
ROOT
ATOM      1  CE  MET A   1     -10.710   6.089  69.620  1.00  0.00    -0.335 C  
ATOM      2  SD  MET A   1      -9.423   7.293  69.215  1.00  0.00    -0.153 SA 
ENDROOT
BRANCH   2   3
ATOM      3  CG  MET A   1     -10.377   8.364  68.091  1.00  0.00    -0.204 C  
BRANCH   3   4
ATOM      4  CB  MET A   1     -10.228   9.824  68.519  1.00  0.00    -0.209 C  
BRANCH   4   5
ATOM      5  CA  MET A   1     -10.117  10.790  67.333  1.00  0.00    -0.193 C  
ATOM      6  C   MET A   1     -11.395  11.645  67.200  1.00  0.00    -0.306 C  
ATOM      7  N   MET A   1      -9.897  10.094  66.031  1.00  0.00    -0.230 NA 
ATOM      8  O   MET A   1     -11.676  11.893  65.892  1.00  0.00    -0.424 OA 
ATOM      9  OXT MET A   1     -12.065  12.081  68.122  1.00  0.00    -0.480 OA 
ATOM     10  H1  MET A   1      -9.823  10.737  65.242  1.00  0.00     0.000 HD 
ATOM     11  H2  MET A   1     -10.621   9.396  65.864  1.00  0.00     0.000 HD 
ENDBRANCH   4   5
ENDBRANCH   3   4
ENDBRANCH   2   3
TORSDOF 3
ENDMDL
MODEL      161
REMARK 921   NORMALIZED FREE ENERGY PREDICTED BY IDOCK:   -2.16 KCAL/MOL
REMARK 922        TOTAL FREE ENERGY PREDICTED BY IDOCK:   -2.60 KCAL/MOL
REMARK 923 INTER-LIGAND FREE ENERGY PREDICTED BY IDOCK:   -2.55 KCAL/MOL
REMARK 924 INTRA-LIGAND FREE ENERGY PREDICTED BY IDOCK:   -0.05 KCAL/MOL
REMARK 927      BINDING AFFINITY PREDICTED BY RF-SCORE:    0.00 PKD
ROOT
ATOM      1  CE  MET A   1     -11.474   9.344  71.690  1.00  0.00    -0.393 C  
ATOM      2  SD  MET A   1     -11.466  10.442  70.253  1.00  0.00    -0.344 SA 
ENDROOT
BRANCH   2   3
ATOM      3  CG  MET A   1     -10.607   9.358  69.068  1.00  0.00    -0.213 C  
BRANCH   3   4
ATOM      4  CB  MET A   1     -10.878   9.837  67.642  1.00  0.00    -0.301 C  
BRANCH   4   5
ATOM      5  CA  MET A   1      -9.678   9.648  66.706  1.00  0.00    -0.197 C  
ATOM      6  C   MET A   1      -9.600  10.794  65.675  1.00  0.00    -0.216 C  
ATOM      7  N   MET A   1      -9.721   8.359  65.952  1.00  0.00    -0.465 NA 
ATOM      8  O   MET A   1      -9.137  10.337  64.479  1.00  0.00    -0.193 OA 
ATOM      9  OXT MET A   1      -9.875  11.964  65.882  1.00  0.00    -0.227 OA 
ATOM     10  H1  MET A   1      -8.923   8.233  65.329  1.00  0.00     0.000 HD 
ATOM     11  H2  MET A   1     -10.599   8.266  65.441  1.00  0.00     0.000 HD 
ENDBRANCH   4   5
ENDBRANCH   3   4
ENDBRANCH   2   3
TORSDOF 3
ENDMDL
MODEL      162
REMARK 921   NORMALIZED FREE ENERGY PREDICTED BY IDOCK:   -2.15 KCAL/MOL
REMARK 922        TOTAL FREE ENERGY PREDICTED BY IDOCK:   -2.58 KCAL/MOL
REMARK 923 INTER-LIGAND FREE ENERGY PREDICTED BY IDOCK:   -2.47 KCAL/MOL
REMARK 924 INTRA-LIGAND FREE ENERGY PREDICTED BY IDOCK:   -0.11 KCAL/MOL
REMARK 927      BINDING AFFINITY PREDICTED BY RF-SCORE:    0.00 PKD
ROOT
ATOM      1  CE  MET A   1      -8.555   9.496  69.645  1.00  0.00    -0.183 C  
ATOM      2  SD  MET A   1      -8.854   9.602  67.864  1.00  0.00    -0.118 SA 
ENDROOT
BRANCH   2   3
ATOM      3  CG  MET A   1     -10.576  10.196  67.897  1.00  0.00    -0.249 C  
BRANCH   3   4
ATOM      4  CB  MET A   1     -10.626  11.594  68.513  1.00  0.00    -0.241 C  
BRANCH   4   5
ATOM      5  CA  MET A   1     -11.821  11.793  69.454  1.00  0.00    -0.334 C  
ATOM      6  C   MET A   1     -11.970  13.279  69.845  1.00  0.00    -0.330 C  
ATOM      7  N   MET A   1     -11.713  10.999  70.713  1.00  0.00    -0.376 NA 
ATOM      8  O   MET A   1     -12.416  13.398  71.126  1.00  0.00    -0.362 OA 
ATOM      9  OXT MET A   1     -11.758  14.236  69.119  1.00  0.00    -0.280 OA 
ATOM     10  H1  MET A   1     -12.508  11.131  71.339  1.00  0.00     0.000 HD 
ATOM     11  H2  MET A   1     -10.835  11.196  71.194  1.00  0.00     0.000 HD 
ENDBRANCH   4   5
ENDBRANCH   3   4
ENDBRANCH   2   3
TORSDOF 3
ENDMDL
MODEL      163
REMARK 921   NORMALIZED FREE ENERGY PREDICTED BY IDOCK:   -2.14 KCAL/MOL
REMARK 922        TOTAL FREE ENERGY PREDICTED BY IDOCK:   -2.58 KCAL/MOL
REMARK 923 INTER-LIGAND FREE ENERGY PREDICTED BY IDOCK:   -2.47 KCAL/MOL
REMARK 924 INTRA-LIGAND FREE ENERGY PREDICTED BY IDOCK:   -0.11 KCAL/MOL
REMARK 927      BINDING AFFINITY PREDICTED BY RF-SCORE:    0.00 PKD
ROOT
ATOM      1  CE  MET A   1      -7.413   6.661  70.987  1.00  0.00    -0.084 C  
ATOM      2  SD  MET A   1      -8.084   8.249  71.535  1.00  0.00    -0.142 SA 
ENDROOT
BRANCH   2   3
ATOM      3  CG  MET A   1      -9.859   7.840  71.493  1.00  0.00    -0.167 C  
BRANCH   3   4
ATOM      4  CB  MET A   1     -10.685   9.121  71.609  1.00  0.00    -0.441 C  
BRANCH   4   5
ATOM      5  CA  MET A   1     -11.723   9.270  70.490  1.00  0.00    -0.176 C  
ATOM      6  C   MET A   1     -11.315  10.388  69.508  1.00  0.00    -0.265 C  
ATOM      7  N   MET A   1     -13.091   9.588  70.999  1.00  0.00    -0.542 NA 
ATOM      8  O   MET A   1     -12.412  11.043  69.039  1.00  0.00    -0.449 OA 
ATOM      9  OXT MET A   1     -10.178  10.651  69.154  1.00  0.00    -0.204 OA 
ATOM     10  H1  MET A   1     -13.781   9.687  70.255  1.00  0.00     0.000 HD 
ATOM     11  H2  MET A   1     -13.074  10.417  71.593  1.00  0.00     0.000 HD 
ENDBRANCH   4   5
ENDBRANCH   3   4
ENDBRANCH   2   3
TORSDOF 3
ENDMDL
MODEL      164
REMARK 921   NORMALIZED FREE ENERGY PREDICTED BY IDOCK:   -2.13 KCAL/MOL
REMARK 922        TOTAL FREE ENERGY PREDICTED BY IDOCK:   -2.56 KCAL/MOL
REMARK 923 INTER-LIGAND FREE ENERGY PREDICTED BY IDOCK:   -2.44 KCAL/MOL
REMARK 924 INTRA-LIGAND FREE ENERGY PREDICTED BY IDOCK:   -0.12 KCAL/MOL
REMARK 927      BINDING AFFINITY PREDICTED BY RF-SCORE:    0.00 PKD
ROOT
ATOM      1  CE  MET A   1      -7.758   3.472  70.346  1.00  0.00    -0.044 C  
ATOM      2  SD  MET A   1      -8.223   5.203  70.595  1.00  0.00    -0.109 SA 
ENDROOT
BRANCH   2   3
ATOM      3  CG  MET A   1      -9.972   4.967  71.046  1.00  0.00    -0.211 C  
BRANCH   3   4
ATOM      4  CB  MET A   1     -10.863   5.739  70.073  1.00  0.00    -0.403 C  
BRANCH   4   5
ATOM      5  CA  MET A   1     -11.812   6.719  70.775  1.00  0.00    -0.392 C  
ATOM      6  C   MET A   1     -11.156   8.109  70.921  1.00  0.00    -0.258 C  
ATOM      7  N   MET A   1     -12.221   6.264  72.137  1.00  0.00    -0.476 NA 
ATOM      8  O   MET A   1     -11.538   8.703  72.084  1.00  0.00    -0.342 OA 
ATOM      9  OXT MET A   1     -10.420   8.642  70.108  1.00  0.00    -0.206 OA 
ATOM     10  H1  MET A   1     -12.852   6.915  72.604  1.00  0.00     0.000 HD 
ATOM     11  H2  MET A   1     -11.404   6.070  72.716  1.00  0.00     0.000 HD 
ENDBRANCH   4   5
ENDBRANCH   3   4
ENDBRANCH   2   3
TORSDOF 3
ENDMDL
MODEL      165
REMARK 921   NORMALIZED FREE ENERGY PREDICTED BY IDOCK:   -2.12 KCAL/MOL
REMARK 922        TOTAL FREE ENERGY PREDICTED BY IDOCK:   -2.55 KCAL/MOL
REMARK 923 INTER-LIGAND FREE ENERGY PREDICTED BY IDOCK:   -2.49 KCAL/MOL
REMARK 924 INTRA-LIGAND FREE ENERGY PREDICTED BY IDOCK:   -0.06 KCAL/MOL
REMARK 927      BINDING AFFINITY PREDICTED BY RF-SCORE:    0.00 PKD
ROOT
ATOM      1  CE  MET A   1      -6.402  12.158  67.277  1.00  0.00    -0.152 C  
ATOM      2  SD  MET A   1      -7.813  12.538  68.343  1.00  0.00    -0.121 SA 
ENDROOT
BRANCH   2   3
ATOM      3  CG  MET A   1      -8.994  13.088  67.069  1.00  0.00    -0.225 C  
BRANCH   3   4
ATOM      4  CB  MET A   1     -10.034  11.995  66.824  1.00  0.00    -0.218 C  
BRANCH   4   5
ATOM      5  CA  MET A   1     -11.107  12.403  65.807  1.00  0.00    -0.315 C  
ATOM      6  C   MET A   1     -10.831  11.764  64.430  1.00  0.00    -0.334 C  
ATOM      7  N   MET A   1     -11.197  13.881  65.614  1.00  0.00    -0.303 NA 
ATOM      8  O   MET A   1     -11.200  12.604  63.425  1.00  0.00    -0.467 OA 
ATOM      9  OXT MET A   1     -10.377  10.649  64.236  1.00  0.00    -0.360 OA 
ATOM     10  H1  MET A   1     -11.911  14.153  64.937  1.00  0.00     0.000 HD 
ATOM     11  H2  MET A   1     -10.289  14.271  65.360  1.00  0.00     0.000 HD 
ENDBRANCH   4   5
ENDBRANCH   3   4
ENDBRANCH   2   3
TORSDOF 3
ENDMDL
MODEL      166
REMARK 921   NORMALIZED FREE ENERGY PREDICTED BY IDOCK:   -2.12 KCAL/MOL
REMARK 922        TOTAL FREE ENERGY PREDICTED BY IDOCK:   -2.55 KCAL/MOL
REMARK 923 INTER-LIGAND FREE ENERGY PREDICTED BY IDOCK:   -2.47 KCAL/MOL
REMARK 924 INTRA-LIGAND FREE ENERGY PREDICTED BY IDOCK:   -0.08 KCAL/MOL
REMARK 927      BINDING AFFINITY PREDICTED BY RF-SCORE:    0.00 PKD
ROOT
ATOM      1  CE  MET A   1     -12.635  15.300  70.047  1.00  0.00    -0.242 C  
ATOM      2  SD  MET A   1     -11.808  13.699  69.897  1.00  0.00    -0.307 SA 
ENDROOT
BRANCH   2   3
ATOM      3  CG  MET A   1     -11.886  13.503  68.087  1.00  0.00    -0.365 C  
BRANCH   3   4
ATOM      4  CB  MET A   1     -10.665  12.725  67.600  1.00  0.00    -0.236 C  
BRANCH   4   5
ATOM      5  CA  MET A   1     -11.020  11.606  66.612  1.00  0.00    -0.299 C  
ATOM      6  C   MET A   1     -10.622  10.227  67.177  1.00  0.00    -0.260 C  
ATOM      7  N   MET A   1     -10.354  11.764  65.285  1.00  0.00    -0.262 NA 
ATOM      8  O   MET A   1     -10.203   9.399  66.181  1.00  0.00    -0.279 OA 
ATOM      9  OXT MET A   1     -10.693   9.884  68.345  1.00  0.00    -0.218 OA 
ATOM     10  H1  MET A   1     -10.590  11.021  64.628  1.00  0.00     0.000 HD 
ATOM     11  H2  MET A   1      -9.343  11.847  65.393  1.00  0.00     0.000 HD 
ENDBRANCH   4   5
ENDBRANCH   3   4
ENDBRANCH   2   3
TORSDOF 3
ENDMDL
MODEL      167
REMARK 921   NORMALIZED FREE ENERGY PREDICTED BY IDOCK:   -2.11 KCAL/MOL
REMARK 922        TOTAL FREE ENERGY PREDICTED BY IDOCK:   -2.54 KCAL/MOL
REMARK 923 INTER-LIGAND FREE ENERGY PREDICTED BY IDOCK:   -2.62 KCAL/MOL
REMARK 924 INTRA-LIGAND FREE ENERGY PREDICTED BY IDOCK:    0.08 KCAL/MOL
REMARK 927      BINDING AFFINITY PREDICTED BY RF-SCORE:    0.00 PKD
ROOT
ATOM      1  CE  MET A   1     -10.219  17.435  67.447  1.00  0.00    -0.326 C  
ATOM      2  SD  MET A   1      -9.454  18.667  68.528  1.00  0.00    -0.358 SA 
ENDROOT
BRANCH   2   3
ATOM      3  CG  MET A   1      -7.919  17.775  68.937  1.00  0.00    -0.172 C  
BRANCH   3   4
ATOM      4  CB  MET A   1      -6.719  18.521  68.351  1.00  0.00    -0.251 C  
BRANCH   4   5
ATOM      5  CA  MET A   1      -5.753  19.039  69.423  1.00  0.00    -0.222 C  
ATOM      6  C   MET A   1      -5.398  17.924  70.429  1.00  0.00    -0.265 C  
ATOM      7  N   MET A   1      -6.301  20.193  70.197  1.00  0.00    -0.359 NA 
ATOM      8  O   MET A   1      -5.238  18.435  71.680  1.00  0.00    -0.507 OA 
ATOM      9  OXT MET A   1      -5.242  16.744  70.164  1.00  0.00    -0.162 OA 
ATOM     10  H1  MET A   1      -5.658  20.538  70.910  1.00  0.00     0.000 HD 
ATOM     11  H2  MET A   1      -7.206  19.959  70.605  1.00  0.00     0.000 HD 
ENDBRANCH   4   5
ENDBRANCH   3   4
ENDBRANCH   2   3
TORSDOF 3
ENDMDL
MODEL      168
REMARK 921   NORMALIZED FREE ENERGY PREDICTED BY IDOCK:   -2.10 KCAL/MOL
REMARK 922        TOTAL FREE ENERGY PREDICTED BY IDOCK:   -2.53 KCAL/MOL
REMARK 923 INTER-LIGAND FREE ENERGY PREDICTED BY IDOCK:   -2.49 KCAL/MOL
REMARK 924 INTRA-LIGAND FREE ENERGY PREDICTED BY IDOCK:   -0.04 KCAL/MOL
REMARK 927      BINDING AFFINITY PREDICTED BY RF-SCORE:    0.00 PKD
ROOT
ATOM      1  CE  MET A   1     -12.358  12.684  65.152  1.00  0.00    -0.484 C  
ATOM      2  SD  MET A   1     -10.564  12.531  65.331  1.00  0.00    -0.288 SA 
ENDROOT
BRANCH   2   3
ATOM      3  CG  MET A   1     -10.371  13.319  66.963  1.00  0.00    -0.246 C  
BRANCH   3   4
ATOM      4  CB  MET A   1      -9.027  14.042  67.030  1.00  0.00    -0.248 C  
BRANCH   4   5
ATOM      5  CA  MET A   1      -9.066  15.304  67.901  1.00  0.00    -0.175 C  
ATOM      6  C   MET A   1      -8.005  16.324  67.438  1.00  0.00    -0.155 C  
ATOM      7  N   MET A   1      -8.827  15.024  69.348  1.00  0.00    -0.402 NA 
ATOM      8  O   MET A   1      -7.491  17.003  68.499  1.00  0.00    -0.199 OA 
ATOM      9  OXT MET A   1      -7.675  16.540  66.283  1.00  0.00    -0.291 OA 
ATOM     10  H1  MET A   1      -8.853  15.863  69.927  1.00  0.00     0.000 HD 
ATOM     11  H2  MET A   1      -7.951  14.518  69.481  1.00  0.00     0.000 HD 
ENDBRANCH   4   5
ENDBRANCH   3   4
ENDBRANCH   2   3
TORSDOF 3
ENDMDL
MODEL      169
REMARK 921   NORMALIZED FREE ENERGY PREDICTED BY IDOCK:   -2.10 KCAL/MOL
REMARK 922        TOTAL FREE ENERGY PREDICTED BY IDOCK:   -2.53 KCAL/MOL
REMARK 923 INTER-LIGAND FREE ENERGY PREDICTED BY IDOCK:   -2.39 KCAL/MOL
REMARK 924 INTRA-LIGAND FREE ENERGY PREDICTED BY IDOCK:   -0.14 KCAL/MOL
REMARK 927      BINDING AFFINITY PREDICTED BY RF-SCORE:    0.00 PKD
ROOT
ATOM      1  CE  MET A   1      -6.889  20.811  67.484  1.00  0.00    -0.354 C  
ATOM      2  SD  MET A   1      -7.364  19.523  68.663  1.00  0.00    -0.348 SA 
ENDROOT
BRANCH   2   3
ATOM      3  CG  MET A   1      -8.936  19.004  67.902  1.00  0.00    -0.300 C  
BRANCH   3   4
ATOM      4  CB  MET A   1      -9.415  17.704  68.547  1.00  0.00    -0.298 C  
BRANCH   4   5
ATOM      5  CA  MET A   1      -9.043  16.457  67.733  1.00  0.00    -0.199 C  
ATOM      6  C   MET A   1      -7.796  15.767  68.325  1.00  0.00    -0.129 C  
ATOM      7  N   MET A   1      -8.760  16.758  66.299  1.00  0.00    -0.360 NA 
ATOM      8  O   MET A   1      -7.030  15.226  67.339  1.00  0.00    -0.186 OA 
ATOM      9  OXT MET A   1      -7.524  15.673  69.510  1.00  0.00    -0.213 OA 
ATOM     10  H1  MET A   1      -8.513  15.929  65.758  1.00  0.00     0.000 HD 
ATOM     11  H2  MET A   1      -8.041  17.476  66.213  1.00  0.00     0.000 HD 
ENDBRANCH   4   5
ENDBRANCH   3   4
ENDBRANCH   2   3
TORSDOF 3
ENDMDL
MODEL      170
REMARK 921   NORMALIZED FREE ENERGY PREDICTED BY IDOCK:   -2.10 KCAL/MOL
REMARK 922        TOTAL FREE ENERGY PREDICTED BY IDOCK:   -2.52 KCAL/MOL
REMARK 923 INTER-LIGAND FREE ENERGY PREDICTED BY IDOCK:   -2.38 KCAL/MOL
REMARK 924 INTRA-LIGAND FREE ENERGY PREDICTED BY IDOCK:   -0.15 KCAL/MOL
REMARK 927      BINDING AFFINITY PREDICTED BY RF-SCORE:    0.00 PKD
ROOT
ATOM      1  CE  MET A   1     -12.137   9.696  71.398  1.00  0.00    -0.388 C  
ATOM      2  SD  MET A   1     -10.633   8.743  71.718  1.00  0.00    -0.364 SA 
ENDROOT
BRANCH   2   3
ATOM      3  CG  MET A   1     -11.315   7.514  72.878  1.00  0.00    -0.304 C  
BRANCH   3   4
ATOM      4  CB  MET A   1     -10.185   6.915  73.715  1.00  0.00    -0.396 C  
BRANCH   4   5
ATOM      5  CA  MET A   1     -10.018   5.404  73.505  1.00  0.00    -0.175 C  
ATOM      6  C   MET A   1      -9.354   5.109  72.144  1.00  0.00    -0.139 C  
ATOM      7  N   MET A   1     -11.312   4.661  73.552  1.00  0.00    -0.312 NA 
ATOM      8  O   MET A   1      -9.850   3.963  71.603  1.00  0.00    -0.171 OA 
ATOM      9  OXT MET A   1      -8.478   5.773  71.615  1.00  0.00    -0.126 OA 
ATOM     10  H1  MET A   1     -11.201   3.656  73.412  1.00  0.00     0.000 HD 
ATOM     11  H2  MET A   1     -11.979   5.049  72.885  1.00  0.00     0.000 HD 
ENDBRANCH   4   5
ENDBRANCH   3   4
ENDBRANCH   2   3
TORSDOF 3
ENDMDL
MODEL      171
REMARK 921   NORMALIZED FREE ENERGY PREDICTED BY IDOCK:   -2.09 KCAL/MOL
REMARK 922        TOTAL FREE ENERGY PREDICTED BY IDOCK:   -2.51 KCAL/MOL
REMARK 923 INTER-LIGAND FREE ENERGY PREDICTED BY IDOCK:   -2.38 KCAL/MOL
REMARK 924 INTRA-LIGAND FREE ENERGY PREDICTED BY IDOCK:   -0.13 KCAL/MOL
REMARK 927      BINDING AFFINITY PREDICTED BY RF-SCORE:    0.00 PKD
ROOT
ATOM      1  CE  MET A   1      -5.781  17.109  66.760  1.00  0.00    -0.196 C  
ATOM      2  SD  MET A   1      -7.260  17.644  67.654  1.00  0.00    -0.180 SA 
ENDROOT
BRANCH   2   3
ATOM      3  CG  MET A   1      -7.859  16.018  68.216  1.00  0.00    -0.144 C  
BRANCH   3   4
ATOM      4  CB  MET A   1      -8.938  15.508  67.260  1.00  0.00    -0.216 C  
BRANCH   4   5
ATOM      5  CA  MET A   1     -10.250  15.152  67.970  1.00  0.00    -0.230 C  
ATOM      6  C   MET A   1     -10.940  16.420  68.515  1.00  0.00    -0.350 C  
ATOM      7  N   MET A   1     -10.060  14.209  69.112  1.00  0.00    -0.426 NA 
ATOM      8  O   MET A   1     -11.575  16.156  69.690  1.00  0.00    -0.312 OA 
ATOM      9  OXT MET A   1     -10.961  17.513  67.975  1.00  0.00    -0.328 OA 
ATOM     10  H1  MET A   1     -10.933  13.972  69.584  1.00  0.00     0.000 HD 
ATOM     11  H2  MET A   1      -9.376  14.573  69.774  1.00  0.00     0.000 HD 
ENDBRANCH   4   5
ENDBRANCH   3   4
ENDBRANCH   2   3
TORSDOF 3
ENDMDL
MODEL      172
REMARK 921   NORMALIZED FREE ENERGY PREDICTED BY IDOCK:   -2.08 KCAL/MOL
REMARK 922        TOTAL FREE ENERGY PREDICTED BY IDOCK:   -2.50 KCAL/MOL
REMARK 923 INTER-LIGAND FREE ENERGY PREDICTED BY IDOCK:   -2.43 KCAL/MOL
REMARK 924 INTRA-LIGAND FREE ENERGY PREDICTED BY IDOCK:   -0.08 KCAL/MOL
REMARK 927      BINDING AFFINITY PREDICTED BY RF-SCORE:    0.00 PKD
ROOT
ATOM      1  CE  MET A   1      -9.901   4.346  67.098  1.00  0.00    -0.178 C  
ATOM      2  SD  MET A   1      -9.398   5.726  66.042  1.00  0.00    -0.069 SA 
ENDROOT
BRANCH   2   3
ATOM      3  CG  MET A   1      -9.365   7.049  67.295  1.00  0.00    -0.133 C  
BRANCH   3   4
ATOM      4  CB  MET A   1     -10.451   8.078  66.985  1.00  0.00    -0.410 C  
BRANCH   4   5
ATOM      5  CA  MET A   1      -9.887   9.423  66.509  1.00  0.00    -0.258 C  
ATOM      6  C   MET A   1     -10.878  10.569  66.802  1.00  0.00    -0.142 C  
ATOM      7  N   MET A   1      -9.583   9.446  65.048  1.00  0.00    -0.453 NA 
ATOM      8  O   MET A   1     -10.830  11.511  65.821  1.00  0.00    -0.280 OA 
ATOM      9  OXT MET A   1     -11.595  10.663  67.784  1.00  0.00    -0.501 OA 
ATOM     10  H1  MET A   1      -9.207  10.340  64.731  1.00  0.00     0.000 HD 
ATOM     11  H2  MET A   1     -10.403   9.182  64.501  1.00  0.00     0.000 HD 
ENDBRANCH   4   5
ENDBRANCH   3   4
ENDBRANCH   2   3
TORSDOF 3
ENDMDL
MODEL      173
REMARK 921   NORMALIZED FREE ENERGY PREDICTED BY IDOCK:   -2.08 KCAL/MOL
REMARK 922        TOTAL FREE ENERGY PREDICTED BY IDOCK:   -2.50 KCAL/MOL
REMARK 923 INTER-LIGAND FREE ENERGY PREDICTED BY IDOCK:   -2.25 KCAL/MOL
REMARK 924 INTRA-LIGAND FREE ENERGY PREDICTED BY IDOCK:   -0.26 KCAL/MOL
REMARK 927      BINDING AFFINITY PREDICTED BY RF-SCORE:    0.00 PKD
ROOT
ATOM      1  CE  MET A   1      -7.830  11.034  67.490  1.00  0.00    -0.116 C  
ATOM      2  SD  MET A   1      -8.565   9.584  66.696  1.00  0.00    -0.135 SA 
ENDROOT
BRANCH   2   3
ATOM      3  CG  MET A   1      -8.981   8.621  68.185  1.00  0.00    -0.141 C  
BRANCH   3   4
ATOM      4  CB  MET A   1     -10.497   8.606  68.381  1.00  0.00    -0.220 C  
BRANCH   4   5
ATOM      5  CA  MET A   1     -10.973   9.583  69.464  1.00  0.00    -0.195 C  
ATOM      6  C   MET A   1     -11.404  10.927  68.839  1.00  0.00    -0.288 C  
ATOM      7  N   MET A   1      -9.929   9.872  70.491  1.00  0.00    -0.375 NA 
ATOM      8  O   MET A   1     -11.096  11.963  69.666  1.00  0.00    -0.166 OA 
ATOM      9  OXT MET A   1     -11.974  11.070  67.771  1.00  0.00    -0.609 OA 
ATOM     10  H1  MET A   1     -10.245  10.521  71.211  1.00  0.00     0.000 HD 
ATOM     11  H2  MET A   1      -9.070  10.204  70.053  1.00  0.00     0.000 HD 
ENDBRANCH   4   5
ENDBRANCH   3   4
ENDBRANCH   2   3
TORSDOF 3
ENDMDL
MODEL      174
REMARK 921   NORMALIZED FREE ENERGY PREDICTED BY IDOCK:   -2.07 KCAL/MOL
REMARK 922        TOTAL FREE ENERGY PREDICTED BY IDOCK:   -2.49 KCAL/MOL
REMARK 923 INTER-LIGAND FREE ENERGY PREDICTED BY IDOCK:   -2.44 KCAL/MOL
REMARK 924 INTRA-LIGAND FREE ENERGY PREDICTED BY IDOCK:   -0.05 KCAL/MOL
REMARK 927      BINDING AFFINITY PREDICTED BY RF-SCORE:    0.00 PKD
ROOT
ATOM      1  CE  MET A   1     -10.337   2.221  73.012  1.00  0.00    -0.142 C  
ATOM      2  SD  MET A   1      -9.622   3.202  71.672  1.00  0.00    -0.162 SA 
ENDROOT
BRANCH   2   3
ATOM      3  CG  MET A   1      -9.704   4.849  72.447  1.00  0.00    -0.157 C  
BRANCH   3   4
ATOM      4  CB  MET A   1     -11.054   5.496  72.140  1.00  0.00    -0.272 C  
BRANCH   4   5
ATOM      5  CA  MET A   1     -10.942   6.712  71.212  1.00  0.00    -0.253 C  
ATOM      6  C   MET A   1     -10.869   8.020  72.027  1.00  0.00    -0.272 C  
ATOM      7  N   MET A   1     -12.087   6.830  70.261  1.00  0.00    -0.617 NA 
ATOM      8  O   MET A   1     -11.508   9.030  71.376  1.00  0.00    -0.279 OA 
ATOM      9  OXT MET A   1     -10.298   8.169  73.094  1.00  0.00    -0.289 OA 
ATOM     10  H1  MET A   1     -12.012   7.638  69.644  1.00  0.00     0.000 HD 
ATOM     11  H2  MET A   1     -12.976   6.835  70.762  1.00  0.00     0.000 HD 
ENDBRANCH   4   5
ENDBRANCH   3   4
ENDBRANCH   2   3
TORSDOF 3
ENDMDL
MODEL      175
REMARK 921   NORMALIZED FREE ENERGY PREDICTED BY IDOCK:   -2.06 KCAL/MOL
REMARK 922        TOTAL FREE ENERGY PREDICTED BY IDOCK:   -2.48 KCAL/MOL
REMARK 923 INTER-LIGAND FREE ENERGY PREDICTED BY IDOCK:   -2.33 KCAL/MOL
REMARK 924 INTRA-LIGAND FREE ENERGY PREDICTED BY IDOCK:   -0.16 KCAL/MOL
REMARK 927      BINDING AFFINITY PREDICTED BY RF-SCORE:    0.00 PKD
ROOT
ATOM      1  CE  MET A   1      -9.647  11.717  68.149  1.00  0.00    -0.193 C  
ATOM      2  SD  MET A   1     -11.439  11.770  68.396  1.00  0.00    -0.319 SA 
ENDROOT
BRANCH   2   3
ATOM      3  CG  MET A   1     -11.594  10.451  69.644  1.00  0.00    -0.239 C  
BRANCH   3   4
ATOM      4  CB  MET A   1     -10.731   9.256  69.241  1.00  0.00    -0.211 C  
BRANCH   4   5
ATOM      5  CA  MET A   1     -10.018   8.601  70.430  1.00  0.00    -0.187 C  
ATOM      6  C   MET A   1     -11.022   7.836  71.319  1.00  0.00    -0.234 C  
ATOM      7  N   MET A   1      -9.301   9.584  71.295  1.00  0.00    -0.328 NA 
ATOM      8  O   MET A   1     -10.665   7.917  72.629  1.00  0.00    -0.290 OA 
ATOM      9  OXT MET A   1     -11.991   7.208  70.927  1.00  0.00    -0.326 OA 
ATOM     10  H1  MET A   1      -8.826   9.149  72.087  1.00  0.00     0.000 HD 
ATOM     11  H2  MET A   1      -9.932  10.320  71.611  1.00  0.00     0.000 HD 
ENDBRANCH   4   5
ENDBRANCH   3   4
ENDBRANCH   2   3
TORSDOF 3
ENDMDL
MODEL      176
REMARK 921   NORMALIZED FREE ENERGY PREDICTED BY IDOCK:   -2.06 KCAL/MOL
REMARK 922        TOTAL FREE ENERGY PREDICTED BY IDOCK:   -2.48 KCAL/MOL
REMARK 923 INTER-LIGAND FREE ENERGY PREDICTED BY IDOCK:   -2.30 KCAL/MOL
REMARK 924 INTRA-LIGAND FREE ENERGY PREDICTED BY IDOCK:   -0.18 KCAL/MOL
REMARK 927      BINDING AFFINITY PREDICTED BY RF-SCORE:    0.00 PKD
ROOT
ATOM      1  CE  MET A   1     -10.109   8.789  66.469  1.00  0.00    -0.279 C  
ATOM      2  SD  MET A   1      -8.868   9.962  67.067  1.00  0.00    -0.134 SA 
ENDROOT
BRANCH   2   3
ATOM      3  CG  MET A   1      -8.263   9.028  68.510  1.00  0.00    -0.112 C  
BRANCH   3   4
ATOM      4  CB  MET A   1      -8.650   9.758  69.795  1.00  0.00    -0.215 C  
BRANCH   4   5
ATOM      5  CA  MET A   1      -9.713   9.013  70.613  1.00  0.00    -0.234 C  
ATOM      6  C   MET A   1     -11.065   9.754  70.561  1.00  0.00    -0.321 C  
ATOM      7  N   MET A   1      -9.338   8.849  72.049  1.00  0.00    -0.370 NA 
ATOM      8  O   MET A   1     -11.728   9.633  71.744  1.00  0.00    -0.388 OA 
ATOM      9  OXT MET A   1     -11.521  10.347  69.598  1.00  0.00    -0.246 OA 
ATOM     10  H1  MET A   1     -10.044   8.353  72.593  1.00  0.00     0.000 HD 
ATOM     11  H2  MET A   1      -9.119   9.751  72.473  1.00  0.00     0.000 HD 
ENDBRANCH   4   5
ENDBRANCH   3   4
ENDBRANCH   2   3
TORSDOF 3
ENDMDL
MODEL      177
REMARK 921   NORMALIZED FREE ENERGY PREDICTED BY IDOCK:   -2.05 KCAL/MOL
REMARK 922        TOTAL FREE ENERGY PREDICTED BY IDOCK:   -2.47 KCAL/MOL
REMARK 923 INTER-LIGAND FREE ENERGY PREDICTED BY IDOCK:   -2.34 KCAL/MOL
REMARK 924 INTRA-LIGAND FREE ENERGY PREDICTED BY IDOCK:   -0.13 KCAL/MOL
REMARK 927      BINDING AFFINITY PREDICTED BY RF-SCORE:    0.00 PKD
ROOT
ATOM      1  CE  MET A   1      -8.180   5.085  68.029  1.00  0.00    -0.097 C  
ATOM      2  SD  MET A   1      -9.514   4.495  69.099  1.00  0.00    -0.177 SA 
ENDROOT
BRANCH   2   3
ATOM      3  CG  MET A   1     -10.771   5.755  68.711  1.00  0.00    -0.247 C  
BRANCH   3   4
ATOM      4  CB  MET A   1     -11.390   6.282  70.006  1.00  0.00    -0.486 C  
BRANCH   4   5
ATOM      5  CA  MET A   1     -10.842   7.654  70.419  1.00  0.00    -0.244 C  
ATOM      6  C   MET A   1     -10.052   7.554  71.741  1.00  0.00    -0.176 C  
ATOM      7  N   MET A   1     -11.912   8.679  70.604  1.00  0.00    -0.478 NA 
ATOM      8  O   MET A   1     -10.219   8.679  72.489  1.00  0.00    -0.290 OA 
ATOM      9  OXT MET A   1      -9.341   6.624  72.083  1.00  0.00    -0.143 OA 
ATOM     10  H1  MET A   1     -11.548   9.592  70.879  1.00  0.00     0.000 HD 
ATOM     11  H2  MET A   1     -12.617   8.355  71.266  1.00  0.00     0.000 HD 
ENDBRANCH   4   5
ENDBRANCH   3   4
ENDBRANCH   2   3
TORSDOF 3
ENDMDL
MODEL      178
REMARK 921   NORMALIZED FREE ENERGY PREDICTED BY IDOCK:   -2.03 KCAL/MOL
REMARK 922        TOTAL FREE ENERGY PREDICTED BY IDOCK:   -2.44 KCAL/MOL
REMARK 923 INTER-LIGAND FREE ENERGY PREDICTED BY IDOCK:   -2.40 KCAL/MOL
REMARK 924 INTRA-LIGAND FREE ENERGY PREDICTED BY IDOCK:   -0.04 KCAL/MOL
REMARK 927      BINDING AFFINITY PREDICTED BY RF-SCORE:    0.00 PKD
ROOT
ATOM      1  CE  MET A   1     -12.638  13.193  65.134  1.00  0.00    -0.465 C  
ATOM      2  SD  MET A   1     -10.848  13.344  64.921  1.00  0.00    -0.374 SA 
ENDROOT
BRANCH   2   3
ATOM      3  CG  MET A   1     -10.358  13.426  66.674  1.00  0.00    -0.269 C  
BRANCH   3   4
ATOM      4  CB  MET A   1      -8.843  13.258  66.794  1.00  0.00    -0.140 C  
BRANCH   4   5
ATOM      5  CA  MET A   1      -8.205  14.245  67.780  1.00  0.00    -0.174 C  
ATOM      6  C   MET A   1      -6.741  13.856  68.076  1.00  0.00    -0.144 C  
ATOM      7  N   MET A   1      -8.929  14.319  69.084  1.00  0.00    -0.384 NA 
ATOM      8  O   MET A   1      -6.417  14.142  69.366  1.00  0.00    -0.109 OA 
ATOM      9  OXT MET A   1      -5.948  13.388  67.276  1.00  0.00    -0.341 OA 
ATOM     10  H1  MET A   1      -8.505  14.975  69.740  1.00  0.00     0.000 HD 
ATOM     11  H2  MET A   1      -9.020  13.394  69.503  1.00  0.00     0.000 HD 
ENDBRANCH   4   5
ENDBRANCH   3   4
ENDBRANCH   2   3
TORSDOF 3
ENDMDL
MODEL      179
REMARK 921   NORMALIZED FREE ENERGY PREDICTED BY IDOCK:   -2.02 KCAL/MOL
REMARK 922        TOTAL FREE ENERGY PREDICTED BY IDOCK:   -2.43 KCAL/MOL
REMARK 923 INTER-LIGAND FREE ENERGY PREDICTED BY IDOCK:   -2.38 KCAL/MOL
REMARK 924 INTRA-LIGAND FREE ENERGY PREDICTED BY IDOCK:   -0.05 KCAL/MOL
REMARK 927      BINDING AFFINITY PREDICTED BY RF-SCORE:    0.00 PKD
ROOT
ATOM      1  CE  MET A   1     -11.246  10.616  67.966  1.00  0.00    -0.307 C  
ATOM      2  SD  MET A   1     -11.739  12.322  68.313  1.00  0.00    -0.315 SA 
ENDROOT
BRANCH   2   3
ATOM      3  CG  MET A   1     -10.655  13.179  67.126  1.00  0.00    -0.257 C  
BRANCH   3   4
ATOM      4  CB  MET A   1     -10.809  14.691  67.287  1.00  0.00    -0.305 C  
BRANCH   4   5
ATOM      5  CA  MET A   1      -9.622  15.343  68.010  1.00  0.00    -0.206 C  
ATOM      6  C   MET A   1      -9.612  16.869  67.782  1.00  0.00    -0.249 C  
ATOM      7  N   MET A   1      -8.301  14.807  67.565  1.00  0.00    -0.170 NA 
ATOM      8  O   MET A   1      -8.337  17.337  67.704  1.00  0.00    -0.200 OA 
ATOM      9  OXT MET A   1     -10.594  17.590  67.713  1.00  0.00    -0.370 OA 
ATOM     10  H1  MET A   1      -7.512  15.240  68.045  1.00  0.00     0.000 HD 
ATOM     11  H2  MET A   1      -8.199  14.886  66.553  1.00  0.00     0.000 HD 
ENDBRANCH   4   5
ENDBRANCH   3   4
ENDBRANCH   2   3
TORSDOF 3
ENDMDL
MODEL      180
REMARK 921   NORMALIZED FREE ENERGY PREDICTED BY IDOCK:   -2.01 KCAL/MOL
REMARK 922        TOTAL FREE ENERGY PREDICTED BY IDOCK:   -2.43 KCAL/MOL
REMARK 923 INTER-LIGAND FREE ENERGY PREDICTED BY IDOCK:   -2.29 KCAL/MOL
REMARK 924 INTRA-LIGAND FREE ENERGY PREDICTED BY IDOCK:   -0.14 KCAL/MOL
REMARK 927      BINDING AFFINITY PREDICTED BY RF-SCORE:    0.00 PKD
ROOT
ATOM      1  CE  MET A   1     -11.426   9.394  70.898  1.00  0.00    -0.316 C  
ATOM      2  SD  MET A   1     -11.258  10.822  69.800  1.00  0.00    -0.303 SA 
ENDROOT
BRANCH   2   3
ATOM      3  CG  MET A   1      -9.568  10.518  69.191  1.00  0.00    -0.199 C  
BRANCH   3   4
ATOM      4  CB  MET A   1      -9.133  11.668  68.283  1.00  0.00    -0.187 C  
BRANCH   4   5
ATOM      5  CA  MET A   1     -10.235  12.714  68.067  1.00  0.00    -0.230 C  
ATOM      6  C   MET A   1     -10.666  12.759  66.586  1.00  0.00    -0.261 C  
ATOM      7  N   MET A   1      -9.819  14.092  68.463  1.00  0.00    -0.231 NA 
ATOM      8  O   MET A   1     -10.988  14.028  66.216  1.00  0.00    -0.296 OA 
ATOM      9  OXT MET A   1     -10.750  11.801  65.835  1.00  0.00    -0.264 OA 
ATOM     10  H1  MET A   1     -10.552  14.787  68.319  1.00  0.00     0.000 HD 
ATOM     11  H2  MET A   1      -8.960  14.365  67.985  1.00  0.00     0.000 HD 
ENDBRANCH   4   5
ENDBRANCH   3   4
ENDBRANCH   2   3
TORSDOF 3
ENDMDL
MODEL      181
REMARK 921   NORMALIZED FREE ENERGY PREDICTED BY IDOCK:   -2.01 KCAL/MOL
REMARK 922        TOTAL FREE ENERGY PREDICTED BY IDOCK:   -2.43 KCAL/MOL
REMARK 923 INTER-LIGAND FREE ENERGY PREDICTED BY IDOCK:   -2.38 KCAL/MOL
REMARK 924 INTRA-LIGAND FREE ENERGY PREDICTED BY IDOCK:   -0.05 KCAL/MOL
REMARK 927      BINDING AFFINITY PREDICTED BY RF-SCORE:    0.00 PKD
ROOT
ATOM      1  CE  MET A   1     -11.612   8.654  72.099  1.00  0.00    -0.370 C  
ATOM      2  SD  MET A   1     -11.366   8.980  70.337  1.00  0.00    -0.162 SA 
ENDROOT
BRANCH   2   3
ATOM      3  CG  MET A   1     -10.291   7.566  69.931  1.00  0.00    -0.223 C  
BRANCH   3   4
ATOM      4  CB  MET A   1     -11.146   6.321  69.695  1.00  0.00    -0.479 C  
BRANCH   4   5
ATOM      5  CA  MET A   1     -11.032   5.777  68.265  1.00  0.00    -0.064 C  
ATOM      6  C   MET A   1      -9.578   5.370  67.946  1.00  0.00    -0.129 C  
ATOM      7  N   MET A   1     -11.468   6.759  67.229  1.00  0.00    -0.729 NA 
ATOM      8  O   MET A   1      -9.281   5.622  66.642  1.00  0.00    -0.127 OA 
ATOM      9  OXT MET A   1      -8.789   4.860  68.725  1.00  0.00    -0.092 OA 
ATOM     10  H1  MET A   1     -11.393   6.397  66.278  1.00  0.00     0.000 HD 
ATOM     11  H2  MET A   1     -10.961   7.638  67.325  1.00  0.00     0.000 HD 
ENDBRANCH   4   5
ENDBRANCH   3   4
ENDBRANCH   2   3
TORSDOF 3
ENDMDL
MODEL      182
REMARK 921   NORMALIZED FREE ENERGY PREDICTED BY IDOCK:   -2.01 KCAL/MOL
REMARK 922        TOTAL FREE ENERGY PREDICTED BY IDOCK:   -2.42 KCAL/MOL
REMARK 923 INTER-LIGAND FREE ENERGY PREDICTED BY IDOCK:   -2.31 KCAL/MOL
REMARK 924 INTRA-LIGAND FREE ENERGY PREDICTED BY IDOCK:   -0.11 KCAL/MOL
REMARK 927      BINDING AFFINITY PREDICTED BY RF-SCORE:    0.00 PKD
ROOT
ATOM      1  CE  MET A   1     -12.504  10.932  70.577  1.00  0.00    -0.351 C  
ATOM      2  SD  MET A   1     -11.187  10.559  69.394  1.00  0.00    -0.285 SA 
ENDROOT
BRANCH   2   3
ATOM      3  CG  MET A   1     -11.778  11.552  67.986  1.00  0.00    -0.273 C  
BRANCH   3   4
ATOM      4  CB  MET A   1     -10.716  12.582  67.599  1.00  0.00    -0.242 C  
BRANCH   4   5
ATOM      5  CA  MET A   1     -10.226  13.415  68.790  1.00  0.00    -0.119 C  
ATOM      6  C   MET A   1     -11.057  14.708  68.934  1.00  0.00    -0.254 C  
ATOM      7  N   MET A   1      -8.790  13.807  68.678  1.00  0.00    -0.341 NA 
ATOM      8  O   MET A   1     -10.279  15.734  69.375  1.00  0.00    -0.225 OA 
ATOM      9  OXT MET A   1     -12.253  14.818  68.724  1.00  0.00    -0.218 OA 
ATOM     10  H1  MET A   1      -8.464  14.361  69.470  1.00  0.00     0.000 HD 
ATOM     11  H2  MET A   1      -8.612  14.290  67.798  1.00  0.00     0.000 HD 
ENDBRANCH   4   5
ENDBRANCH   3   4
ENDBRANCH   2   3
TORSDOF 3
ENDMDL
MODEL      183
REMARK 921   NORMALIZED FREE ENERGY PREDICTED BY IDOCK:   -2.00 KCAL/MOL
REMARK 922        TOTAL FREE ENERGY PREDICTED BY IDOCK:   -2.42 KCAL/MOL
REMARK 923 INTER-LIGAND FREE ENERGY PREDICTED BY IDOCK:   -2.30 KCAL/MOL
REMARK 924 INTRA-LIGAND FREE ENERGY PREDICTED BY IDOCK:   -0.11 KCAL/MOL
REMARK 927      BINDING AFFINITY PREDICTED BY RF-SCORE:    0.00 PKD
ROOT
ATOM      1  CE  MET A   1     -10.015  10.896  63.790  1.00  0.00    -0.351 C  
ATOM      2  SD  MET A   1     -10.638  11.869  65.182  1.00  0.00    -0.299 SA 
ENDROOT
BRANCH   2   3
ATOM      3  CG  MET A   1      -9.705  11.071  66.529  1.00  0.00    -0.198 C  
BRANCH   3   4
ATOM      4  CB  MET A   1     -10.553  11.050  67.800  1.00  0.00    -0.250 C  
BRANCH   4   5
ATOM      5  CA  MET A   1     -10.620   9.664  68.454  1.00  0.00    -0.225 C  
ATOM      6  C   MET A   1      -9.308   9.345  69.202  1.00  0.00    -0.159 C  
ATOM      7  N   MET A   1     -10.863   8.565  67.473  1.00  0.00    -0.494 NA 
ATOM      8  O   MET A   1      -9.012   8.020  69.116  1.00  0.00    -0.144 OA 
ATOM      9  OXT MET A   1      -8.625  10.143  69.823  1.00  0.00    -0.184 OA 
ATOM     10  H1  MET A   1     -10.907   7.643  67.908  1.00  0.00     0.000 HD 
ATOM     11  H2  MET A   1     -10.167   8.582  66.728  1.00  0.00     0.000 HD 
ENDBRANCH   4   5
ENDBRANCH   3   4
ENDBRANCH   2   3
TORSDOF 3
ENDMDL
MODEL      184
REMARK 921   NORMALIZED FREE ENERGY PREDICTED BY IDOCK:   -2.00 KCAL/MOL
REMARK 922        TOTAL FREE ENERGY PREDICTED BY IDOCK:   -2.41 KCAL/MOL
REMARK 923 INTER-LIGAND FREE ENERGY PREDICTED BY IDOCK:   -2.21 KCAL/MOL
REMARK 924 INTRA-LIGAND FREE ENERGY PREDICTED BY IDOCK:   -0.20 KCAL/MOL
REMARK 927      BINDING AFFINITY PREDICTED BY RF-SCORE:    0.00 PKD
ROOT
ATOM      1  CE  MET A   1     -10.978  15.022  67.633  1.00  0.00    -0.305 C  
ATOM      2  SD  MET A   1      -9.529  14.812  66.571  1.00  0.00    -0.305 SA 
ENDROOT
BRANCH   2   3
ATOM      3  CG  MET A   1      -8.253  14.630  67.859  1.00  0.00    -0.150 C  
BRANCH   3   4
ATOM      4  CB  MET A   1      -8.545  15.590  69.012  1.00  0.00    -0.234 C  
BRANCH   4   5
ATOM      5  CA  MET A   1      -7.617  16.812  69.026  1.00  0.00    -0.218 C  
ATOM      6  C   MET A   1      -8.353  18.065  68.507  1.00  0.00    -0.304 C  
ATOM      7  N   MET A   1      -6.392  16.625  68.194  1.00  0.00    -0.132 NA 
ATOM      8  O   MET A   1      -7.504  18.870  67.812  1.00  0.00    -0.234 OA 
ATOM      9  OXT MET A   1      -9.524  18.342  68.705  1.00  0.00    -0.329 OA 
ATOM     10  H1  MET A   1      -5.775  17.438  68.203  1.00  0.00     0.000 HD 
ATOM     11  H2  MET A   1      -6.637  16.366  67.238  1.00  0.00     0.000 HD 
ENDBRANCH   4   5
ENDBRANCH   3   4
ENDBRANCH   2   3
TORSDOF 3
ENDMDL
MODEL      185
REMARK 921   NORMALIZED FREE ENERGY PREDICTED BY IDOCK:   -2.00 KCAL/MOL
REMARK 922        TOTAL FREE ENERGY PREDICTED BY IDOCK:   -2.41 KCAL/MOL
REMARK 923 INTER-LIGAND FREE ENERGY PREDICTED BY IDOCK:   -2.29 KCAL/MOL
REMARK 924 INTRA-LIGAND FREE ENERGY PREDICTED BY IDOCK:   -0.12 KCAL/MOL
REMARK 927      BINDING AFFINITY PREDICTED BY RF-SCORE:    0.00 PKD
ROOT
ATOM      1  CE  MET A   1     -12.656  15.313  70.173  1.00  0.00    -0.296 C  
ATOM      2  SD  MET A   1     -12.058  13.629  69.894  1.00  0.00    -0.325 SA 
ENDROOT
BRANCH   2   3
ATOM      3  CG  MET A   1     -12.077  13.616  68.072  1.00  0.00    -0.274 C  
BRANCH   3   4
ATOM      4  CB  MET A   1     -10.964  12.706  67.552  1.00  0.00    -0.280 C  
BRANCH   4   5
ATOM      5  CA  MET A   1      -9.592  13.028  68.158  1.00  0.00    -0.227 C  
ATOM      6  C   MET A   1      -8.670  13.688  67.111  1.00  0.00    -0.216 C  
ATOM      7  N   MET A   1      -8.890  11.821  68.687  1.00  0.00    -0.336 NA 
ATOM      8  O   MET A   1      -7.378  13.303  67.295  1.00  0.00    -0.140 OA 
ATOM      9  OXT MET A   1      -9.017  14.476  66.247  1.00  0.00    -0.194 OA 
ATOM     10  H1  MET A   1      -7.977  12.035  69.091  1.00  0.00     0.000 HD 
ATOM     11  H2  MET A   1      -8.810  11.102  67.969  1.00  0.00     0.000 HD 
ENDBRANCH   4   5
ENDBRANCH   3   4
ENDBRANCH   2   3
TORSDOF 3
ENDMDL
MODEL      186
REMARK 921   NORMALIZED FREE ENERGY PREDICTED BY IDOCK:   -1.98 KCAL/MOL
REMARK 922        TOTAL FREE ENERGY PREDICTED BY IDOCK:   -2.39 KCAL/MOL
REMARK 923 INTER-LIGAND FREE ENERGY PREDICTED BY IDOCK:   -2.29 KCAL/MOL
REMARK 924 INTRA-LIGAND FREE ENERGY PREDICTED BY IDOCK:   -0.10 KCAL/MOL
REMARK 927      BINDING AFFINITY PREDICTED BY RF-SCORE:    0.00 PKD
ROOT
ATOM      1  CE  MET A   1     -10.517  10.531  66.286  1.00  0.00    -0.183 C  
ATOM      2  SD  MET A   1      -8.862   9.802  66.271  1.00  0.00    -0.150 SA 
ENDROOT
BRANCH   2   3
ATOM      3  CG  MET A   1      -9.019   8.704  67.716  1.00  0.00    -0.136 C  
BRANCH   3   4
ATOM      4  CB  MET A   1     -10.405   8.870  68.341  1.00  0.00    -0.237 C  
BRANCH   4   5
ATOM      5  CA  MET A   1     -10.357   9.434  69.767  1.00  0.00    -0.223 C  
ATOM      6  C   MET A   1     -11.319   8.663  70.694  1.00  0.00    -0.247 C  
ATOM      7  N   MET A   1     -10.720  10.881  69.836  1.00  0.00    -0.462 NA 
ATOM      8  O   MET A   1     -11.870   9.496  71.618  1.00  0.00    -0.366 OA 
ATOM      9  OXT MET A   1     -11.548   7.466  70.653  1.00  0.00    -0.291 OA 
ATOM     10  H1  MET A   1     -10.688  11.256  70.784  1.00  0.00     0.000 HD 
ATOM     11  H2  MET A   1     -11.631  11.049  69.409  1.00  0.00     0.000 HD 
ENDBRANCH   4   5
ENDBRANCH   3   4
ENDBRANCH   2   3
TORSDOF 3
ENDMDL
MODEL      187
REMARK 921   NORMALIZED FREE ENERGY PREDICTED BY IDOCK:   -1.98 KCAL/MOL
REMARK 922        TOTAL FREE ENERGY PREDICTED BY IDOCK:   -2.38 KCAL/MOL
REMARK 923 INTER-LIGAND FREE ENERGY PREDICTED BY IDOCK:   -2.33 KCAL/MOL
REMARK 924 INTRA-LIGAND FREE ENERGY PREDICTED BY IDOCK:   -0.05 KCAL/MOL
REMARK 927      BINDING AFFINITY PREDICTED BY RF-SCORE:    0.00 PKD
ROOT
ATOM      1  CE  MET A   1     -10.384  12.153  64.800  1.00  0.00    -0.288 C  
ATOM      2  SD  MET A   1     -10.878  11.685  66.476  1.00  0.00    -0.292 SA 
ENDROOT
BRANCH   2   3
ATOM      3  CG  MET A   1      -9.947  10.127  66.626  1.00  0.00    -0.216 C  
BRANCH   3   4
ATOM      4  CB  MET A   1     -10.652   9.199  67.615  1.00  0.00    -0.307 C  
BRANCH   4   5
ATOM      5  CA  MET A   1     -10.722   7.745  67.130  1.00  0.00    -0.267 C  
ATOM      6  C   MET A   1     -10.416   6.766  68.284  1.00  0.00    -0.206 C  
ATOM      7  N   MET A   1      -9.768   7.452  66.020  1.00  0.00    -0.419 NA 
ATOM      8  O   MET A   1      -9.743   5.675  67.826  1.00  0.00    -0.116 OA 
ATOM      9  OXT MET A   1     -10.747   6.907  69.449  1.00  0.00    -0.225 OA 
ATOM     10  H1  MET A   1      -9.814   6.485  65.697  1.00  0.00     0.000 HD 
ATOM     11  H2  MET A   1      -8.814   7.702  66.283  1.00  0.00     0.000 HD 
ENDBRANCH   4   5
ENDBRANCH   3   4
ENDBRANCH   2   3
TORSDOF 3
ENDMDL
MODEL      188
REMARK 921   NORMALIZED FREE ENERGY PREDICTED BY IDOCK:   -1.98 KCAL/MOL
REMARK 922        TOTAL FREE ENERGY PREDICTED BY IDOCK:   -2.38 KCAL/MOL
REMARK 923 INTER-LIGAND FREE ENERGY PREDICTED BY IDOCK:   -2.25 KCAL/MOL
REMARK 924 INTRA-LIGAND FREE ENERGY PREDICTED BY IDOCK:   -0.13 KCAL/MOL
REMARK 927      BINDING AFFINITY PREDICTED BY RF-SCORE:    0.00 PKD
ROOT
ATOM      1  CE  MET A   1      -9.246  14.465  67.523  1.00  0.00    -0.200 C  
ATOM      2  SD  MET A   1      -9.357  16.260  67.332  1.00  0.00    -0.222 SA 
ENDROOT
BRANCH   2   3
ATOM      3  CG  MET A   1      -7.796  16.549  66.437  1.00  0.00    -0.289 C  
BRANCH   3   4
ATOM      4  CB  MET A   1      -7.206  17.896  66.854  1.00  0.00    -0.221 C  
BRANCH   4   5
ATOM      5  CA  MET A   1      -7.034  18.034  68.372  1.00  0.00    -0.236 C  
ATOM      6  C   MET A   1      -7.560  19.399  68.863  1.00  0.00    -0.363 C  
ATOM      7  N   MET A   1      -5.613  17.908  68.814  1.00  0.00    -0.175 NA 
ATOM      8  O   MET A   1      -6.806  19.864  69.895  1.00  0.00    -0.323 OA 
ATOM      9  OXT MET A   1      -8.536  19.988  68.429  1.00  0.00    -0.226 OA 
ATOM     10  H1  MET A   1      -5.498  17.999  69.823  1.00  0.00     0.000 HD 
ATOM     11  H2  MET A   1      -5.018  18.572  68.319  1.00  0.00     0.000 HD 
ENDBRANCH   4   5
ENDBRANCH   3   4
ENDBRANCH   2   3
TORSDOF 3
ENDMDL
MODEL      189
REMARK 921   NORMALIZED FREE ENERGY PREDICTED BY IDOCK:   -1.96 KCAL/MOL
REMARK 922        TOTAL FREE ENERGY PREDICTED BY IDOCK:   -2.36 KCAL/MOL
REMARK 923 INTER-LIGAND FREE ENERGY PREDICTED BY IDOCK:   -2.29 KCAL/MOL
REMARK 924 INTRA-LIGAND FREE ENERGY PREDICTED BY IDOCK:   -0.07 KCAL/MOL
REMARK 927      BINDING AFFINITY PREDICTED BY RF-SCORE:    0.00 PKD
ROOT
ATOM      1  CE  MET A   1      -9.742   5.347  70.533  1.00  0.00    -0.185 C  
ATOM      2  SD  MET A   1      -9.380   6.678  69.363  1.00  0.00    -0.147 SA 
ENDROOT
BRANCH   2   3
ATOM      3  CG  MET A   1      -9.991   8.091  70.338  1.00  0.00    -0.188 C  
BRANCH   3   4
ATOM      4  CB  MET A   1     -10.824   9.010  69.445  1.00  0.00    -0.152 C  
BRANCH   4   5
ATOM      5  CA  MET A   1     -10.392  10.480  69.526  1.00  0.00    -0.221 C  
ATOM      6  C   MET A   1     -11.044  11.307  68.398  1.00  0.00    -0.240 C  
ATOM      7  N   MET A   1      -8.913  10.661  69.427  1.00  0.00    -0.380 NA 
ATOM      8  O   MET A   1     -10.199  12.281  67.963  1.00  0.00    -0.195 OA 
ATOM      9  OXT MET A   1     -12.172  11.156  67.959  1.00  0.00    -0.584 OA 
ATOM     10  H1  MET A   1      -8.625  11.638  69.480  1.00  0.00     0.000 HD 
ATOM     11  H2  MET A   1      -8.548  10.220  68.582  1.00  0.00     0.000 HD 
ENDBRANCH   4   5
ENDBRANCH   3   4
ENDBRANCH   2   3
TORSDOF 3
ENDMDL
MODEL      190
REMARK 921   NORMALIZED FREE ENERGY PREDICTED BY IDOCK:   -1.94 KCAL/MOL
REMARK 922        TOTAL FREE ENERGY PREDICTED BY IDOCK:   -2.34 KCAL/MOL
REMARK 923 INTER-LIGAND FREE ENERGY PREDICTED BY IDOCK:   -2.30 KCAL/MOL
REMARK 924 INTRA-LIGAND FREE ENERGY PREDICTED BY IDOCK:   -0.04 KCAL/MOL
REMARK 927      BINDING AFFINITY PREDICTED BY RF-SCORE:    0.00 PKD
ROOT
ATOM      1  CE  MET A   1     -11.129  12.367  63.466  1.00  0.00    -0.458 C  
ATOM      2  SD  MET A   1     -12.422  12.766  64.667  1.00  0.00    -0.430 SA 
ENDROOT
BRANCH   2   3
ATOM      3  CG  MET A   1     -11.426  12.702  66.192  1.00  0.00    -0.365 C  
BRANCH   3   4
ATOM      4  CB  MET A   1     -10.656  11.383  66.249  1.00  0.00    -0.312 C  
BRANCH   4   5
ATOM      5  CA  MET A   1      -9.142  11.577  66.406  1.00  0.00    -0.200 C  
ATOM      6  C   MET A   1      -8.407  10.221  66.356  1.00  0.00    -0.132 C  
ATOM      7  N   MET A   1      -8.768  12.252  67.684  1.00  0.00    -0.166 NA 
ATOM      8  O   MET A   1      -7.330  10.225  67.188  1.00  0.00    -0.089 OA 
ATOM      9  OXT MET A   1      -8.705   9.270  65.654  1.00  0.00    -0.146 OA 
ATOM     10  H1  MET A   1      -7.762  12.381  67.788  1.00  0.00     0.000 HD 
ATOM     11  H2  MET A   1      -9.156  11.754  68.485  1.00  0.00     0.000 HD 
ENDBRANCH   4   5
ENDBRANCH   3   4
ENDBRANCH   2   3
TORSDOF 3
ENDMDL
MODEL      191
REMARK 921   NORMALIZED FREE ENERGY PREDICTED BY IDOCK:   -1.94 KCAL/MOL
REMARK 922        TOTAL FREE ENERGY PREDICTED BY IDOCK:   -2.34 KCAL/MOL
REMARK 923 INTER-LIGAND FREE ENERGY PREDICTED BY IDOCK:   -2.26 KCAL/MOL
REMARK 924 INTRA-LIGAND FREE ENERGY PREDICTED BY IDOCK:   -0.08 KCAL/MOL
REMARK 927      BINDING AFFINITY PREDICTED BY RF-SCORE:    0.00 PKD
ROOT
ATOM      1  CE  MET A   1      -6.330  20.039  70.346  1.00  0.00    -0.288 C  
ATOM      2  SD  MET A   1      -5.173  18.785  70.947  1.00  0.00    -0.265 SA 
ENDROOT
BRANCH   2   3
ATOM      3  CG  MET A   1      -5.652  17.407  69.856  1.00  0.00    -0.234 C  
BRANCH   3   4
ATOM      4  CB  MET A   1      -6.799  17.845  68.946  1.00  0.00    -0.250 C  
BRANCH   4   5
ATOM      5  CA  MET A   1      -7.712  16.686  68.529  1.00  0.00    -0.215 C  
ATOM      6  C   MET A   1      -9.198  17.088  68.644  1.00  0.00    -0.266 C  
ATOM      7  N   MET A   1      -7.509  15.456  69.351  1.00  0.00    -0.205 NA 
ATOM      8  O   MET A   1      -9.957  16.028  69.033  1.00  0.00    -0.217 OA 
ATOM      9  OXT MET A   1      -9.663  18.188  68.394  1.00  0.00    -0.319 OA 
ATOM     10  H1  MET A   1      -8.116  14.685  69.074  1.00  0.00     0.000 HD 
ATOM     11  H2  MET A   1      -7.612  15.662  70.345  1.00  0.00     0.000 HD 
ENDBRANCH   4   5
ENDBRANCH   3   4
ENDBRANCH   2   3
TORSDOF 3
ENDMDL
MODEL      192
REMARK 921   NORMALIZED FREE ENERGY PREDICTED BY IDOCK:   -1.94 KCAL/MOL
REMARK 922        TOTAL FREE ENERGY PREDICTED BY IDOCK:   -2.34 KCAL/MOL
REMARK 923 INTER-LIGAND FREE ENERGY PREDICTED BY IDOCK:   -2.19 KCAL/MOL
REMARK 924 INTRA-LIGAND FREE ENERGY PREDICTED BY IDOCK:   -0.14 KCAL/MOL
REMARK 927      BINDING AFFINITY PREDICTED BY RF-SCORE:    0.00 PKD
ROOT
ATOM      1  CE  MET A   1      -6.516  11.179  66.420  1.00  0.00    -0.109 C  
ATOM      2  SD  MET A   1      -6.507  12.533  67.619  1.00  0.00    -0.152 SA 
ENDROOT
BRANCH   2   3
ATOM      3  CG  MET A   1      -8.256  13.030  67.503  1.00  0.00    -0.181 C  
BRANCH   3   4
ATOM      4  CB  MET A   1      -9.074  11.895  66.888  1.00  0.00    -0.196 C  
BRANCH   4   5
ATOM      5  CA  MET A   1     -10.263  11.471  67.759  1.00  0.00    -0.182 C  
ATOM      6  C   MET A   1     -11.446  12.448  67.588  1.00  0.00    -0.337 C  
ATOM      7  N   MET A   1      -9.931  11.409  69.213  1.00  0.00    -0.424 NA 
ATOM      8  O   MET A   1     -12.122  12.598  68.759  1.00  0.00    -0.269 OA 
ATOM      9  OXT MET A   1     -11.775  12.999  66.551  1.00  0.00    -0.344 OA 
ATOM     10  H1  MET A   1     -10.721  11.127  69.793  1.00  0.00     0.000 HD 
ATOM     11  H2  MET A   1      -9.541  12.295  69.536  1.00  0.00     0.000 HD 
ENDBRANCH   4   5
ENDBRANCH   3   4
ENDBRANCH   2   3
TORSDOF 3
ENDMDL
MODEL      193
REMARK 921   NORMALIZED FREE ENERGY PREDICTED BY IDOCK:   -1.93 KCAL/MOL
REMARK 922        TOTAL FREE ENERGY PREDICTED BY IDOCK:   -2.33 KCAL/MOL
REMARK 923 INTER-LIGAND FREE ENERGY PREDICTED BY IDOCK:   -2.28 KCAL/MOL
REMARK 924 INTRA-LIGAND FREE ENERGY PREDICTED BY IDOCK:   -0.05 KCAL/MOL
REMARK 927      BINDING AFFINITY PREDICTED BY RF-SCORE:    0.00 PKD
ROOT
ATOM      1  CE  MET A   1      -9.776  16.570  69.246  1.00  0.00    -0.193 C  
ATOM      2  SD  MET A   1      -9.836  18.013  68.158  1.00  0.00    -0.361 SA 
ENDROOT
BRANCH   2   3
ATOM      3  CG  MET A   1      -8.065  18.444  68.157  1.00  0.00    -0.290 C  
BRANCH   3   4
ATOM      4  CB  MET A   1      -7.756  19.346  66.962  1.00  0.00    -0.268 C  
BRANCH   4   5
ATOM      5  CA  MET A   1      -6.382  19.067  66.339  1.00  0.00    -0.189 C  
ATOM      6  C   MET A   1      -6.292  19.664  64.918  1.00  0.00    -0.271 C  
ATOM      7  N   MET A   1      -6.068  17.611  66.242  1.00  0.00    -0.208 NA 
ATOM      8  O   MET A   1      -5.538  18.871  64.108  1.00  0.00    -0.267 OA 
ATOM      9  OXT MET A   1      -6.789  20.715  64.550  1.00  0.00    -0.234 OA 
ATOM     10  H1  MET A   1      -5.154  17.425  65.827  1.00  0.00     0.000 HD 
ATOM     11  H2  MET A   1      -6.803  17.113  65.740  1.00  0.00     0.000 HD 
ENDBRANCH   4   5
ENDBRANCH   3   4
ENDBRANCH   2   3
TORSDOF 3
ENDMDL
MODEL      194
REMARK 921   NORMALIZED FREE ENERGY PREDICTED BY IDOCK:   -1.93 KCAL/MOL
REMARK 922        TOTAL FREE ENERGY PREDICTED BY IDOCK:   -2.33 KCAL/MOL
REMARK 923 INTER-LIGAND FREE ENERGY PREDICTED BY IDOCK:   -2.26 KCAL/MOL
REMARK 924 INTRA-LIGAND FREE ENERGY PREDICTED BY IDOCK:   -0.07 KCAL/MOL
REMARK 927      BINDING AFFINITY PREDICTED BY RF-SCORE:    0.00 PKD
ROOT
ATOM      1  CE  MET A   1     -10.436  12.151  64.838  1.00  0.00    -0.288 C  
ATOM      2  SD  MET A   1     -10.949  11.839  66.545  1.00  0.00    -0.304 SA 
ENDROOT
BRANCH   2   3
ATOM      3  CG  MET A   1     -10.100  10.249  66.813  1.00  0.00    -0.216 C  
BRANCH   3   4
ATOM      4  CB  MET A   1     -10.784   9.486  67.947  1.00  0.00    -0.285 C  
BRANCH   4   5
ATOM      5  CA  MET A   1      -9.977   8.271  68.425  1.00  0.00    -0.190 C  
ATOM      6  C   MET A   1     -10.638   6.956  67.960  1.00  0.00    -0.222 C  
ATOM      7  N   MET A   1      -9.838   8.211  69.910  1.00  0.00    -0.184 NA 
ATOM      8  O   MET A   1     -10.478   5.980  68.894  1.00  0.00    -0.196 OA 
ATOM      9  OXT MET A   1     -11.202   6.776  66.894  1.00  0.00    -0.375 OA 
ATOM     10  H1  MET A   1      -9.301   7.403  70.229  1.00  0.00     0.000 HD 
ATOM     11  H2  MET A   1     -10.751   8.242  70.363  1.00  0.00     0.000 HD 
ENDBRANCH   4   5
ENDBRANCH   3   4
ENDBRANCH   2   3
TORSDOF 3
ENDMDL
MODEL      195
REMARK 921   NORMALIZED FREE ENERGY PREDICTED BY IDOCK:   -1.92 KCAL/MOL
REMARK 922        TOTAL FREE ENERGY PREDICTED BY IDOCK:   -2.32 KCAL/MOL
REMARK 923 INTER-LIGAND FREE ENERGY PREDICTED BY IDOCK:   -2.18 KCAL/MOL
REMARK 924 INTRA-LIGAND FREE ENERGY PREDICTED BY IDOCK:   -0.14 KCAL/MOL
REMARK 927      BINDING AFFINITY PREDICTED BY RF-SCORE:    0.00 PKD
ROOT
ATOM      1  CE  MET A   1     -10.441  16.355  66.197  1.00  0.00    -0.314 C  
ATOM      2  SD  MET A   1     -10.432  17.248  67.770  1.00  0.00    -0.368 SA 
ENDROOT
BRANCH   2   3
ATOM      3  CG  MET A   1      -8.730  16.874  68.302  1.00  0.00    -0.235 C  
BRANCH   3   4
ATOM      4  CB  MET A   1      -8.739  15.680  69.257  1.00  0.00    -0.267 C  
BRANCH   4   5
ATOM      5  CA  MET A   1      -7.609  14.681  68.981  1.00  0.00    -0.136 C  
ATOM      6  C   MET A   1      -8.149  13.426  68.262  1.00  0.00    -0.152 C  
ATOM      7  N   MET A   1      -6.910  14.230  70.221  1.00  0.00    -0.405 NA 
ATOM      8  O   MET A   1      -7.477  12.313  68.664  1.00  0.00    -0.111 OA 
ATOM      9  OXT MET A   1      -9.032  13.407  67.421  1.00  0.00    -0.194 OA 
ATOM     10  H1  MET A   1      -6.159  13.565  70.037  1.00  0.00     0.000 HD 
ATOM     11  H2  MET A   1      -7.575  13.850  70.895  1.00  0.00     0.000 HD 
ENDBRANCH   4   5
ENDBRANCH   3   4
ENDBRANCH   2   3
TORSDOF 3
ENDMDL
MODEL      196
REMARK 921   NORMALIZED FREE ENERGY PREDICTED BY IDOCK:   -1.92 KCAL/MOL
REMARK 922        TOTAL FREE ENERGY PREDICTED BY IDOCK:   -2.31 KCAL/MOL
REMARK 923 INTER-LIGAND FREE ENERGY PREDICTED BY IDOCK:   -2.25 KCAL/MOL
REMARK 924 INTRA-LIGAND FREE ENERGY PREDICTED BY IDOCK:   -0.07 KCAL/MOL
REMARK 927      BINDING AFFINITY PREDICTED BY RF-SCORE:    0.00 PKD
ROOT
ATOM      1  CE  MET A   1      -6.202  14.348  70.391  1.00  0.00    -0.173 C  
ATOM      2  SD  MET A   1      -6.924  14.680  68.767  1.00  0.00    -0.109 SA 
ENDROOT
BRANCH   2   3
ATOM      3  CG  MET A   1      -7.857  16.192  69.172  1.00  0.00    -0.232 C  
BRANCH   3   4
ATOM      4  CB  MET A   1      -8.568  16.709  67.921  1.00  0.00    -0.196 C  
BRANCH   4   5
ATOM      5  CA  MET A   1      -8.236  18.172  67.602  1.00  0.00    -0.242 C  
ATOM      6  C   MET A   1      -9.213  18.740  66.551  1.00  0.00    -0.331 C  
ATOM      7  N   MET A   1      -6.849  18.357  67.081  1.00  0.00    -0.192 NA 
ATOM      8  O   MET A   1      -8.579  19.620  65.729  1.00  0.00    -0.395 OA 
ATOM      9  OXT MET A   1     -10.401  18.482  66.464  1.00  0.00    -0.375 OA 
ATOM     10  H1  MET A   1      -6.628  19.330  66.869  1.00  0.00     0.000 HD 
ATOM     11  H2  MET A   1      -6.682  17.761  66.270  1.00  0.00     0.000 HD 
ENDBRANCH   4   5
ENDBRANCH   3   4
ENDBRANCH   2   3
TORSDOF 3
ENDMDL
MODEL      197
REMARK 921   NORMALIZED FREE ENERGY PREDICTED BY IDOCK:   -1.91 KCAL/MOL
REMARK 922        TOTAL FREE ENERGY PREDICTED BY IDOCK:   -2.31 KCAL/MOL
REMARK 923 INTER-LIGAND FREE ENERGY PREDICTED BY IDOCK:   -2.36 KCAL/MOL
REMARK 924 INTRA-LIGAND FREE ENERGY PREDICTED BY IDOCK:    0.05 KCAL/MOL
REMARK 927      BINDING AFFINITY PREDICTED BY RF-SCORE:    0.00 PKD
ROOT
ATOM      1  CE  MET A   1      -9.523   3.749  69.303  1.00  0.00    -0.182 C  
ATOM      2  SD  MET A   1      -9.746   4.159  71.051  1.00  0.00    -0.180 SA 
ENDROOT
BRANCH   2   3
ATOM      3  CG  MET A   1     -10.172   5.922  70.880  1.00  0.00    -0.213 C  
BRANCH   3   4
ATOM      4  CB  MET A   1     -11.182   6.314  71.958  1.00  0.00    -0.327 C  
BRANCH   4   5
ATOM      5  CA  MET A   1     -10.556   7.115  73.106  1.00  0.00    -0.336 C  
ATOM      6  C   MET A   1      -9.823   8.363  72.569  1.00  0.00    -0.289 C  
ATOM      7  N   MET A   1      -9.577   6.322  73.907  1.00  0.00    -0.162 NA 
ATOM      8  O   MET A   1      -8.715   8.629  73.312  1.00  0.00    -0.352 OA 
ATOM      9  OXT MET A   1     -10.182   9.057  71.632  1.00  0.00    -0.317 OA 
ATOM     10  H1  MET A   1      -9.160   6.854  74.670  1.00  0.00     0.000 HD 
ATOM     11  H2  MET A   1      -8.855   5.921  73.307  1.00  0.00     0.000 HD 
ENDBRANCH   4   5
ENDBRANCH   3   4
ENDBRANCH   2   3
TORSDOF 3
ENDMDL
MODEL      198
REMARK 921   NORMALIZED FREE ENERGY PREDICTED BY IDOCK:   -1.91 KCAL/MOL
REMARK 922        TOTAL FREE ENERGY PREDICTED BY IDOCK:   -2.31 KCAL/MOL
REMARK 923 INTER-LIGAND FREE ENERGY PREDICTED BY IDOCK:   -2.18 KCAL/MOL
REMARK 924 INTRA-LIGAND FREE ENERGY PREDICTED BY IDOCK:   -0.13 KCAL/MOL
REMARK 927      BINDING AFFINITY PREDICTED BY RF-SCORE:    0.00 PKD
ROOT
ATOM      1  CE  MET A   1      -6.625   9.830  70.067  1.00  0.00    -0.081 C  
ATOM      2  SD  MET A   1      -7.638   8.718  71.072  1.00  0.00    -0.121 SA 
ENDROOT
BRANCH   2   3
ATOM      3  CG  MET A   1      -9.078   8.566  69.966  1.00  0.00    -0.147 C  
BRANCH   3   4
ATOM      4  CB  MET A   1     -10.003   9.769  70.156  1.00  0.00    -0.315 C  
BRANCH   4   5
ATOM      5  CA  MET A   1     -10.072  10.674  68.920  1.00  0.00    -0.202 C  
ATOM      6  C   MET A   1     -11.537  11.007  68.565  1.00  0.00    -0.310 C  
ATOM      7  N   MET A   1      -9.438  10.066  67.713  1.00  0.00    -0.140 NA 
ATOM      8  O   MET A   1     -11.698  11.098  67.217  1.00  0.00    -0.540 OA 
ATOM      9  OXT MET A   1     -12.441  11.200  69.361  1.00  0.00    -0.323 OA 
ATOM     10  H1  MET A   1      -9.485  10.667  66.890  1.00  0.00     0.000 HD 
ATOM     11  H2  MET A   1      -9.838   9.148  67.515  1.00  0.00     0.000 HD 
ENDBRANCH   4   5
ENDBRANCH   3   4
ENDBRANCH   2   3
TORSDOF 3
ENDMDL
MODEL      199
REMARK 921   NORMALIZED FREE ENERGY PREDICTED BY IDOCK:   -1.91 KCAL/MOL
REMARK 922        TOTAL FREE ENERGY PREDICTED BY IDOCK:   -2.31 KCAL/MOL
REMARK 923 INTER-LIGAND FREE ENERGY PREDICTED BY IDOCK:   -2.16 KCAL/MOL
REMARK 924 INTRA-LIGAND FREE ENERGY PREDICTED BY IDOCK:   -0.14 KCAL/MOL
REMARK 927      BINDING AFFINITY PREDICTED BY RF-SCORE:    0.00 PKD
ROOT
ATOM      1  CE  MET A   1      -6.484   8.593  68.550  1.00  0.00    -0.055 C  
ATOM      2  SD  MET A   1      -7.938   7.826  69.305  1.00  0.00    -0.127 SA 
ENDROOT
BRANCH   2   3
ATOM      3  CG  MET A   1      -9.238   8.686  68.363  1.00  0.00    -0.138 C  
BRANCH   3   4
ATOM      4  CB  MET A   1     -10.457   8.915  69.257  1.00  0.00    -0.234 C  
BRANCH   4   5
ATOM      5  CA  MET A   1     -10.398   8.121  70.568  1.00  0.00    -0.202 C  
ATOM      6  C   MET A   1     -11.382   6.933  70.535  1.00  0.00    -0.327 C  
ATOM      7  N   MET A   1     -10.722   8.948  71.768  1.00  0.00    -0.341 NA 
ATOM      8  O   MET A   1     -11.914   6.712  71.769  1.00  0.00    -0.318 OA 
ATOM      9  OXT MET A   1     -11.644   6.246  69.562  1.00  0.00    -0.423 OA 
ATOM     10  H1  MET A   1     -10.682   8.420  72.640  1.00  0.00     0.000 HD 
ATOM     11  H2  MET A   1     -11.627   9.406  71.660  1.00  0.00     0.000 HD 
ENDBRANCH   4   5
ENDBRANCH   3   4
ENDBRANCH   2   3
TORSDOF 3
ENDMDL
MODEL      200
REMARK 921   NORMALIZED FREE ENERGY PREDICTED BY IDOCK:   -1.91 KCAL/MOL
REMARK 922        TOTAL FREE ENERGY PREDICTED BY IDOCK:   -2.31 KCAL/MOL
REMARK 923 INTER-LIGAND FREE ENERGY PREDICTED BY IDOCK:   -2.23 KCAL/MOL
REMARK 924 INTRA-LIGAND FREE ENERGY PREDICTED BY IDOCK:   -0.08 KCAL/MOL
REMARK 927      BINDING AFFINITY PREDICTED BY RF-SCORE:    0.00 PKD
ROOT
ATOM      1  CE  MET A   1      -5.750  11.532  66.427  1.00  0.00    -0.061 C  
ATOM      2  SD  MET A   1      -6.301  12.665  67.725  1.00  0.00    -0.145 SA 
ENDROOT
BRANCH   2   3
ATOM      3  CG  MET A   1      -8.098  12.391  67.602  1.00  0.00    -0.168 C  
BRANCH   3   4
ATOM      4  CB  MET A   1      -8.490  11.167  68.430  1.00  0.00    -0.151 C  
BRANCH   4   5
ATOM      5  CA  MET A   1      -9.981  11.137  68.789  1.00  0.00    -0.198 C  
ATOM      6  C   MET A   1     -10.800  10.453  67.674  1.00  0.00    -0.306 C  
ATOM      7  N   MET A   1     -10.557  12.496  69.009  1.00  0.00    -0.419 NA 
ATOM      8  O   MET A   1     -12.024  11.035  67.548  1.00  0.00    -0.529 OA 
ATOM      9  OXT MET A   1     -10.442   9.498  67.005  1.00  0.00    -0.249 OA 
ATOM     10  H1  MET A   1     -11.549  12.476  69.248  1.00  0.00     0.000 HD 
ATOM     11  H2  MET A   1     -10.389  13.098  68.202  1.00  0.00     0.000 HD 
ENDBRANCH   4   5
ENDBRANCH   3   4
ENDBRANCH   2   3
TORSDOF 3
ENDMDL
MODEL      201
REMARK 921   NORMALIZED FREE ENERGY PREDICTED BY IDOCK:   -1.90 KCAL/MOL
REMARK 922        TOTAL FREE ENERGY PREDICTED BY IDOCK:   -2.30 KCAL/MOL
REMARK 923 INTER-LIGAND FREE ENERGY PREDICTED BY IDOCK:   -2.24 KCAL/MOL
REMARK 924 INTRA-LIGAND FREE ENERGY PREDICTED BY IDOCK:   -0.06 KCAL/MOL
REMARK 927      BINDING AFFINITY PREDICTED BY RF-SCORE:    0.00 PKD
ROOT
ATOM      1  CE  MET A   1      -8.706   5.617  71.696  1.00  0.00    -0.136 C  
ATOM      2  SD  MET A   1      -8.883   7.081  70.649  1.00  0.00    -0.150 SA 
ENDROOT
BRANCH   2   3
ATOM      3  CG  MET A   1     -10.688   7.038  70.400  1.00  0.00    -0.234 C  
BRANCH   3   4
ATOM      4  CB  MET A   1     -11.237   8.464  70.369  1.00  0.00    -0.220 C  
BRANCH   4   5
ATOM      5  CA  MET A   1     -10.575   9.340  69.298  1.00  0.00    -0.222 C  
ATOM      6  C   MET A   1     -11.215  10.744  69.265  1.00  0.00    -0.272 C  
ATOM      7  N   MET A   1     -10.675   8.762  67.925  1.00  0.00    -0.456 NA 
ATOM      8  O   MET A   1     -11.252  11.228  67.994  1.00  0.00    -0.240 OA 
ATOM      9  OXT MET A   1     -11.612  11.374  70.231  1.00  0.00    -0.307 OA 
ATOM     10  H1  MET A   1     -10.234   9.344  67.213  1.00  0.00     0.000 HD 
ATOM     11  H2  MET A   1     -11.645   8.563  67.683  1.00  0.00     0.000 HD 
ENDBRANCH   4   5
ENDBRANCH   3   4
ENDBRANCH   2   3
TORSDOF 3
ENDMDL
MODEL      202
REMARK 921   NORMALIZED FREE ENERGY PREDICTED BY IDOCK:   -1.90 KCAL/MOL
REMARK 922        TOTAL FREE ENERGY PREDICTED BY IDOCK:   -2.29 KCAL/MOL
REMARK 923 INTER-LIGAND FREE ENERGY PREDICTED BY IDOCK:   -2.06 KCAL/MOL
REMARK 924 INTRA-LIGAND FREE ENERGY PREDICTED BY IDOCK:   -0.23 KCAL/MOL
REMARK 927      BINDING AFFINITY PREDICTED BY RF-SCORE:    0.00 PKD
ROOT
ATOM      1  CE  MET A   1      -6.738  10.815  69.017  1.00  0.00    -0.070 C  
ATOM      2  SD  MET A   1      -7.394  11.603  67.527  1.00  0.00    -0.129 SA 
ENDROOT
BRANCH   2   3
ATOM      3  CG  MET A   1      -9.152  11.691  67.999  1.00  0.00    -0.177 C  
BRANCH   3   4
ATOM      4  CB  MET A   1      -9.434  10.692  69.121  1.00  0.00    -0.185 C  
BRANCH   4   5
ATOM      5  CA  MET A   1     -10.464   9.624  68.731  1.00  0.00    -0.215 C  
ATOM      6  C   MET A   1      -9.818   8.536  67.848  1.00  0.00    -0.170 C  
ATOM      7  N   MET A   1     -11.631  10.183  67.985  1.00  0.00    -0.667 NA 
ATOM      8  O   MET A   1     -10.703   8.079  66.920  1.00  0.00    -0.322 OA 
ATOM      9  OXT MET A   1      -8.685   8.099  67.963  1.00  0.00    -0.128 OA 
ATOM     10  H1  MET A   1     -12.316   9.473  67.725  1.00  0.00     0.000 HD 
ATOM     11  H2  MET A   1     -11.323  10.707  67.166  1.00  0.00     0.000 HD 
ENDBRANCH   4   5
ENDBRANCH   3   4
ENDBRANCH   2   3
TORSDOF 3
ENDMDL
MODEL      203
REMARK 921   NORMALIZED FREE ENERGY PREDICTED BY IDOCK:   -1.89 KCAL/MOL
REMARK 922        TOTAL FREE ENERGY PREDICTED BY IDOCK:   -2.28 KCAL/MOL
REMARK 923 INTER-LIGAND FREE ENERGY PREDICTED BY IDOCK:   -2.23 KCAL/MOL
REMARK 924 INTRA-LIGAND FREE ENERGY PREDICTED BY IDOCK:   -0.05 KCAL/MOL
REMARK 927      BINDING AFFINITY PREDICTED BY RF-SCORE:    0.00 PKD
ROOT
ATOM      1  CE  MET A   1      -9.476   9.053  67.652  1.00  0.00    -0.140 C  
ATOM      2  SD  MET A   1      -9.990  10.666  68.290  1.00  0.00    -0.164 SA 
ENDROOT
BRANCH   2   3
ATOM      3  CG  MET A   1     -10.207  11.544  66.709  1.00  0.00    -0.219 C  
BRANCH   3   4
ATOM      4  CB  MET A   1      -9.518  12.907  66.778  1.00  0.00    -0.245 C  
BRANCH   4   5
ATOM      5  CA  MET A   1     -10.162  13.953  65.860  1.00  0.00    -0.315 C  
ATOM      6  C   MET A   1      -9.755  15.380  66.283  1.00  0.00    -0.299 C  
ATOM      7  N   MET A   1     -11.654  13.888  65.856  1.00  0.00    -0.330 NA 
ATOM      8  O   MET A   1     -10.777  16.255  66.079  1.00  0.00    -0.295 OA 
ATOM      9  OXT MET A   1      -8.663  15.716  66.712  1.00  0.00    -0.224 OA 
ATOM     10  H1  MET A   1     -12.083  14.584  65.245  1.00  0.00     0.000 HD 
ATOM     11  H2  MET A   1     -12.024  13.959  66.803  1.00  0.00     0.000 HD 
ENDBRANCH   4   5
ENDBRANCH   3   4
ENDBRANCH   2   3
TORSDOF 3
ENDMDL
MODEL      204
REMARK 921   NORMALIZED FREE ENERGY PREDICTED BY IDOCK:   -1.89 KCAL/MOL
REMARK 922        TOTAL FREE ENERGY PREDICTED BY IDOCK:   -2.28 KCAL/MOL
REMARK 923 INTER-LIGAND FREE ENERGY PREDICTED BY IDOCK:   -2.17 KCAL/MOL
REMARK 924 INTRA-LIGAND FREE ENERGY PREDICTED BY IDOCK:   -0.11 KCAL/MOL
REMARK 927      BINDING AFFINITY PREDICTED BY RF-SCORE:    0.00 PKD
ROOT
ATOM      1  CE  MET A   1      -7.836  14.800  67.774  1.00  0.00    -0.151 C  
ATOM      2  SD  MET A   1      -7.674  16.335  66.831  1.00  0.00    -0.260 SA 
ENDROOT
BRANCH   2   3
ATOM      3  CG  MET A   1      -5.948  16.744  67.244  1.00  0.00    -0.167 C  
BRANCH   3   4
ATOM      4  CB  MET A   1      -5.889  18.122  67.904  1.00  0.00    -0.159 C  
BRANCH   4   5
ATOM      5  CA  MET A   1      -7.071  19.022  67.522  1.00  0.00    -0.209 C  
ATOM      6  C   MET A   1      -6.581  20.296  66.803  1.00  0.00    -0.226 C  
ATOM      7  N   MET A   1      -7.886  19.448  68.698  1.00  0.00    -0.357 NA 
ATOM      8  O   MET A   1      -7.362  21.363  67.125  1.00  0.00    -0.466 OA 
ATOM      9  OXT MET A   1      -5.646  20.364  66.022  1.00  0.00    -0.172 OA 
ATOM     10  H1  MET A   1      -8.672  20.046  68.444  1.00  0.00     0.000 HD 
ATOM     11  H2  MET A   1      -7.301  19.895  69.403  1.00  0.00     0.000 HD 
ENDBRANCH   4   5
ENDBRANCH   3   4
ENDBRANCH   2   3
TORSDOF 3
ENDMDL
MODEL      205
REMARK 921   NORMALIZED FREE ENERGY PREDICTED BY IDOCK:   -1.88 KCAL/MOL
REMARK 922        TOTAL FREE ENERGY PREDICTED BY IDOCK:   -2.28 KCAL/MOL
REMARK 923 INTER-LIGAND FREE ENERGY PREDICTED BY IDOCK:   -2.29 KCAL/MOL
REMARK 924 INTRA-LIGAND FREE ENERGY PREDICTED BY IDOCK:    0.01 KCAL/MOL
REMARK 927      BINDING AFFINITY PREDICTED BY RF-SCORE:    0.00 PKD
ROOT
ATOM      1  CE  MET A   1     -12.145  11.321  70.359  1.00  0.00    -0.384 C  
ATOM      2  SD  MET A   1     -11.048  10.613  69.106  1.00  0.00    -0.275 SA 
ENDROOT
BRANCH   2   3
ATOM      3  CG  MET A   1     -11.577  11.603  67.671  1.00  0.00    -0.279 C  
BRANCH   3   4
ATOM      4  CB  MET A   1     -10.456  11.643  66.632  1.00  0.00    -0.268 C  
BRANCH   4   5
ATOM      5  CA  MET A   1      -9.093  12.012  67.232  1.00  0.00    -0.178 C  
ATOM      6  C   MET A   1      -8.963  13.541  67.397  1.00  0.00    -0.219 C  
ATOM      7  N   MET A   1      -7.943  11.544  66.404  1.00  0.00    -0.340 NA 
ATOM      8  O   MET A   1      -7.681  13.943  67.176  1.00  0.00    -0.127 OA 
ATOM      9  OXT MET A   1      -9.857  14.307  67.715  1.00  0.00    -0.217 OA 
ATOM     10  H1  MET A   1      -7.037  11.789  66.803  1.00  0.00     0.000 HD 
ATOM     11  H2  MET A   1      -8.022  11.883  65.446  1.00  0.00     0.000 HD 
ENDBRANCH   4   5
ENDBRANCH   3   4
ENDBRANCH   2   3
TORSDOF 3
ENDMDL
MODEL      206
REMARK 921   NORMALIZED FREE ENERGY PREDICTED BY IDOCK:   -1.88 KCAL/MOL
REMARK 922        TOTAL FREE ENERGY PREDICTED BY IDOCK:   -2.26 KCAL/MOL
REMARK 923 INTER-LIGAND FREE ENERGY PREDICTED BY IDOCK:   -2.20 KCAL/MOL
REMARK 924 INTRA-LIGAND FREE ENERGY PREDICTED BY IDOCK:   -0.07 KCAL/MOL
REMARK 927      BINDING AFFINITY PREDICTED BY RF-SCORE:    0.00 PKD
ROOT
ATOM      1  CE  MET A   1      -8.676   8.902  69.074  1.00  0.00    -0.136 C  
ATOM      2  SD  MET A   1     -10.062   9.448  70.099  1.00  0.00    -0.251 SA 
ENDROOT
BRANCH   2   3
ATOM      3  CG  MET A   1      -9.418   8.963  71.733  1.00  0.00    -0.264 C  
BRANCH   3   4
ATOM      4  CB  MET A   1     -10.509   8.240  72.523  1.00  0.00    -0.406 C  
BRANCH   4   5
ATOM      5  CA  MET A   1     -10.479   6.718  72.334  1.00  0.00    -0.204 C  
ATOM      6  C   MET A   1     -11.904   6.129  72.389  1.00  0.00    -0.238 C  
ATOM      7  N   MET A   1      -9.657   6.017  73.365  1.00  0.00    -0.143 NA 
ATOM      8  O   MET A   1     -11.897   4.900  72.973  1.00  0.00    -0.251 OA 
ATOM      9  OXT MET A   1     -12.914   6.654  71.948  1.00  0.00    -0.306 OA 
ATOM     10  H1  MET A   1      -9.636   5.005  73.239  1.00  0.00     0.000 HD 
ATOM     11  H2  MET A   1      -9.967   6.261  74.305  1.00  0.00     0.000 HD 
ENDBRANCH   4   5
ENDBRANCH   3   4
ENDBRANCH   2   3
TORSDOF 3
ENDMDL
MODEL      207
REMARK 921   NORMALIZED FREE ENERGY PREDICTED BY IDOCK:   -1.87 KCAL/MOL
REMARK 922        TOTAL FREE ENERGY PREDICTED BY IDOCK:   -2.26 KCAL/MOL
REMARK 923 INTER-LIGAND FREE ENERGY PREDICTED BY IDOCK:   -2.15 KCAL/MOL
REMARK 924 INTRA-LIGAND FREE ENERGY PREDICTED BY IDOCK:   -0.11 KCAL/MOL
REMARK 927      BINDING AFFINITY PREDICTED BY RF-SCORE:    0.00 PKD
ROOT
ATOM      1  CE  MET A   1      -8.516   5.938  71.235  1.00  0.00    -0.128 C  
ATOM      2  SD  MET A   1     -10.043   4.970  71.168  1.00  0.00    -0.215 SA 
ENDROOT
BRANCH   2   3
ATOM      3  CG  MET A   1     -11.225   6.321  70.860  1.00  0.00    -0.324 C  
BRANCH   3   4
ATOM      4  CB  MET A   1     -10.676   7.249  69.776  1.00  0.00    -0.253 C  
BRANCH   4   5
ATOM      5  CA  MET A   1     -10.984   8.728  70.039  1.00  0.00    -0.209 C  
ATOM      6  C   MET A   1     -10.610   9.592  68.816  1.00  0.00    -0.216 C  
ATOM      7  N   MET A   1     -10.256   9.276  71.222  1.00  0.00    -0.319 NA 
ATOM      8  O   MET A   1     -10.145  10.809  69.209  1.00  0.00    -0.218 OA 
ATOM      9  OXT MET A   1     -10.735   9.271  67.646  1.00  0.00    -0.269 OA 
ATOM     10  H1  MET A   1     -10.461  10.260  71.398  1.00  0.00     0.000 HD 
ATOM     11  H2  MET A   1      -9.252   9.123  71.135  1.00  0.00     0.000 HD 
ENDBRANCH   4   5
ENDBRANCH   3   4
ENDBRANCH   2   3
TORSDOF 3
ENDMDL
MODEL      208
REMARK 921   NORMALIZED FREE ENERGY PREDICTED BY IDOCK:   -1.85 KCAL/MOL
REMARK 922        TOTAL FREE ENERGY PREDICTED BY IDOCK:   -2.24 KCAL/MOL
REMARK 923 INTER-LIGAND FREE ENERGY PREDICTED BY IDOCK:   -2.18 KCAL/MOL
REMARK 924 INTRA-LIGAND FREE ENERGY PREDICTED BY IDOCK:   -0.06 KCAL/MOL
REMARK 927      BINDING AFFINITY PREDICTED BY RF-SCORE:    0.00 PKD
ROOT
ATOM      1  CE  MET A   1      -5.668  18.171  65.562  1.00  0.00    -0.176 C  
ATOM      2  SD  MET A   1      -6.053  17.084  66.955  1.00  0.00    -0.207 SA 
ENDROOT
BRANCH   2   3
ATOM      3  CG  MET A   1      -7.782  16.688  66.540  1.00  0.00    -0.302 C  
BRANCH   3   4
ATOM      4  CB  MET A   1      -8.064  15.219  66.855  1.00  0.00    -0.224 C  
BRANCH   4   5
ATOM      5  CA  MET A   1      -9.012  15.031  68.046  1.00  0.00    -0.173 C  
ATOM      6  C   MET A   1     -10.401  15.632  67.743  1.00  0.00    -0.266 C  
ATOM      7  N   MET A   1      -8.507  15.663  69.301  1.00  0.00    -0.254 NA 
ATOM      8  O   MET A   1     -10.952  16.166  68.867  1.00  0.00    -0.282 OA 
ATOM      9  OXT MET A   1     -10.968  15.616  66.663  1.00  0.00    -0.299 OA 
ATOM     10  H1  MET A   1      -9.138  15.538  70.094  1.00  0.00     0.000 HD 
ATOM     11  H2  MET A   1      -8.300  16.651  69.154  1.00  0.00     0.000 HD 
ENDBRANCH   4   5
ENDBRANCH   3   4
ENDBRANCH   2   3
TORSDOF 3
ENDMDL
MODEL      209
REMARK 921   NORMALIZED FREE ENERGY PREDICTED BY IDOCK:   -1.85 KCAL/MOL
REMARK 922        TOTAL FREE ENERGY PREDICTED BY IDOCK:   -2.23 KCAL/MOL
REMARK 923 INTER-LIGAND FREE ENERGY PREDICTED BY IDOCK:   -2.08 KCAL/MOL
REMARK 924 INTRA-LIGAND FREE ENERGY PREDICTED BY IDOCK:   -0.15 KCAL/MOL
REMARK 927      BINDING AFFINITY PREDICTED BY RF-SCORE:    0.00 PKD
ROOT
ATOM      1  CE  MET A   1      -8.499   4.630  74.443  1.00  0.00    -0.104 C  
ATOM      2  SD  MET A   1      -8.679   4.911  72.665  1.00  0.00    -0.118 SA 
ENDROOT
BRANCH   2   3
ATOM      3  CG  MET A   1      -8.425   6.715  72.634  1.00  0.00    -0.123 C  
BRANCH   3   4
ATOM      4  CB  MET A   1      -9.587   7.411  73.343  1.00  0.00    -0.298 C  
BRANCH   4   5
ATOM      5  CA  MET A   1     -10.367   8.362  72.426  1.00  0.00    -0.329 C  
ATOM      6  C   MET A   1     -11.315   7.575  71.496  1.00  0.00    -0.255 C  
ATOM      7  N   MET A   1      -9.482   9.204  71.568  1.00  0.00    -0.294 NA 
ATOM      8  O   MET A   1     -11.408   8.178  70.280  1.00  0.00    -0.236 OA 
ATOM      9  OXT MET A   1     -11.935   6.567  71.792  1.00  0.00    -0.326 OA 
ATOM     10  H1  MET A   1     -10.001   9.837  70.958  1.00  0.00     0.000 HD 
ATOM     11  H2  MET A   1      -8.840   8.624  71.028  1.00  0.00     0.000 HD 
ENDBRANCH   4   5
ENDBRANCH   3   4
ENDBRANCH   2   3
TORSDOF 3
ENDMDL
MODEL      210
REMARK 921   NORMALIZED FREE ENERGY PREDICTED BY IDOCK:   -1.84 KCAL/MOL
REMARK 922        TOTAL FREE ENERGY PREDICTED BY IDOCK:   -2.23 KCAL/MOL
REMARK 923 INTER-LIGAND FREE ENERGY PREDICTED BY IDOCK:   -2.16 KCAL/MOL
REMARK 924 INTRA-LIGAND FREE ENERGY PREDICTED BY IDOCK:   -0.07 KCAL/MOL
REMARK 927      BINDING AFFINITY PREDICTED BY RF-SCORE:    0.00 PKD
ROOT
ATOM      1  CE  MET A   1      -6.659   9.290  68.001  1.00  0.00    -0.060 C  
ATOM      2  SD  MET A   1      -7.920   8.146  68.611  1.00  0.00    -0.117 SA 
ENDROOT
BRANCH   2   3
ATOM      3  CG  MET A   1      -8.209   8.885  70.251  1.00  0.00    -0.129 C  
BRANCH   3   4
ATOM      4  CB  MET A   1      -9.618   9.475  70.308  1.00  0.00    -0.314 C  
BRANCH   4   5
ATOM      5  CA  MET A   1     -10.671   8.470  70.793  1.00  0.00    -0.217 C  
ATOM      6  C   MET A   1     -11.734   9.167  71.667  1.00  0.00    -0.378 C  
ATOM      7  N   MET A   1     -10.088   7.351  71.591  1.00  0.00    -0.184 NA 
ATOM      8  O   MET A   1     -12.160   8.340  72.661  1.00  0.00    -0.384 OA 
ATOM      9  OXT MET A   1     -12.177  10.291  71.497  1.00  0.00    -0.374 OA 
ATOM     10  H1  MET A   1     -10.787   6.682  71.913  1.00  0.00     0.000 HD 
ATOM     11  H2  MET A   1      -9.539   7.708  72.373  1.00  0.00     0.000 HD 
ENDBRANCH   4   5
ENDBRANCH   3   4
ENDBRANCH   2   3
TORSDOF 3
ENDMDL
MODEL      211
REMARK 921   NORMALIZED FREE ENERGY PREDICTED BY IDOCK:   -1.83 KCAL/MOL
REMARK 922        TOTAL FREE ENERGY PREDICTED BY IDOCK:   -2.21 KCAL/MOL
REMARK 923 INTER-LIGAND FREE ENERGY PREDICTED BY IDOCK:   -2.14 KCAL/MOL
REMARK 924 INTRA-LIGAND FREE ENERGY PREDICTED BY IDOCK:   -0.07 KCAL/MOL
REMARK 927      BINDING AFFINITY PREDICTED BY RF-SCORE:    0.00 PKD
ROOT
ATOM      1  CE  MET A   1      -7.314   7.913  68.937  1.00  0.00    -0.085 C  
ATOM      2  SD  MET A   1      -9.051   8.057  68.452  1.00  0.00    -0.134 SA 
ENDROOT
BRANCH   2   3
ATOM      3  CG  MET A   1      -9.074   9.818  67.986  1.00  0.00    -0.125 C  
BRANCH   3   4
ATOM      4  CB  MET A   1     -10.364  10.134  67.230  1.00  0.00    -0.291 C  
BRANCH   4   5
ATOM      5  CA  MET A   1     -10.476  11.609  66.823  1.00  0.00    -0.230 C  
ATOM      6  C   MET A   1     -11.452  12.361  67.753  1.00  0.00    -0.324 C  
ATOM      7  N   MET A   1     -10.950  11.795  65.420  1.00  0.00    -0.305 NA 
ATOM      8  O   MET A   1     -12.139  13.313  67.063  1.00  0.00    -0.375 OA 
ATOM      9  OXT MET A   1     -11.588  12.175  68.951  1.00  0.00    -0.274 OA 
ATOM     10  H1  MET A   1     -11.025  12.776  65.149  1.00  0.00     0.000 HD 
ATOM     11  H2  MET A   1     -11.832  11.307  65.266  1.00  0.00     0.000 HD 
ENDBRANCH   4   5
ENDBRANCH   3   4
ENDBRANCH   2   3
TORSDOF 3
ENDMDL
MODEL      212
REMARK 921   NORMALIZED FREE ENERGY PREDICTED BY IDOCK:   -1.82 KCAL/MOL
REMARK 922        TOTAL FREE ENERGY PREDICTED BY IDOCK:   -2.20 KCAL/MOL
REMARK 923 INTER-LIGAND FREE ENERGY PREDICTED BY IDOCK:   -2.19 KCAL/MOL
REMARK 924 INTRA-LIGAND FREE ENERGY PREDICTED BY IDOCK:   -0.01 KCAL/MOL
REMARK 927      BINDING AFFINITY PREDICTED BY RF-SCORE:    0.00 PKD
ROOT
ATOM      1  CE  MET A   1      -7.809   4.809  70.471  1.00  0.00    -0.062 C  
ATOM      2  SD  MET A   1      -9.383   4.779  69.580  1.00  0.00    -0.149 SA 
ENDROOT
BRANCH   2   3
ATOM      3  CG  MET A   1     -10.500   5.197  70.957  1.00  0.00    -0.171 C  
BRANCH   3   4
ATOM      4  CB  MET A   1     -11.330   6.428  70.591  1.00  0.00    -0.419 C  
BRANCH   4   5
ATOM      5  CA  MET A   1     -10.629   7.347  69.582  1.00  0.00    -0.236 C  
ATOM      6  C   MET A   1     -10.628   8.808  70.079  1.00  0.00    -0.223 C  
ATOM      7  N   MET A   1     -11.266   7.326  68.232  1.00  0.00    -0.439 NA 
ATOM      8  O   MET A   1     -10.751   9.673  69.036  1.00  0.00    -0.217 OA 
ATOM      9  OXT MET A   1     -10.501   9.171  71.237  1.00  0.00    -0.274 OA 
ATOM     10  H1  MET A   1     -10.800   7.937  67.561  1.00  0.00     0.000 HD 
ATOM     11  H2  MET A   1     -12.260   7.546  68.295  1.00  0.00     0.000 HD 
ENDBRANCH   4   5
ENDBRANCH   3   4
ENDBRANCH   2   3
TORSDOF 3
ENDMDL
MODEL      213
REMARK 921   NORMALIZED FREE ENERGY PREDICTED BY IDOCK:   -1.82 KCAL/MOL
REMARK 922        TOTAL FREE ENERGY PREDICTED BY IDOCK:   -2.19 KCAL/MOL
REMARK 923 INTER-LIGAND FREE ENERGY PREDICTED BY IDOCK:   -2.23 KCAL/MOL
REMARK 924 INTRA-LIGAND FREE ENERGY PREDICTED BY IDOCK:    0.03 KCAL/MOL
REMARK 927      BINDING AFFINITY PREDICTED BY RF-SCORE:    0.00 PKD
ROOT
ATOM      1  CE  MET A   1      -8.939   7.654  68.624  1.00  0.00    -0.133 C  
ATOM      2  SD  MET A   1      -7.996   7.630  67.081  1.00  0.00    -0.119 SA 
ENDROOT
BRANCH   2   3
ATOM      3  CG  MET A   1      -9.210   6.785  66.017  1.00  0.00    -0.030 C  
BRANCH   3   4
ATOM      4  CB  MET A   1     -10.306   6.161  66.880  1.00  0.00    -0.307 C  
BRANCH   4   5
ATOM      5  CA  MET A   1     -10.655   4.726  66.464  1.00  0.00    -0.104 C  
ATOM      6  C   MET A   1      -9.377   3.877  66.296  1.00  0.00    -0.179 C  
ATOM      7  N   MET A   1     -11.419   4.658  65.184  1.00  0.00    -1.107 NA 
ATOM      8  O   MET A   1      -9.525   2.979  65.285  1.00  0.00    -0.149 OA 
ATOM      9  OXT MET A   1      -8.371   3.953  66.981  1.00  0.00    -0.099 OA 
ATOM     10  H1  MET A   1     -11.651   3.704  64.907  1.00  0.00     0.000 HD 
ATOM     11  H2  MET A   1     -10.921   5.143  64.437  1.00  0.00     0.000 HD 
ENDBRANCH   4   5
ENDBRANCH   3   4
ENDBRANCH   2   3
TORSDOF 3
ENDMDL
MODEL      214
REMARK 921   NORMALIZED FREE ENERGY PREDICTED BY IDOCK:   -1.81 KCAL/MOL
REMARK 922        TOTAL FREE ENERGY PREDICTED BY IDOCK:   -2.18 KCAL/MOL
REMARK 923 INTER-LIGAND FREE ENERGY PREDICTED BY IDOCK:   -1.99 KCAL/MOL
REMARK 924 INTRA-LIGAND FREE ENERGY PREDICTED BY IDOCK:   -0.19 KCAL/MOL
REMARK 927      BINDING AFFINITY PREDICTED BY RF-SCORE:    0.00 PKD
ROOT
ATOM      1  CE  MET A   1     -11.389   9.343  71.040  1.00  0.00    -0.337 C  
ATOM      2  SD  MET A   1     -10.913  10.017  69.431  1.00  0.00    -0.236 SA 
ENDROOT
BRANCH   2   3
ATOM      3  CG  MET A   1      -9.128   9.656  69.485  1.00  0.00    -0.199 C  
BRANCH   3   4
ATOM      4  CB  MET A   1      -8.864   8.273  68.889  1.00  0.00    -0.140 C  
BRANCH   4   5
ATOM      5  CA  MET A   1     -10.039   7.744  68.056  1.00  0.00    -0.186 C  
ATOM      6  C   MET A   1     -10.471   6.344  68.543  1.00  0.00    -0.224 C  
ATOM      7  N   MET A   1      -9.724   7.642  66.600  1.00  0.00    -0.256 NA 
ATOM      8  O   MET A   1     -10.882   5.576  67.499  1.00  0.00    -0.192 OA 
ATOM      9  OXT MET A   1     -10.485   5.962  69.701  1.00  0.00    -0.221 OA 
ATOM     10  H1  MET A   1     -10.504   7.290  66.046  1.00  0.00     0.000 HD 
ATOM     11  H2  MET A   1      -8.886   7.080  66.447  1.00  0.00     0.000 HD 
ENDBRANCH   4   5
ENDBRANCH   3   4
ENDBRANCH   2   3
TORSDOF 3
ENDMDL
MODEL      215
REMARK 921   NORMALIZED FREE ENERGY PREDICTED BY IDOCK:   -1.81 KCAL/MOL
REMARK 922        TOTAL FREE ENERGY PREDICTED BY IDOCK:   -2.18 KCAL/MOL
REMARK 923 INTER-LIGAND FREE ENERGY PREDICTED BY IDOCK:   -1.96 KCAL/MOL
REMARK 924 INTRA-LIGAND FREE ENERGY PREDICTED BY IDOCK:   -0.22 KCAL/MOL
REMARK 927      BINDING AFFINITY PREDICTED BY RF-SCORE:    0.00 PKD
ROOT
ATOM      1  CE  MET A   1     -10.866  15.371  67.451  1.00  0.00    -0.309 C  
ATOM      2  SD  MET A   1     -10.546  14.410  65.952  1.00  0.00    -0.322 SA 
ENDROOT
BRANCH   2   3
ATOM      3  CG  MET A   1      -9.934  12.876  66.722  1.00  0.00    -0.243 C  
BRANCH   3   4
ATOM      4  CB  MET A   1      -9.407  13.178  68.125  1.00  0.00    -0.217 C  
BRANCH   4   5
ATOM      5  CA  MET A   1      -7.915  12.860  68.288  1.00  0.00    -0.151 C  
ATOM      6  C   MET A   1      -7.048  14.065  67.865  1.00  0.00    -0.160 C  
ATOM      7  N   MET A   1      -7.477  11.680  67.485  1.00  0.00    -0.115 NA 
ATOM      8  O   MET A   1      -5.893  13.647  67.280  1.00  0.00    -0.336 OA 
ATOM      9  OXT MET A   1      -7.318  15.240  68.048  1.00  0.00    -0.108 OA 
ATOM     10  H1  MET A   1      -6.485  11.469  67.593  1.00  0.00     0.000 HD 
ATOM     11  H2  MET A   1      -7.718  11.799  66.501  1.00  0.00     0.000 HD 
ENDBRANCH   4   5
ENDBRANCH   3   4
ENDBRANCH   2   3
TORSDOF 3
ENDMDL
MODEL      216
REMARK 921   NORMALIZED FREE ENERGY PREDICTED BY IDOCK:   -1.78 KCAL/MOL
REMARK 922        TOTAL FREE ENERGY PREDICTED BY IDOCK:   -2.15 KCAL/MOL
REMARK 923 INTER-LIGAND FREE ENERGY PREDICTED BY IDOCK:   -2.01 KCAL/MOL
REMARK 924 INTRA-LIGAND FREE ENERGY PREDICTED BY IDOCK:   -0.14 KCAL/MOL
REMARK 927      BINDING AFFINITY PREDICTED BY RF-SCORE:    0.00 PKD
ROOT
ATOM      1  CE  MET A   1      -8.062   7.121  71.298  1.00  0.00    -0.107 C  
ATOM      2  SD  MET A   1      -9.357   6.023  70.672  1.00  0.00    -0.161 SA 
ENDROOT
BRANCH   2   3
ATOM      3  CG  MET A   1     -10.195   7.183  69.543  1.00  0.00    -0.195 C  
BRANCH   3   4
ATOM      4  CB  MET A   1     -11.216   6.427  68.694  1.00  0.00    -0.338 C  
BRANCH   4   5
ATOM      5  CA  MET A   1     -11.004   6.619  67.187  1.00  0.00    -0.408 C  
ATOM      6  C   MET A   1      -9.838   5.745  66.680  1.00  0.00    -0.165 C  
ATOM      7  N   MET A   1     -10.708   8.034  66.814  1.00  0.00    -0.401 NA 
ATOM      8  O   MET A   1      -9.155   6.379  65.688  1.00  0.00    -0.077 OA 
ATOM      9  OXT MET A   1      -9.562   4.623  67.070  1.00  0.00    -0.154 OA 
ATOM     10  H1  MET A   1     -10.567   8.163  65.812  1.00  0.00     0.000 HD 
ATOM     11  H2  MET A   1      -9.911   8.391  67.342  1.00  0.00     0.000 HD 
ENDBRANCH   4   5
ENDBRANCH   3   4
ENDBRANCH   2   3
TORSDOF 3
ENDMDL
MODEL      217
REMARK 921   NORMALIZED FREE ENERGY PREDICTED BY IDOCK:   -1.77 KCAL/MOL
REMARK 922        TOTAL FREE ENERGY PREDICTED BY IDOCK:   -2.14 KCAL/MOL
REMARK 923 INTER-LIGAND FREE ENERGY PREDICTED BY IDOCK:   -2.00 KCAL/MOL
REMARK 924 INTRA-LIGAND FREE ENERGY PREDICTED BY IDOCK:   -0.14 KCAL/MOL
REMARK 927      BINDING AFFINITY PREDICTED BY RF-SCORE:    0.00 PKD
ROOT
ATOM      1  CE  MET A   1     -10.979  10.126  69.971  1.00  0.00    -0.307 C  
ATOM      2  SD  MET A   1      -9.950   9.242  68.773  1.00  0.00    -0.187 SA 
ENDROOT
BRANCH   2   3
ATOM      3  CG  MET A   1     -10.637   9.939  67.237  1.00  0.00    -0.252 C  
BRANCH   3   4
ATOM      4  CB  MET A   1      -9.872   9.387  66.034  1.00  0.00    -0.366 C  
BRANCH   4   5
ATOM      5  CA  MET A   1      -8.835  10.371  65.478  1.00  0.00    -0.176 C  
ATOM      6  C   MET A   1      -7.431  10.066  66.042  1.00  0.00    -0.112 C  
ATOM      7  N   MET A   1      -9.153  11.795  65.792  1.00  0.00    -0.394 NA 
ATOM      8  O   MET A   1      -6.725  11.215  66.225  1.00  0.00    -0.127 OA 
ATOM      9  OXT MET A   1      -6.976   8.958  66.271  1.00  0.00    -0.077 OA 
ATOM     10  H1  MET A   1      -8.463  12.450  65.422  1.00  0.00     0.000 HD 
ATOM     11  H2  MET A   1      -9.278  11.928  66.795  1.00  0.00     0.000 HD 
ENDBRANCH   4   5
ENDBRANCH   3   4
ENDBRANCH   2   3
TORSDOF 3
ENDMDL
MODEL      218
REMARK 921   NORMALIZED FREE ENERGY PREDICTED BY IDOCK:   -1.77 KCAL/MOL
REMARK 922        TOTAL FREE ENERGY PREDICTED BY IDOCK:   -2.14 KCAL/MOL
REMARK 923 INTER-LIGAND FREE ENERGY PREDICTED BY IDOCK:   -2.33 KCAL/MOL
REMARK 924 INTRA-LIGAND FREE ENERGY PREDICTED BY IDOCK:    0.19 KCAL/MOL
REMARK 927      BINDING AFFINITY PREDICTED BY RF-SCORE:    0.00 PKD
ROOT
ATOM      1  CE  MET A   1      -5.164  18.807  64.953  1.00  0.00    -0.187 C  
ATOM      2  SD  MET A   1      -5.251  17.719  66.396  1.00  0.00    -0.190 SA 
ENDROOT
BRANCH   2   3
ATOM      3  CG  MET A   1      -7.058  17.505  66.484  1.00  0.00    -0.254 C  
BRANCH   3   4
ATOM      4  CB  MET A   1      -7.516  17.584  67.941  1.00  0.00    -0.206 C  
BRANCH   4   5
ATOM      5  CA  MET A   1      -7.934  18.998  68.364  1.00  0.00    -0.340 C  
ATOM      6  C   MET A   1      -8.898  19.617  67.329  1.00  0.00    -0.318 C  
ATOM      7  N   MET A   1      -6.777  19.928  68.522  1.00  0.00    -0.293 NA 
ATOM      8  O   MET A   1      -8.690  20.958  67.218  1.00  0.00    -0.240 OA 
ATOM      9  OXT MET A   1      -9.760  19.021  66.707  1.00  0.00    -0.302 OA 
ATOM     10  H1  MET A   1      -7.055  20.868  68.803  1.00  0.00     0.000 HD 
ATOM     11  H2  MET A   1      -6.213  19.954  67.673  1.00  0.00     0.000 HD 
ENDBRANCH   4   5
ENDBRANCH   3   4
ENDBRANCH   2   3
TORSDOF 3
ENDMDL
MODEL      219
REMARK 921   NORMALIZED FREE ENERGY PREDICTED BY IDOCK:   -1.77 KCAL/MOL
REMARK 922        TOTAL FREE ENERGY PREDICTED BY IDOCK:   -2.14 KCAL/MOL
REMARK 923 INTER-LIGAND FREE ENERGY PREDICTED BY IDOCK:   -2.09 KCAL/MOL
REMARK 924 INTRA-LIGAND FREE ENERGY PREDICTED BY IDOCK:   -0.05 KCAL/MOL
REMARK 927      BINDING AFFINITY PREDICTED BY RF-SCORE:    0.00 PKD
ROOT
ATOM      1  CE  MET A   1      -9.518   4.413  68.610  1.00  0.00    -0.155 C  
ATOM      2  SD  MET A   1     -10.021   4.913  70.274  1.00  0.00    -0.252 SA 
ENDROOT
BRANCH   2   3
ATOM      3  CG  MET A   1     -10.925   6.438  69.854  1.00  0.00    -0.348 C  
BRANCH   3   4
ATOM      4  CB  MET A   1      -9.932   7.566  69.576  1.00  0.00    -0.180 C  
BRANCH   4   5
ATOM      5  CA  MET A   1     -10.517   8.679  68.697  1.00  0.00    -0.177 C  
ATOM      6  C   MET A   1     -10.313   8.361  67.201  1.00  0.00    -0.311 C  
ATOM      7  N   MET A   1      -9.910  10.016  68.966  1.00  0.00    -0.188 NA 
ATOM      8  O   MET A   1     -10.089   9.501  66.492  1.00  0.00    -0.239 OA 
ATOM      9  OXT MET A   1     -10.372   7.256  66.689  1.00  0.00    -0.239 OA 
ATOM     10  H1  MET A   1     -10.299  10.757  68.382  1.00  0.00     0.000 HD 
ATOM     11  H2  MET A   1      -8.894   9.979  68.878  1.00  0.00     0.000 HD 
ENDBRANCH   4   5
ENDBRANCH   3   4
ENDBRANCH   2   3
TORSDOF 3
ENDMDL
MODEL      220
REMARK 921   NORMALIZED FREE ENERGY PREDICTED BY IDOCK:   -1.77 KCAL/MOL
REMARK 922        TOTAL FREE ENERGY PREDICTED BY IDOCK:   -2.14 KCAL/MOL
REMARK 923 INTER-LIGAND FREE ENERGY PREDICTED BY IDOCK:   -2.01 KCAL/MOL
REMARK 924 INTRA-LIGAND FREE ENERGY PREDICTED BY IDOCK:   -0.12 KCAL/MOL
REMARK 927      BINDING AFFINITY PREDICTED BY RF-SCORE:    0.00 PKD
ROOT
ATOM      1  CE  MET A   1      -6.221  14.423  70.177  1.00  0.00    -0.166 C  
ATOM      2  SD  MET A   1      -5.822  13.290  68.825  1.00  0.00    -0.080 SA 
ENDROOT
BRANCH   2   3
ATOM      3  CG  MET A   1      -7.482  13.119  68.095  1.00  0.00    -0.131 C  
BRANCH   3   4
ATOM      4  CB  MET A   1      -8.278  14.405  68.318  1.00  0.00    -0.149 C  
BRANCH   4   5
ATOM      5  CA  MET A   1      -9.725  14.148  68.756  1.00  0.00    -0.148 C  
ATOM      6  C   MET A   1     -10.698  14.340  67.573  1.00  0.00    -0.270 C  
ATOM      7  N   MET A   1     -10.170  15.047  69.862  1.00  0.00    -0.461 NA 
ATOM      8  O   MET A   1     -11.879  14.865  68.000  1.00  0.00    -0.333 OA 
ATOM      9  OXT MET A   1     -10.481  14.041  66.411  1.00  0.00    -0.277 OA 
ATOM     10  H1  MET A   1     -11.133  14.876  70.153  1.00  0.00     0.000 HD 
ATOM     11  H2  MET A   1     -10.034  16.027  69.612  1.00  0.00     0.000 HD 
ENDBRANCH   4   5
ENDBRANCH   3   4
ENDBRANCH   2   3
TORSDOF 3
ENDMDL
MODEL      221
REMARK 921   NORMALIZED FREE ENERGY PREDICTED BY IDOCK:   -1.76 KCAL/MOL
REMARK 922        TOTAL FREE ENERGY PREDICTED BY IDOCK:   -2.13 KCAL/MOL
REMARK 923 INTER-LIGAND FREE ENERGY PREDICTED BY IDOCK:   -2.05 KCAL/MOL
REMARK 924 INTRA-LIGAND FREE ENERGY PREDICTED BY IDOCK:   -0.08 KCAL/MOL
REMARK 927      BINDING AFFINITY PREDICTED BY RF-SCORE:    0.00 PKD
ROOT
ATOM      1  CE  MET A   1     -10.256   9.654  70.754  1.00  0.00    -0.260 C  
ATOM      2  SD  MET A   1      -9.499   9.141  69.193  1.00  0.00    -0.159 SA 
ENDROOT
BRANCH   2   3
ATOM      3  CG  MET A   1     -10.710   9.859  68.037  1.00  0.00    -0.248 C  
BRANCH   3   4
ATOM      4  CB  MET A   1     -10.091  11.061  67.324  1.00  0.00    -0.222 C  
BRANCH   4   5
ATOM      5  CA  MET A   1     -10.613  11.245  65.893  1.00  0.00    -0.253 C  
ATOM      6  C   MET A   1      -9.525  10.883  64.861  1.00  0.00    -0.235 C  
ATOM      7  N   MET A   1     -11.064  12.639  65.610  1.00  0.00    -0.284 NA 
ATOM      8  O   MET A   1      -9.613  11.685  63.765  1.00  0.00    -0.244 OA 
ATOM      9  OXT MET A   1      -8.706   9.985  64.968  1.00  0.00    -0.151 OA 
ATOM     10  H1  MET A   1     -11.411  12.762  64.659  1.00  0.00     0.000 HD 
ATOM     11  H2  MET A   1     -10.324  13.310  65.816  1.00  0.00     0.000 HD 
ENDBRANCH   4   5
ENDBRANCH   3   4
ENDBRANCH   2   3
TORSDOF 3
ENDMDL
MODEL      222
REMARK 921   NORMALIZED FREE ENERGY PREDICTED BY IDOCK:   -1.76 KCAL/MOL
REMARK 922        TOTAL FREE ENERGY PREDICTED BY IDOCK:   -2.13 KCAL/MOL
REMARK 923 INTER-LIGAND FREE ENERGY PREDICTED BY IDOCK:   -1.97 KCAL/MOL
REMARK 924 INTRA-LIGAND FREE ENERGY PREDICTED BY IDOCK:   -0.16 KCAL/MOL
REMARK 927      BINDING AFFINITY PREDICTED BY RF-SCORE:    0.00 PKD
ROOT
ATOM      1  CE  MET A   1      -6.202   8.646  68.556  1.00  0.00    -0.053 C  
ATOM      2  SD  MET A   1      -7.492   7.796  69.497  1.00  0.00    -0.096 SA 
ENDROOT
BRANCH   2   3
ATOM      3  CG  MET A   1      -8.639   9.191  69.735  1.00  0.00    -0.142 C  
BRANCH   3   4
ATOM      4  CB  MET A   1     -10.035   8.799  69.250  1.00  0.00    -0.194 C  
BRANCH   4   5
ATOM      5  CA  MET A   1     -10.067   7.433  68.553  1.00  0.00    -0.175 C  
ATOM      6  C   MET A   1     -10.363   7.592  67.047  1.00  0.00    -0.330 C  
ATOM      7  N   MET A   1     -11.091   6.509  69.123  1.00  0.00    -0.435 NA 
ATOM      8  O   MET A   1     -11.115   6.554  66.590  1.00  0.00    -0.283 OA 
ATOM      9  OXT MET A   1      -9.965   8.495  66.330  1.00  0.00    -0.262 OA 
ATOM     10  H1  MET A   1     -11.113   5.600  68.659  1.00  0.00     0.000 HD 
ATOM     11  H2  MET A   1     -12.015   6.941  69.118  1.00  0.00     0.000 HD 
ENDBRANCH   4   5
ENDBRANCH   3   4
ENDBRANCH   2   3
TORSDOF 3
ENDMDL
MODEL      223
REMARK 921   NORMALIZED FREE ENERGY PREDICTED BY IDOCK:   -1.76 KCAL/MOL
REMARK 922        TOTAL FREE ENERGY PREDICTED BY IDOCK:   -2.13 KCAL/MOL
REMARK 923 INTER-LIGAND FREE ENERGY PREDICTED BY IDOCK:   -2.14 KCAL/MOL
REMARK 924 INTRA-LIGAND FREE ENERGY PREDICTED BY IDOCK:    0.01 KCAL/MOL
REMARK 927      BINDING AFFINITY PREDICTED BY RF-SCORE:    0.00 PKD
ROOT
ATOM      1  CE  MET A   1      -7.598   7.681  66.414  1.00  0.00    -0.088 C  
ATOM      2  SD  MET A   1      -9.296   8.205  66.754  1.00  0.00    -0.197 SA 
ENDROOT
BRANCH   2   3
ATOM      3  CG  MET A   1      -9.446   9.519  65.502  1.00  0.00    -0.268 C  
BRANCH   3   4
ATOM      4  CB  MET A   1      -9.270  10.885  66.166  1.00  0.00    -0.205 C  
BRANCH   4   5
ATOM      5  CA  MET A   1     -10.603  11.556  66.523  1.00  0.00    -0.258 C  
ATOM      6  C   MET A   1     -10.398  13.056  66.826  1.00  0.00    -0.254 C  
ATOM      7  N   MET A   1     -11.269  10.939  67.708  1.00  0.00    -0.327 NA 
ATOM      8  O   MET A   1     -11.249  13.471  67.804  1.00  0.00    -0.262 OA 
ATOM      9  OXT MET A   1      -9.615  13.800  66.261  1.00  0.00    -0.281 OA 
ATOM     10  H1  MET A   1     -12.155  11.385  67.946  1.00  0.00     0.000 HD 
ATOM     11  H2  MET A   1     -10.642  10.925  68.512  1.00  0.00     0.000 HD 
ENDBRANCH   4   5
ENDBRANCH   3   4
ENDBRANCH   2   3
TORSDOF 3
ENDMDL
MODEL      224
REMARK 921   NORMALIZED FREE ENERGY PREDICTED BY IDOCK:   -1.76 KCAL/MOL
REMARK 922        TOTAL FREE ENERGY PREDICTED BY IDOCK:   -2.13 KCAL/MOL
REMARK 923 INTER-LIGAND FREE ENERGY PREDICTED BY IDOCK:   -2.07 KCAL/MOL
REMARK 924 INTRA-LIGAND FREE ENERGY PREDICTED BY IDOCK:   -0.06 KCAL/MOL
REMARK 927      BINDING AFFINITY PREDICTED BY RF-SCORE:    0.00 PKD
ROOT
ATOM      1  CE  MET A   1      -7.641   7.604  68.644  1.00  0.00    -0.109 C  
ATOM      2  SD  MET A   1      -9.097   6.754  69.299  1.00  0.00    -0.138 SA 
ENDROOT
BRANCH   2   3
ATOM      3  CG  MET A   1     -10.389   7.648  68.377  1.00  0.00    -0.194 C  
BRANCH   3   4
ATOM      4  CB  MET A   1      -9.764   8.820  67.620  1.00  0.00    -0.210 C  
BRANCH   4   5
ATOM      5  CA  MET A   1     -10.783   9.611  66.789  1.00  0.00    -0.078 C  
ATOM      6  C   MET A   1     -10.084  10.374  65.645  1.00  0.00    -0.269 C  
ATOM      7  N   MET A   1     -11.551  10.605  67.597  1.00  0.00    -0.616 NA 
ATOM      8  O   MET A   1     -10.699  11.566  65.413  1.00  0.00    -0.280 OA 
ATOM      9  OXT MET A   1      -9.132   9.976  64.995  1.00  0.00    -0.177 OA 
ATOM     10  H1  MET A   1     -12.228  11.131  67.045  1.00  0.00     0.000 HD 
ATOM     11  H2  MET A   1     -10.921  11.234  68.095  1.00  0.00     0.000 HD 
ENDBRANCH   4   5
ENDBRANCH   3   4
ENDBRANCH   2   3
TORSDOF 3
ENDMDL
MODEL      225
REMARK 921   NORMALIZED FREE ENERGY PREDICTED BY IDOCK:   -1.75 KCAL/MOL
REMARK 922        TOTAL FREE ENERGY PREDICTED BY IDOCK:   -2.12 KCAL/MOL
REMARK 923 INTER-LIGAND FREE ENERGY PREDICTED BY IDOCK:   -2.06 KCAL/MOL
REMARK 924 INTRA-LIGAND FREE ENERGY PREDICTED BY IDOCK:   -0.06 KCAL/MOL
REMARK 927      BINDING AFFINITY PREDICTED BY RF-SCORE:    0.00 PKD
ROOT
ATOM      1  CE  MET A   1      -8.841  10.091  64.797  1.00  0.00    -0.195 C  
ATOM      2  SD  MET A   1      -8.315  10.523  66.473  1.00  0.00    -0.146 SA 
ENDROOT
BRANCH   2   3
ATOM      3  CG  MET A   1      -9.797  11.433  67.013  1.00  0.00    -0.191 C  
BRANCH   3   4
ATOM      4  CB  MET A   1      -9.687  12.897  66.586  1.00  0.00    -0.254 C  
BRANCH   4   5
ATOM      5  CA  MET A   1     -10.156  13.876  67.670  1.00  0.00    -0.241 C  
ATOM      6  C   MET A   1      -9.167  15.052  67.813  1.00  0.00    -0.181 C  
ATOM      7  N   MET A   1     -10.301  13.237  69.012  1.00  0.00    -0.432 NA 
ATOM      8  O   MET A   1      -9.082  15.456  69.110  1.00  0.00    -0.210 OA 
ATOM      9  OXT MET A   1      -8.558  15.590  66.904  1.00  0.00    -0.213 OA 
ATOM     10  H1  MET A   1     -10.613  13.888  69.733  1.00  0.00     0.000 HD 
ATOM     11  H2  MET A   1      -9.436  12.774  69.290  1.00  0.00     0.000 HD 
ENDBRANCH   4   5
ENDBRANCH   3   4
ENDBRANCH   2   3
TORSDOF 3
ENDMDL
MODEL      226
REMARK 921   NORMALIZED FREE ENERGY PREDICTED BY IDOCK:   -1.74 KCAL/MOL
REMARK 922        TOTAL FREE ENERGY PREDICTED BY IDOCK:   -2.10 KCAL/MOL
REMARK 923 INTER-LIGAND FREE ENERGY PREDICTED BY IDOCK:   -2.01 KCAL/MOL
REMARK 924 INTRA-LIGAND FREE ENERGY PREDICTED BY IDOCK:   -0.09 KCAL/MOL
REMARK 927      BINDING AFFINITY PREDICTED BY RF-SCORE:    0.00 PKD
ROOT
ATOM      1  CE  MET A   1     -12.342   9.945  71.342  1.00  0.00    -0.404 C  
ATOM      2  SD  MET A   1     -10.842   9.583  70.398  1.00  0.00    -0.305 SA 
ENDROOT
BRANCH   2   3
ATOM      3  CG  MET A   1     -10.291   8.096  71.296  1.00  0.00    -0.199 C  
BRANCH   3   4
ATOM      4  CB  MET A   1      -9.994   8.455  72.752  1.00  0.00    -0.285 C  
BRANCH   4   5
ATOM      5  CA  MET A   1      -9.021   7.479  73.425  1.00  0.00    -0.203 C  
ATOM      6  C   MET A   1      -7.580   7.705  72.920  1.00  0.00    -0.098 C  
ATOM      7  N   MET A   1      -9.368   6.047  73.184  1.00  0.00    -0.139 NA 
ATOM      8  O   MET A   1      -6.903   6.527  72.848  1.00  0.00    -0.071 OA 
ATOM      9  OXT MET A   1      -7.077   8.782  72.647  1.00  0.00    -0.310 OA 
ATOM     10  H1  MET A   1      -8.721   5.397  73.631  1.00  0.00     0.000 HD 
ATOM     11  H2  MET A   1      -9.444   5.854  72.185  1.00  0.00     0.000 HD 
ENDBRANCH   4   5
ENDBRANCH   3   4
ENDBRANCH   2   3
TORSDOF 3
ENDMDL
MODEL      227
REMARK 921   NORMALIZED FREE ENERGY PREDICTED BY IDOCK:   -1.72 KCAL/MOL
REMARK 922        TOTAL FREE ENERGY PREDICTED BY IDOCK:   -2.08 KCAL/MOL
REMARK 923 INTER-LIGAND FREE ENERGY PREDICTED BY IDOCK:   -2.01 KCAL/MOL
REMARK 924 INTRA-LIGAND FREE ENERGY PREDICTED BY IDOCK:   -0.07 KCAL/MOL
REMARK 927      BINDING AFFINITY PREDICTED BY RF-SCORE:    0.00 PKD
ROOT
ATOM      1  CE  MET A   1     -11.426   9.394  70.898  1.00  0.00    -0.316 C  
ATOM      2  SD  MET A   1     -11.258  10.822  69.800  1.00  0.00    -0.303 SA 
ENDROOT
BRANCH   2   3
ATOM      3  CG  MET A   1      -9.568  10.518  69.191  1.00  0.00    -0.199 C  
BRANCH   3   4
ATOM      4  CB  MET A   1      -9.133  11.668  68.283  1.00  0.00    -0.187 C  
BRANCH   4   5
ATOM      5  CA  MET A   1      -7.789  11.412  67.590  1.00  0.00    -0.122 C  
ATOM      6  C   MET A   1      -6.727  12.429  68.057  1.00  0.00    -0.081 C  
ATOM      7  N   MET A   1      -7.873  11.493  66.101  1.00  0.00    -0.378 NA 
ATOM      8  O   MET A   1      -5.881  12.746  67.039  1.00  0.00    -0.324 OA 
ATOM      9  OXT MET A   1      -6.614  12.880  69.185  1.00  0.00    -0.102 OA 
ATOM     10  H1  MET A   1      -6.980  11.322  65.640  1.00  0.00     0.000 HD 
ATOM     11  H2  MET A   1      -8.269  12.386  65.808  1.00  0.00     0.000 HD 
ENDBRANCH   4   5
ENDBRANCH   3   4
ENDBRANCH   2   3
TORSDOF 3
ENDMDL
MODEL      228
REMARK 921   NORMALIZED FREE ENERGY PREDICTED BY IDOCK:   -1.71 KCAL/MOL
REMARK 922        TOTAL FREE ENERGY PREDICTED BY IDOCK:   -2.07 KCAL/MOL
REMARK 923 INTER-LIGAND FREE ENERGY PREDICTED BY IDOCK:   -1.94 KCAL/MOL
REMARK 924 INTRA-LIGAND FREE ENERGY PREDICTED BY IDOCK:   -0.13 KCAL/MOL
REMARK 927      BINDING AFFINITY PREDICTED BY RF-SCORE:    0.00 PKD
ROOT
ATOM      1  CE  MET A   1      -7.201   2.976  65.475  1.00  0.00    -0.070 C  
ATOM      2  SD  MET A   1      -8.845   2.958  66.230  1.00  0.00    -0.149 SA 
ENDROOT
BRANCH   2   3
ATOM      3  CG  MET A   1      -9.616   4.301  65.271  1.00  0.00    -0.185 C  
BRANCH   3   4
ATOM      4  CB  MET A   1     -10.593   5.072  66.158  1.00  0.00    -0.321 C  
BRANCH   4   5
ATOM      5  CA  MET A   1      -9.923   6.208  66.944  1.00  0.00    -0.168 C  
ATOM      6  C   MET A   1     -10.121   6.016  68.462  1.00  0.00    -0.161 C  
ATOM      7  N   MET A   1     -10.448   7.558  66.583  1.00  0.00    -0.511 NA 
ATOM      8  O   MET A   1     -10.259   7.217  69.086  1.00  0.00    -0.185 OA 
ATOM      9  OXT MET A   1     -10.124   4.950  69.055  1.00  0.00    -0.189 OA 
ATOM     10  H1  MET A   1     -10.003   8.313  67.105  1.00  0.00     0.000 HD 
ATOM     11  H2  MET A   1     -11.462   7.593  66.686  1.00  0.00     0.000 HD 
ENDBRANCH   4   5
ENDBRANCH   3   4
ENDBRANCH   2   3
TORSDOF 3
ENDMDL
MODEL      229
REMARK 921   NORMALIZED FREE ENERGY PREDICTED BY IDOCK:   -1.67 KCAL/MOL
REMARK 922        TOTAL FREE ENERGY PREDICTED BY IDOCK:   -2.03 KCAL/MOL
REMARK 923 INTER-LIGAND FREE ENERGY PREDICTED BY IDOCK:   -1.95 KCAL/MOL
REMARK 924 INTRA-LIGAND FREE ENERGY PREDICTED BY IDOCK:   -0.08 KCAL/MOL
REMARK 927      BINDING AFFINITY PREDICTED BY RF-SCORE:    0.00 PKD
ROOT
ATOM      1  CE  MET A   1      -6.541   7.401  67.249  1.00  0.00    -0.061 C  
ATOM      2  SD  MET A   1      -7.181   7.808  65.606  1.00  0.00    -0.069 SA 
ENDROOT
BRANCH   2   3
ATOM      3  CG  MET A   1      -8.803   6.987  65.719  1.00  0.00    -0.064 C  
BRANCH   3   4
ATOM      4  CB  MET A   1      -8.944   6.310  67.082  1.00  0.00    -0.111 C  
BRANCH   4   5
ATOM      5  CA  MET A   1     -10.140   6.829  67.890  1.00  0.00    -0.159 C  
ATOM      6  C   MET A   1     -10.187   6.172  69.286  1.00  0.00    -0.201 C  
ATOM      7  N   MET A   1     -11.452   6.575  67.223  1.00  0.00    -0.743 NA 
ATOM      8  O   MET A   1     -11.473   5.978  69.685  1.00  0.00    -0.394 OA 
ATOM      9  OXT MET A   1      -9.222   5.885  69.975  1.00  0.00    -0.144 OA 
ATOM     10  H1  MET A   1     -12.247   6.920  67.760  1.00  0.00     0.000 HD 
ATOM     11  H2  MET A   1     -11.563   5.585  67.004  1.00  0.00     0.000 HD 
ENDBRANCH   4   5
ENDBRANCH   3   4
ENDBRANCH   2   3
TORSDOF 3
ENDMDL
MODEL      230
REMARK 921   NORMALIZED FREE ENERGY PREDICTED BY IDOCK:   -1.67 KCAL/MOL
REMARK 922        TOTAL FREE ENERGY PREDICTED BY IDOCK:   -2.02 KCAL/MOL
REMARK 923 INTER-LIGAND FREE ENERGY PREDICTED BY IDOCK:   -1.89 KCAL/MOL
REMARK 924 INTRA-LIGAND FREE ENERGY PREDICTED BY IDOCK:   -0.13 KCAL/MOL
REMARK 927      BINDING AFFINITY PREDICTED BY RF-SCORE:    0.00 PKD
ROOT
ATOM      1  CE  MET A   1      -6.817   7.179  67.186  1.00  0.00    -0.076 C  
ATOM      2  SD  MET A   1      -8.505   6.760  67.683  1.00  0.00    -0.122 SA 
ENDROOT
BRANCH   2   3
ATOM      3  CG  MET A   1      -8.151   6.026  69.312  1.00  0.00    -0.108 C  
BRANCH   3   4
ATOM      4  CB  MET A   1      -9.096   6.616  70.359  1.00  0.00    -0.152 C  
BRANCH   4   5
ATOM      5  CA  MET A   1     -10.330   7.289  69.744  1.00  0.00    -0.220 C  
ATOM      6  C   MET A   1     -10.584   8.666  70.393  1.00  0.00    -0.220 C  
ATOM      7  N   MET A   1     -11.574   6.477  69.894  1.00  0.00    -0.582 NA 
ATOM      8  O   MET A   1     -11.919   8.918  70.483  1.00  0.00    -0.149 OA 
ATOM      9  OXT MET A   1      -9.729   9.457  70.755  1.00  0.00    -0.260 OA 
ATOM     10  H1  MET A   1     -12.394   6.925  69.486  1.00  0.00     0.000 HD 
ATOM     11  H2  MET A   1     -11.738   6.241  70.873  1.00  0.00     0.000 HD 
ENDBRANCH   4   5
ENDBRANCH   3   4
ENDBRANCH   2   3
TORSDOF 3
ENDMDL
MODEL      231
REMARK 921   NORMALIZED FREE ENERGY PREDICTED BY IDOCK:   -1.66 KCAL/MOL
REMARK 922        TOTAL FREE ENERGY PREDICTED BY IDOCK:   -2.01 KCAL/MOL
REMARK 923 INTER-LIGAND FREE ENERGY PREDICTED BY IDOCK:   -1.90 KCAL/MOL
REMARK 924 INTRA-LIGAND FREE ENERGY PREDICTED BY IDOCK:   -0.11 KCAL/MOL
REMARK 927      BINDING AFFINITY PREDICTED BY RF-SCORE:    0.00 PKD
ROOT
ATOM      1  CE  MET A   1      -5.479  14.096  72.475  1.00  0.00    -0.153 C  
ATOM      2  SD  MET A   1      -5.581  13.844  70.686  1.00  0.00    -0.179 SA 
ENDROOT
BRANCH   2   3
ATOM      3  CG  MET A   1      -6.215  15.482  70.203  1.00  0.00    -0.099 C  
BRANCH   3   4
ATOM      4  CB  MET A   1      -6.627  15.461  68.731  1.00  0.00    -0.106 C  
BRANCH   4   5
ATOM      5  CA  MET A   1      -8.130  15.685  68.524  1.00  0.00    -0.147 C  
ATOM      6  C   MET A   1      -8.458  17.192  68.466  1.00  0.00    -0.262 C  
ATOM      7  N   MET A   1      -8.966  15.079  69.603  1.00  0.00    -0.453 NA 
ATOM      8  O   MET A   1      -9.669  17.445  69.032  1.00  0.00    -0.264 OA 
ATOM      9  OXT MET A   1      -7.763  18.057  67.960  1.00  0.00    -0.236 OA 
ATOM     10  H1  MET A   1      -9.966  15.227  69.465  1.00  0.00     0.000 HD 
ATOM     11  H2  MET A   1      -8.672  15.410  70.521  1.00  0.00     0.000 HD 
ENDBRANCH   4   5
ENDBRANCH   3   4
ENDBRANCH   2   3
TORSDOF 3
ENDMDL
MODEL      232
REMARK 921   NORMALIZED FREE ENERGY PREDICTED BY IDOCK:   -1.63 KCAL/MOL
REMARK 922        TOTAL FREE ENERGY PREDICTED BY IDOCK:   -1.98 KCAL/MOL
REMARK 923 INTER-LIGAND FREE ENERGY PREDICTED BY IDOCK:   -1.86 KCAL/MOL
REMARK 924 INTRA-LIGAND FREE ENERGY PREDICTED BY IDOCK:   -0.12 KCAL/MOL
REMARK 927      BINDING AFFINITY PREDICTED BY RF-SCORE:    0.00 PKD
ROOT
ATOM      1  CE  MET A   1      -8.719   5.315  73.260  1.00  0.00    -0.115 C  
ATOM      2  SD  MET A   1      -8.998   5.758  71.528  1.00  0.00    -0.140 SA 
ENDROOT
BRANCH   2   3
ATOM      3  CG  MET A   1      -8.258   7.423  71.536  1.00  0.00    -0.104 C  
BRANCH   3   4
ATOM      4  CB  MET A   1      -9.363   8.477  71.600  1.00  0.00    -0.311 C  
BRANCH   4   5
ATOM      5  CA  MET A   1      -9.324   9.461  70.423  1.00  0.00    -0.268 C  
ATOM      6  C   MET A   1      -9.666   8.747  69.099  1.00  0.00    -0.175 C  
ATOM      7  N   MET A   1      -7.994  10.119  70.256  1.00  0.00    -0.405 NA 
ATOM      8  O   MET A   1      -8.952   9.275  68.067  1.00  0.00    -0.128 OA 
ATOM      9  OXT MET A   1     -10.483   7.853  68.957  1.00  0.00    -0.214 OA 
ATOM     10  H1  MET A   1      -7.967  10.773  69.474  1.00  0.00     0.000 HD 
ATOM     11  H2  MET A   1      -7.252   9.424  70.174  1.00  0.00     0.000 HD 
ENDBRANCH   4   5
ENDBRANCH   3   4
ENDBRANCH   2   3
TORSDOF 3
ENDMDL
MODEL      233
REMARK 921   NORMALIZED FREE ENERGY PREDICTED BY IDOCK:   -1.63 KCAL/MOL
REMARK 922        TOTAL FREE ENERGY PREDICTED BY IDOCK:   -1.98 KCAL/MOL
REMARK 923 INTER-LIGAND FREE ENERGY PREDICTED BY IDOCK:   -1.92 KCAL/MOL
REMARK 924 INTRA-LIGAND FREE ENERGY PREDICTED BY IDOCK:   -0.06 KCAL/MOL
REMARK 927      BINDING AFFINITY PREDICTED BY RF-SCORE:    0.00 PKD
ROOT
ATOM      1  CE  MET A   1      -7.561  12.448  68.357  1.00  0.00    -0.129 C  
ATOM      2  SD  MET A   1      -6.041  12.994  69.172  1.00  0.00    -0.102 SA 
ENDROOT
BRANCH   2   3
ATOM      3  CG  MET A   1      -6.290  14.796  69.062  1.00  0.00    -0.093 C  
BRANCH   3   4
ATOM      4  CB  MET A   1      -7.607  15.091  68.345  1.00  0.00    -0.115 C  
BRANCH   4   5
ATOM      5  CA  MET A   1      -7.718  16.545  67.866  1.00  0.00    -0.153 C  
ATOM      6  C   MET A   1      -8.319  16.611  66.446  1.00  0.00    -0.318 C  
ATOM      7  N   MET A   1      -6.404  17.253  67.838  1.00  0.00    -0.146 NA 
ATOM      8  O   MET A   1      -7.765  17.631  65.735  1.00  0.00    -0.540 OA 
ATOM      9  OXT MET A   1      -9.194  15.885  66.004  1.00  0.00    -0.322 OA 
ATOM     10  H1  MET A   1      -6.477  18.219  67.520  1.00  0.00     0.000 HD 
ATOM     11  H2  MET A   1      -5.724  16.737  67.280  1.00  0.00     0.000 HD 
ENDBRANCH   4   5
ENDBRANCH   3   4
ENDBRANCH   2   3
TORSDOF 3
ENDMDL
MODEL      234
REMARK 921   NORMALIZED FREE ENERGY PREDICTED BY IDOCK:   -1.61 KCAL/MOL
REMARK 922        TOTAL FREE ENERGY PREDICTED BY IDOCK:   -1.95 KCAL/MOL
REMARK 923 INTER-LIGAND FREE ENERGY PREDICTED BY IDOCK:   -1.91 KCAL/MOL
REMARK 924 INTRA-LIGAND FREE ENERGY PREDICTED BY IDOCK:   -0.05 KCAL/MOL
REMARK 927      BINDING AFFINITY PREDICTED BY RF-SCORE:    0.00 PKD
ROOT
ATOM      1  CE  MET A   1      -8.295   8.878  63.581  1.00  0.00    -0.162 C  
ATOM      2  SD  MET A   1      -8.950  10.458  64.171  1.00  0.00    -0.246 SA 
ENDROOT
BRANCH   2   3
ATOM      3  CG  MET A   1      -9.991   9.844  65.534  1.00  0.00    -0.292 C  
BRANCH   3   4
ATOM      4  CB  MET A   1      -9.105   9.301  66.655  1.00  0.00    -0.177 C  
BRANCH   4   5
ATOM      5  CA  MET A   1      -9.865   8.404  67.641  1.00  0.00    -0.173 C  
ATOM      6  C   MET A   1      -8.928   7.338  68.246  1.00  0.00    -0.125 C  
ATOM      7  N   MET A   1     -11.019   7.693  67.015  1.00  0.00    -0.496 NA 
ATOM      8  O   MET A   1      -9.596   6.171  68.456  1.00  0.00    -0.119 OA 
ATOM      9  OXT MET A   1      -7.755   7.498  68.540  1.00  0.00    -0.114 OA 
ATOM     10  H1  MET A   1     -11.524   7.097  67.670  1.00  0.00     0.000 HD 
ATOM     11  H2  MET A   1     -10.719   7.163  66.197  1.00  0.00     0.000 HD 
ENDBRANCH   4   5
ENDBRANCH   3   4
ENDBRANCH   2   3
TORSDOF 3
ENDMDL
MODEL      235
REMARK 921   NORMALIZED FREE ENERGY PREDICTED BY IDOCK:   -1.60 KCAL/MOL
REMARK 922        TOTAL FREE ENERGY PREDICTED BY IDOCK:   -1.95 KCAL/MOL
REMARK 923 INTER-LIGAND FREE ENERGY PREDICTED BY IDOCK:   -1.83 KCAL/MOL
REMARK 924 INTRA-LIGAND FREE ENERGY PREDICTED BY IDOCK:   -0.11 KCAL/MOL
REMARK 927      BINDING AFFINITY PREDICTED BY RF-SCORE:    0.00 PKD
ROOT
ATOM      1  CE  MET A   1      -8.025   7.207  64.395  1.00  0.00    -0.101 C  
ATOM      2  SD  MET A   1      -8.466   8.721  65.280  1.00  0.00    -0.179 SA 
ENDROOT
BRANCH   2   3
ATOM      3  CG  MET A   1      -9.188   7.977  66.778  1.00  0.00    -0.165 C  
BRANCH   3   4
ATOM      4  CB  MET A   1     -10.414   8.781  67.212  1.00  0.00    -0.353 C  
BRANCH   4   5
ATOM      5  CA  MET A   1     -10.526   8.932  68.735  1.00  0.00    -0.200 C  
ATOM      6  C   MET A   1      -9.452   9.903  69.270  1.00  0.00    -0.209 C  
ATOM      7  N   MET A   1     -10.373   7.638  69.464  1.00  0.00    -0.213 NA 
ATOM      8  O   MET A   1      -9.015   9.511  70.497  1.00  0.00    -0.242 OA 
ATOM      9  OXT MET A   1      -9.053  10.910  68.709  1.00  0.00    -0.169 OA 
ATOM     10  H1  MET A   1     -10.447   7.739  70.476  1.00  0.00     0.000 HD 
ATOM     11  H2  MET A   1      -9.501   7.176  69.207  1.00  0.00     0.000 HD 
ENDBRANCH   4   5
ENDBRANCH   3   4
ENDBRANCH   2   3
TORSDOF 3
ENDMDL
MODEL      236
REMARK 921   NORMALIZED FREE ENERGY PREDICTED BY IDOCK:   -1.58 KCAL/MOL
REMARK 922        TOTAL FREE ENERGY PREDICTED BY IDOCK:   -1.91 KCAL/MOL
REMARK 923 INTER-LIGAND FREE ENERGY PREDICTED BY IDOCK:   -1.84 KCAL/MOL
REMARK 924 INTRA-LIGAND FREE ENERGY PREDICTED BY IDOCK:   -0.07 KCAL/MOL
REMARK 927      BINDING AFFINITY PREDICTED BY RF-SCORE:    0.00 PKD
ROOT
ATOM      1  CE  MET A   1      -7.081   5.305  70.053  1.00  0.00    -0.061 C  
ATOM      2  SD  MET A   1      -6.500   7.019  70.070  1.00  0.00    -0.037 SA 
ENDROOT
BRANCH   2   3
ATOM      3  CG  MET A   1      -7.844   7.785  69.107  1.00  0.00    -0.114 C  
BRANCH   3   4
ATOM      4  CB  MET A   1      -9.169   7.623  69.852  1.00  0.00    -0.147 C  
BRANCH   4   5
ATOM      5  CA  MET A   1      -9.559   8.865  70.663  1.00  0.00    -0.215 C  
ATOM      6  C   MET A   1     -11.091   8.950  70.834  1.00  0.00    -0.271 C  
ATOM      7  N   MET A   1      -9.099  10.140  70.037  1.00  0.00    -0.390 NA 
ATOM      8  O   MET A   1     -11.507  10.246  70.820  1.00  0.00    -0.319 OA 
ATOM      9  OXT MET A   1     -11.847   8.007  70.995  1.00  0.00    -0.290 OA 
ATOM     10  H1  MET A   1      -9.359  10.967  70.575  1.00  0.00     0.000 HD 
ATOM     11  H2  MET A   1      -9.431  10.214  69.075  1.00  0.00     0.000 HD 
ENDBRANCH   4   5
ENDBRANCH   3   4
ENDBRANCH   2   3
TORSDOF 3
ENDMDL
MODEL      237
REMARK 921   NORMALIZED FREE ENERGY PREDICTED BY IDOCK:   -1.57 KCAL/MOL
REMARK 922        TOTAL FREE ENERGY PREDICTED BY IDOCK:   -1.91 KCAL/MOL
REMARK 923 INTER-LIGAND FREE ENERGY PREDICTED BY IDOCK:   -1.85 KCAL/MOL
REMARK 924 INTRA-LIGAND FREE ENERGY PREDICTED BY IDOCK:   -0.07 KCAL/MOL
REMARK 927      BINDING AFFINITY PREDICTED BY RF-SCORE:    0.00 PKD
ROOT
ATOM      1  CE  MET A   1      -7.738   3.559  70.613  1.00  0.00    -0.040 C  
ATOM      2  SD  MET A   1      -7.437   5.326  70.365  1.00  0.00    -0.072 SA 
ENDROOT
BRANCH   2   3
ATOM      3  CG  MET A   1      -8.833   5.992  71.329  1.00  0.00    -0.136 C  
BRANCH   3   4
ATOM      4  CB  MET A   1      -8.326   7.061  72.297  1.00  0.00    -0.115 C  
BRANCH   4   5
ATOM      5  CA  MET A   1      -9.057   8.401  72.147  1.00  0.00    -0.239 C  
ATOM      6  C   MET A   1     -10.555   8.251  72.489  1.00  0.00    -0.337 C  
ATOM      7  N   MET A   1      -8.959   8.971  70.771  1.00  0.00    -0.216 NA 
ATOM      8  O   MET A   1     -11.313   9.064  71.703  1.00  0.00    -0.310 OA 
ATOM      9  OXT MET A   1     -11.023   7.536  73.359  1.00  0.00    -0.380 OA 
ATOM     10  H1  MET A   1      -9.445   9.863  70.671  1.00  0.00     0.000 HD 
ATOM     11  H2  MET A   1      -9.284   8.300  70.075  1.00  0.00     0.000 HD 
ENDBRANCH   4   5
ENDBRANCH   3   4
ENDBRANCH   2   3
TORSDOF 3
ENDMDL
MODEL      238
REMARK 921   NORMALIZED FREE ENERGY PREDICTED BY IDOCK:   -1.56 KCAL/MOL
REMARK 922        TOTAL FREE ENERGY PREDICTED BY IDOCK:   -1.89 KCAL/MOL
REMARK 923 INTER-LIGAND FREE ENERGY PREDICTED BY IDOCK:   -1.77 KCAL/MOL
REMARK 924 INTRA-LIGAND FREE ENERGY PREDICTED BY IDOCK:   -0.12 KCAL/MOL
REMARK 927      BINDING AFFINITY PREDICTED BY RF-SCORE:    0.00 PKD
ROOT
ATOM      1  CE  MET A   1      -9.647  11.722  68.153  1.00  0.00    -0.193 C  
ATOM      2  SD  MET A   1     -11.436  11.794  68.412  1.00  0.00    -0.319 SA 
ENDROOT
BRANCH   2   3
ATOM      3  CG  MET A   1     -11.595  10.492  69.676  1.00  0.00    -0.271 C  
BRANCH   3   4
ATOM      4  CB  MET A   1     -10.746   9.284  69.281  1.00  0.00    -0.211 C  
BRANCH   4   5
ATOM      5  CA  MET A   1     -10.031   8.636  70.473  1.00  0.00    -0.189 C  
ATOM      6  C   MET A   1      -8.658   8.072  70.049  1.00  0.00    -0.134 C  
ATOM      7  N   MET A   1     -10.810   7.521  71.088  1.00  0.00    -0.236 NA 
ATOM      8  O   MET A   1      -8.371   6.932  70.735  1.00  0.00    -0.124 OA 
ATOM      9  OXT MET A   1      -7.896   8.575  69.240  1.00  0.00    -0.095 OA 
ATOM     10  H1  MET A   1     -10.335   7.090  71.880  1.00  0.00     0.000 HD 
ATOM     11  H2  MET A   1     -11.058   6.821  70.388  1.00  0.00     0.000 HD 
ENDBRANCH   4   5
ENDBRANCH   3   4
ENDBRANCH   2   3
TORSDOF 3
ENDMDL
MODEL      239
REMARK 921   NORMALIZED FREE ENERGY PREDICTED BY IDOCK:   -1.56 KCAL/MOL
REMARK 922        TOTAL FREE ENERGY PREDICTED BY IDOCK:   -1.89 KCAL/MOL
REMARK 923 INTER-LIGAND FREE ENERGY PREDICTED BY IDOCK:   -1.81 KCAL/MOL
REMARK 924 INTRA-LIGAND FREE ENERGY PREDICTED BY IDOCK:   -0.07 KCAL/MOL
REMARK 927      BINDING AFFINITY PREDICTED BY RF-SCORE:    0.00 PKD
ROOT
ATOM      1  CE  MET A   1      -8.098  11.353  68.381  1.00  0.00    -0.145 C  
ATOM      2  SD  MET A   1      -6.691  12.399  68.827  1.00  0.00    -0.097 SA 
ENDROOT
BRANCH   2   3
ATOM      3  CG  MET A   1      -7.489  14.030  68.679  1.00  0.00    -0.125 C  
BRANCH   3   4
ATOM      4  CB  MET A   1      -8.943  13.855  68.241  1.00  0.00    -0.187 C  
BRANCH   4   5
ATOM      5  CA  MET A   1      -9.727  15.173  68.221  1.00  0.00    -0.219 C  
ATOM      6  C   MET A   1     -10.985  15.077  69.110  1.00  0.00    -0.261 C  
ATOM      7  N   MET A   1     -10.167  15.571  66.851  1.00  0.00    -0.273 NA 
ATOM      8  O   MET A   1     -12.010  15.795  68.575  1.00  0.00    -0.314 OA 
ATOM      9  OXT MET A   1     -11.070  14.477  70.169  1.00  0.00    -0.195 OA 
ATOM     10  H1  MET A   1     -10.689  16.447  66.837  1.00  0.00     0.000 HD 
ATOM     11  H2  MET A   1     -10.701  14.823  66.409  1.00  0.00     0.000 HD 
ENDBRANCH   4   5
ENDBRANCH   3   4
ENDBRANCH   2   3
TORSDOF 3
ENDMDL
MODEL      240
REMARK 921   NORMALIZED FREE ENERGY PREDICTED BY IDOCK:   -1.55 KCAL/MOL
REMARK 922        TOTAL FREE ENERGY PREDICTED BY IDOCK:   -1.89 KCAL/MOL
REMARK 923 INTER-LIGAND FREE ENERGY PREDICTED BY IDOCK:   -1.84 KCAL/MOL
REMARK 924 INTRA-LIGAND FREE ENERGY PREDICTED BY IDOCK:   -0.05 KCAL/MOL
REMARK 927      BINDING AFFINITY PREDICTED BY RF-SCORE:    0.00 PKD
ROOT
ATOM      1  CE  MET A   1      -6.815   8.822  66.205  1.00  0.00    -0.073 C  
ATOM      2  SD  MET A   1      -8.216   9.595  67.048  1.00  0.00    -0.117 SA 
ENDROOT
BRANCH   2   3
ATOM      3  CG  MET A   1      -8.463  11.022  65.942  1.00  0.00    -0.140 C  
BRANCH   3   4
ATOM      4  CB  MET A   1      -9.559  11.927  66.506  1.00  0.00    -0.226 C  
BRANCH   4   5
ATOM      5  CA  MET A   1      -9.031  12.947  67.523  1.00  0.00    -0.193 C  
ATOM      6  C   MET A   1     -10.196  13.626  68.274  1.00  0.00    -0.243 C  
ATOM      7  N   MET A   1      -8.204  14.022  66.898  1.00  0.00    -0.396 NA 
ATOM      8  O   MET A   1      -9.901  14.926  68.548  1.00  0.00    -0.205 OA 
ATOM      9  OXT MET A   1     -11.236  13.090  68.618  1.00  0.00    -0.245 OA 
ATOM     10  H1  MET A   1      -7.853  14.700  67.574  1.00  0.00     0.000 HD 
ATOM     11  H2  MET A   1      -8.717  14.486  66.149  1.00  0.00     0.000 HD 
ENDBRANCH   4   5
ENDBRANCH   3   4
ENDBRANCH   2   3
TORSDOF 3
ENDMDL
MODEL      241
REMARK 921   NORMALIZED FREE ENERGY PREDICTED BY IDOCK:   -1.55 KCAL/MOL
REMARK 922        TOTAL FREE ENERGY PREDICTED BY IDOCK:   -1.88 KCAL/MOL
REMARK 923 INTER-LIGAND FREE ENERGY PREDICTED BY IDOCK:   -1.80 KCAL/MOL
REMARK 924 INTRA-LIGAND FREE ENERGY PREDICTED BY IDOCK:   -0.08 KCAL/MOL
REMARK 927      BINDING AFFINITY PREDICTED BY RF-SCORE:    0.00 PKD
ROOT
ATOM      1  CE  MET A   1      -5.870   9.384  69.651  1.00  0.00    -0.033 C  
ATOM      2  SD  MET A   1      -6.454   7.679  69.493  1.00  0.00    -0.032 SA 
ENDROOT
BRANCH   2   3
ATOM      3  CG  MET A   1      -8.194   8.011  69.069  1.00  0.00    -0.128 C  
BRANCH   3   4
ATOM      4  CB  MET A   1      -8.950   8.471  70.316  1.00  0.00    -0.153 C  
BRANCH   4   5
ATOM      5  CA  MET A   1     -10.431   8.073  70.302  1.00  0.00    -0.222 C  
ATOM      6  C   MET A   1     -10.589   6.540  70.380  1.00  0.00    -0.233 C  
ATOM      7  N   MET A   1     -11.152   8.543  69.082  1.00  0.00    -0.423 NA 
ATOM      8  O   MET A   1     -11.660   6.127  69.650  1.00  0.00    -0.407 OA 
ATOM      9  OXT MET A   1      -9.887   5.780  71.027  1.00  0.00    -0.169 OA 
ATOM     10  H1  MET A   1     -12.137   8.279  69.073  1.00  0.00     0.000 HD 
ATOM     11  H2  MET A   1     -10.682   8.223  68.235  1.00  0.00     0.000 HD 
ENDBRANCH   4   5
ENDBRANCH   3   4
ENDBRANCH   2   3
TORSDOF 3
ENDMDL
MODEL      242
REMARK 921   NORMALIZED FREE ENERGY PREDICTED BY IDOCK:   -1.54 KCAL/MOL
REMARK 922        TOTAL FREE ENERGY PREDICTED BY IDOCK:   -1.87 KCAL/MOL
REMARK 923 INTER-LIGAND FREE ENERGY PREDICTED BY IDOCK:   -1.82 KCAL/MOL
REMARK 924 INTRA-LIGAND FREE ENERGY PREDICTED BY IDOCK:   -0.05 KCAL/MOL
REMARK 927      BINDING AFFINITY PREDICTED BY RF-SCORE:    0.00 PKD
ROOT
ATOM      1  CE  MET A   1      -9.722  11.319  68.180  1.00  0.00    -0.185 C  
ATOM      2  SD  MET A   1     -10.577  10.548  69.574  1.00  0.00    -0.237 SA 
ENDROOT
BRANCH   2   3
ATOM      3  CG  MET A   1      -9.868   8.874  69.454  1.00  0.00    -0.183 C  
BRANCH   3   4
ATOM      4  CB  MET A   1     -10.720   7.894  70.261  1.00  0.00    -0.236 C  
BRANCH   4   5
ATOM      5  CA  MET A   1     -10.714   6.474  69.683  1.00  0.00    -0.269 C  
ATOM      6  C   MET A   1     -10.163   5.464  70.712  1.00  0.00    -0.243 C  
ATOM      7  N   MET A   1      -9.893   6.351  68.441  1.00  0.00    -0.134 NA 
ATOM      8  O   MET A   1      -9.456   4.480  70.093  1.00  0.00    -0.132 OA 
ATOM      9  OXT MET A   1     -10.348   5.497  71.917  1.00  0.00    -0.202 OA 
ATOM     10  H1  MET A   1      -9.889   5.407  68.056  1.00  0.00     0.000 HD 
ATOM     11  H2  MET A   1      -8.942   6.684  68.599  1.00  0.00     0.000 HD 
ENDBRANCH   4   5
ENDBRANCH   3   4
ENDBRANCH   2   3
TORSDOF 3
ENDMDL
MODEL      243
REMARK 921   NORMALIZED FREE ENERGY PREDICTED BY IDOCK:   -1.52 KCAL/MOL
REMARK 922        TOTAL FREE ENERGY PREDICTED BY IDOCK:   -1.85 KCAL/MOL
REMARK 923 INTER-LIGAND FREE ENERGY PREDICTED BY IDOCK:   -1.70 KCAL/MOL
REMARK 924 INTRA-LIGAND FREE ENERGY PREDICTED BY IDOCK:   -0.15 KCAL/MOL
REMARK 927      BINDING AFFINITY PREDICTED BY RF-SCORE:    0.00 PKD
ROOT
ATOM      1  CE  MET A   1      -8.619   4.805  64.426  1.00  0.00    -0.145 C  
ATOM      2  SD  MET A   1      -9.019   5.051  66.172  1.00  0.00    -0.136 SA 
ENDROOT
BRANCH   2   3
ATOM      3  CG  MET A   1      -7.699   6.231  66.604  1.00  0.00    -0.100 C  
BRANCH   3   4
ATOM      4  CB  MET A   1      -8.309   7.464  67.271  1.00  0.00    -0.119 C  
BRANCH   4   5
ATOM      5  CA  MET A   1      -9.655   7.874  66.661  1.00  0.00    -0.226 C  
ATOM      6  C   MET A   1      -9.518   9.185  65.859  1.00  0.00    -0.259 C  
ATOM      7  N   MET A   1     -10.724   8.075  67.684  1.00  0.00    -0.471 NA 
ATOM      8  O   MET A   1     -10.647   9.938  65.969  1.00  0.00    -0.102 OA 
ATOM      9  OXT MET A   1      -8.558   9.515  65.183  1.00  0.00    -0.142 OA 
ATOM     10  H1  MET A   1     -11.619   8.347  67.279  1.00  0.00     0.000 HD 
ATOM     11  H2  MET A   1     -10.427   8.745  68.394  1.00  0.00     0.000 HD 
ENDBRANCH   4   5
ENDBRANCH   3   4
ENDBRANCH   2   3
TORSDOF 3
ENDMDL
MODEL      244
REMARK 921   NORMALIZED FREE ENERGY PREDICTED BY IDOCK:   -1.52 KCAL/MOL
REMARK 922        TOTAL FREE ENERGY PREDICTED BY IDOCK:   -1.85 KCAL/MOL
REMARK 923 INTER-LIGAND FREE ENERGY PREDICTED BY IDOCK:   -1.83 KCAL/MOL
REMARK 924 INTRA-LIGAND FREE ENERGY PREDICTED BY IDOCK:   -0.02 KCAL/MOL
REMARK 927      BINDING AFFINITY PREDICTED BY RF-SCORE:    0.00 PKD
ROOT
ATOM      1  CE  MET A   1      -9.690  14.285  68.121  1.00  0.00    -0.226 C  
ATOM      2  SD  MET A   1      -8.796  12.788  67.639  1.00  0.00    -0.202 SA 
ENDROOT
BRANCH   2   3
ATOM      3  CG  MET A   1      -9.780  11.559  68.556  1.00  0.00    -0.189 C  
BRANCH   3   4
ATOM      4  CB  MET A   1     -10.677  10.789  67.586  1.00  0.00    -0.305 C  
BRANCH   4   5
ATOM      5  CA  MET A   1     -10.279   9.315  67.441  1.00  0.00    -0.243 C  
ATOM      6  C   MET A   1     -10.306   8.602  68.810  1.00  0.00    -0.208 C  
ATOM      7  N   MET A   1      -8.917   9.131  66.859  1.00  0.00    -0.122 NA 
ATOM      8  O   MET A   1      -9.322   7.666  68.886  1.00  0.00    -0.146 OA 
ATOM      9  OXT MET A   1     -11.108   8.804  69.707  1.00  0.00    -0.192 OA 
ATOM     10  H1  MET A   1      -8.652   8.150  66.763  1.00  0.00     0.000 HD 
ATOM     11  H2  MET A   1      -8.219   9.645  67.397  1.00  0.00     0.000 HD 
ENDBRANCH   4   5
ENDBRANCH   3   4
ENDBRANCH   2   3
TORSDOF 3
ENDMDL
MODEL      245
REMARK 921   NORMALIZED FREE ENERGY PREDICTED BY IDOCK:   -1.52 KCAL/MOL
REMARK 922        TOTAL FREE ENERGY PREDICTED BY IDOCK:   -1.85 KCAL/MOL
REMARK 923 INTER-LIGAND FREE ENERGY PREDICTED BY IDOCK:   -1.78 KCAL/MOL
REMARK 924 INTRA-LIGAND FREE ENERGY PREDICTED BY IDOCK:   -0.06 KCAL/MOL
REMARK 927      BINDING AFFINITY PREDICTED BY RF-SCORE:    0.00 PKD
ROOT
ATOM      1  CE  MET A   1      -7.516  12.410  68.419  1.00  0.00    -0.123 C  
ATOM      2  SD  MET A   1      -6.053  12.924  69.350  1.00  0.00    -0.116 SA 
ENDROOT
BRANCH   2   3
ATOM      3  CG  MET A   1      -6.474  14.679  69.600  1.00  0.00    -0.149 C  
BRANCH   3   4
ATOM      4  CB  MET A   1      -7.804  14.992  68.914  1.00  0.00    -0.162 C  
BRANCH   4   5
ATOM      5  CA  MET A   1      -8.144  16.487  68.918  1.00  0.00    -0.240 C  
ATOM      6  C   MET A   1      -9.655  16.706  69.147  1.00  0.00    -0.208 C  
ATOM      7  N   MET A   1      -7.773  17.175  67.646  1.00  0.00    -0.170 NA 
ATOM      8  O   MET A   1     -10.099  17.784  68.445  1.00  0.00    -0.333 OA 
ATOM      9  OXT MET A   1     -10.372  16.042  69.877  1.00  0.00    -0.283 OA 
ATOM     10  H1  MET A   1      -7.999  18.170  67.648  1.00  0.00     0.000 HD 
ATOM     11  H2  MET A   1      -8.194  16.708  66.843  1.00  0.00     0.000 HD 
ENDBRANCH   4   5
ENDBRANCH   3   4
ENDBRANCH   2   3
TORSDOF 3
ENDMDL
MODEL      246
REMARK 921   NORMALIZED FREE ENERGY PREDICTED BY IDOCK:   -1.51 KCAL/MOL
REMARK 922        TOTAL FREE ENERGY PREDICTED BY IDOCK:   -1.84 KCAL/MOL
REMARK 923 INTER-LIGAND FREE ENERGY PREDICTED BY IDOCK:   -1.69 KCAL/MOL
REMARK 924 INTRA-LIGAND FREE ENERGY PREDICTED BY IDOCK:   -0.15 KCAL/MOL
REMARK 927      BINDING AFFINITY PREDICTED BY RF-SCORE:    0.00 PKD
ROOT
ATOM      1  CE  MET A   1      -6.216   8.638  68.550  1.00  0.00    -0.053 C  
ATOM      2  SD  MET A   1      -7.532   7.751  69.417  1.00  0.00    -0.090 SA 
ENDROOT
BRANCH   2   3
ATOM      3  CG  MET A   1      -8.731   9.113  69.587  1.00  0.00    -0.145 C  
BRANCH   3   4
ATOM      4  CB  MET A   1      -9.219   9.192  71.033  1.00  0.00    -0.321 C  
BRANCH   4   5
ATOM      5  CA  MET A   1      -8.714   8.033  71.902  1.00  0.00    -0.138 C  
ATOM      6  C   MET A   1      -9.878   7.105  72.309  1.00  0.00    -0.153 C  
ATOM      7  N   MET A   1      -8.038   8.490  73.152  1.00  0.00    -0.400 NA 
ATOM      8  O   MET A   1      -9.685   6.609  73.562  1.00  0.00    -0.163 OA 
ATOM      9  OXT MET A   1     -10.836   6.810  71.614  1.00  0.00    -0.224 OA 
ATOM     10  H1  MET A   1      -7.702   7.720  73.730  1.00  0.00     0.000 HD 
ATOM     11  H2  MET A   1      -8.645   9.110  73.689  1.00  0.00     0.000 HD 
ENDBRANCH   4   5
ENDBRANCH   3   4
ENDBRANCH   2   3
TORSDOF 3
ENDMDL
MODEL      247
REMARK 921   NORMALIZED FREE ENERGY PREDICTED BY IDOCK:   -1.50 KCAL/MOL
REMARK 922        TOTAL FREE ENERGY PREDICTED BY IDOCK:   -1.83 KCAL/MOL
REMARK 923 INTER-LIGAND FREE ENERGY PREDICTED BY IDOCK:   -1.67 KCAL/MOL
REMARK 924 INTRA-LIGAND FREE ENERGY PREDICTED BY IDOCK:   -0.15 KCAL/MOL
REMARK 927      BINDING AFFINITY PREDICTED BY RF-SCORE:    0.00 PKD
ROOT
ATOM      1  CE  MET A   1      -6.625   4.761  70.079  1.00  0.00    -0.036 C  
ATOM      2  SD  MET A   1      -6.345   6.267  71.042  1.00  0.00    -0.049 SA 
ENDROOT
BRANCH   2   3
ATOM      3  CG  MET A   1      -8.072   6.660  71.468  1.00  0.00    -0.111 C  
BRANCH   3   4
ATOM      4  CB  MET A   1      -8.954   6.515  70.227  1.00  0.00    -0.155 C  
BRANCH   4   5
ATOM      5  CA  MET A   1     -10.325   5.899  70.533  1.00  0.00    -0.235 C  
ATOM      6  C   MET A   1     -11.305   6.971  71.056  1.00  0.00    -0.287 C  
ATOM      7  N   MET A   1     -10.262   4.806  71.548  1.00  0.00    -0.197 NA 
ATOM      8  O   MET A   1     -12.144   6.444  71.988  1.00  0.00    -0.335 OA 
ATOM      9  OXT MET A   1     -11.366   8.130  70.680  1.00  0.00    -0.268 OA 
ATOM     10  H1  MET A   1     -11.173   4.396  71.751  1.00  0.00     0.000 HD 
ATOM     11  H2  MET A   1      -9.809   5.129  72.403  1.00  0.00     0.000 HD 
ENDBRANCH   4   5
ENDBRANCH   3   4
ENDBRANCH   2   3
TORSDOF 3
ENDMDL
MODEL      248
REMARK 921   NORMALIZED FREE ENERGY PREDICTED BY IDOCK:   -1.50 KCAL/MOL
REMARK 922        TOTAL FREE ENERGY PREDICTED BY IDOCK:   -1.83 KCAL/MOL
REMARK 923 INTER-LIGAND FREE ENERGY PREDICTED BY IDOCK:   -1.68 KCAL/MOL
REMARK 924 INTRA-LIGAND FREE ENERGY PREDICTED BY IDOCK:   -0.15 KCAL/MOL
REMARK 927      BINDING AFFINITY PREDICTED BY RF-SCORE:    0.00 PKD
ROOT
ATOM      1  CE  MET A   1      -9.808  11.028  67.561  1.00  0.00    -0.169 C  
ATOM      2  SD  MET A   1      -8.592   9.859  66.908  1.00  0.00    -0.128 SA 
ENDROOT
BRANCH   2   3
ATOM      3  CG  MET A   1      -9.384   8.302  67.429  1.00  0.00    -0.141 C  
BRANCH   3   4
ATOM      4  CB  MET A   1      -8.870   7.901  68.812  1.00  0.00    -0.138 C  
BRANCH   4   5
ATOM      5  CA  MET A   1      -9.998   7.576  69.800  1.00  0.00    -0.186 C  
ATOM      6  C   MET A   1     -10.462   6.113  69.640  1.00  0.00    -0.252 C  
ATOM      7  N   MET A   1     -11.193   8.454  69.634  1.00  0.00    -0.445 NA 
ATOM      8  O   MET A   1     -11.801   6.005  69.860  1.00  0.00    -0.074 OA 
ATOM      9  OXT MET A   1      -9.748   5.158  69.387  1.00  0.00    -0.146 OA 
ATOM     10  H1  MET A   1     -11.943   8.238  70.291  1.00  0.00     0.000 HD 
ATOM     11  H2  MET A   1     -11.534   8.428  68.673  1.00  0.00     0.000 HD 
ENDBRANCH   4   5
ENDBRANCH   3   4
ENDBRANCH   2   3
TORSDOF 3
ENDMDL
MODEL      249
REMARK 921   NORMALIZED FREE ENERGY PREDICTED BY IDOCK:   -1.47 KCAL/MOL
REMARK 922        TOTAL FREE ENERGY PREDICTED BY IDOCK:   -1.79 KCAL/MOL
REMARK 923 INTER-LIGAND FREE ENERGY PREDICTED BY IDOCK:   -1.72 KCAL/MOL
REMARK 924 INTRA-LIGAND FREE ENERGY PREDICTED BY IDOCK:   -0.07 KCAL/MOL
REMARK 927      BINDING AFFINITY PREDICTED BY RF-SCORE:    0.00 PKD
ROOT
ATOM      1  CE  MET A   1      -8.687   4.818  64.470  1.00  0.00    -0.153 C  
ATOM      2  SD  MET A   1      -9.727   5.077  65.927  1.00  0.00    -0.149 SA 
ENDROOT
BRANCH   2   3
ATOM      3  CG  MET A   1      -9.026   6.657  66.502  1.00  0.00    -0.145 C  
BRANCH   3   4
ATOM      4  CB  MET A   1     -10.133   7.708  66.594  1.00  0.00    -0.278 C  
BRANCH   4   5
ATOM      5  CA  MET A   1      -9.722   8.943  67.405  1.00  0.00    -0.176 C  
ATOM      6  C   MET A   1     -10.503   9.011  68.735  1.00  0.00    -0.206 C  
ATOM      7  N   MET A   1      -9.953  10.226  66.676  1.00  0.00    -0.207 NA 
ATOM      8  O   MET A   1     -10.769  10.302  69.074  1.00  0.00    -0.202 OA 
ATOM      9  OXT MET A   1     -10.823   8.059  69.427  1.00  0.00    -0.199 OA 
ATOM     10  H1  MET A   1      -9.681  11.047  67.216  1.00  0.00     0.000 HD 
ATOM     11  H2  MET A   1     -10.922  10.299  66.367  1.00  0.00     0.000 HD 
ENDBRANCH   4   5
ENDBRANCH   3   4
ENDBRANCH   2   3
TORSDOF 3
ENDMDL
MODEL      250
REMARK 921   NORMALIZED FREE ENERGY PREDICTED BY IDOCK:   -1.46 KCAL/MOL
REMARK 922        TOTAL FREE ENERGY PREDICTED BY IDOCK:   -1.77 KCAL/MOL
REMARK 923 INTER-LIGAND FREE ENERGY PREDICTED BY IDOCK:   -1.69 KCAL/MOL
REMARK 924 INTRA-LIGAND FREE ENERGY PREDICTED BY IDOCK:   -0.09 KCAL/MOL
REMARK 927      BINDING AFFINITY PREDICTED BY RF-SCORE:    0.00 PKD
ROOT
ATOM      1  CE  MET A   1      -8.307   4.705  66.495  1.00  0.00    -0.106 C  
ATOM      2  SD  MET A   1      -9.923   4.990  67.258  1.00  0.00    -0.182 SA 
ENDROOT
BRANCH   2   3
ATOM      3  CG  MET A   1      -9.705   6.732  67.748  1.00  0.00    -0.124 C  
BRANCH   3   4
ATOM      4  CB  MET A   1      -8.917   6.804  69.056  1.00  0.00    -0.131 C  
BRANCH   4   5
ATOM      5  CA  MET A   1      -9.479   7.840  70.038  1.00  0.00    -0.161 C  
ATOM      6  C   MET A   1     -10.905   7.456  70.486  1.00  0.00    -0.243 C  
ATOM      7  N   MET A   1      -9.536   9.218  69.466  1.00  0.00    -0.166 NA 
ATOM      8  O   MET A   1     -11.668   8.567  70.671  1.00  0.00    -0.249 OA 
ATOM      9  OXT MET A   1     -11.312   6.324  70.688  1.00  0.00    -0.323 OA 
ATOM     10  H1  MET A   1      -9.909   9.907  70.120  1.00  0.00     0.000 HD 
ATOM     11  H2  MET A   1     -10.059   9.227  68.591  1.00  0.00     0.000 HD 
ENDBRANCH   4   5
ENDBRANCH   3   4
ENDBRANCH   2   3
TORSDOF 3
ENDMDL
MODEL      251
REMARK 921   NORMALIZED FREE ENERGY PREDICTED BY IDOCK:   -1.45 KCAL/MOL
REMARK 922        TOTAL FREE ENERGY PREDICTED BY IDOCK:   -1.77 KCAL/MOL
REMARK 923 INTER-LIGAND FREE ENERGY PREDICTED BY IDOCK:   -1.95 KCAL/MOL
REMARK 924 INTRA-LIGAND FREE ENERGY PREDICTED BY IDOCK:    0.18 KCAL/MOL
REMARK 927      BINDING AFFINITY PREDICTED BY RF-SCORE:    0.00 PKD
ROOT
ATOM      1  CE  MET A   1      -9.497   8.532  69.832  1.00  0.00    -0.163 C  
ATOM      2  SD  MET A   1     -11.232   8.766  70.288  1.00  0.00    -0.139 SA 
ENDROOT
BRANCH   2   3
ATOM      3  CG  MET A   1     -11.228   7.890  71.886  1.00  0.00    -0.271 C  
BRANCH   3   4
ATOM      4  CB  MET A   1     -11.616   6.427  71.672  1.00  0.00    -0.363 C  
BRANCH   4   5
ATOM      5  CA  MET A   1     -10.410   5.478  71.673  1.00  0.00    -0.219 C  
ATOM      6  C   MET A   1     -10.095   4.990  70.244  1.00  0.00    -0.269 C  
ATOM      7  N   MET A   1     -10.615   4.274  72.531  1.00  0.00    -0.151 NA 
ATOM      8  O   MET A   1      -9.644   3.706  70.260  1.00  0.00    -0.177 OA 
ATOM      9  OXT MET A   1     -10.193   5.651  69.223  1.00  0.00    -0.194 OA 
ATOM     10  H1  MET A   1      -9.813   3.643  72.532  1.00  0.00     0.000 HD 
ATOM     11  H2  MET A   1     -11.466   3.779  72.267  1.00  0.00     0.000 HD 
ENDBRANCH   4   5
ENDBRANCH   3   4
ENDBRANCH   2   3
TORSDOF 3
ENDMDL
MODEL      252
REMARK 921   NORMALIZED FREE ENERGY PREDICTED BY IDOCK:   -1.45 KCAL/MOL
REMARK 922        TOTAL FREE ENERGY PREDICTED BY IDOCK:   -1.77 KCAL/MOL
REMARK 923 INTER-LIGAND FREE ENERGY PREDICTED BY IDOCK:   -1.66 KCAL/MOL
REMARK 924 INTRA-LIGAND FREE ENERGY PREDICTED BY IDOCK:   -0.10 KCAL/MOL
REMARK 927      BINDING AFFINITY PREDICTED BY RF-SCORE:    0.00 PKD
ROOT
ATOM      1  CE  MET A   1      -7.702   6.791  63.644  1.00  0.00    -0.107 C  
ATOM      2  SD  MET A   1      -7.260   8.536  63.826  1.00  0.00    -0.101 SA 
ENDROOT
BRANCH   2   3
ATOM      3  CG  MET A   1      -7.784   8.785  65.553  1.00  0.00    -0.092 C  
BRANCH   3   4
ATOM      4  CB  MET A   1      -9.227   8.314  65.727  1.00  0.00    -0.142 C  
BRANCH   4   5
ATOM      5  CA  MET A   1     -10.145   9.391  66.318  1.00  0.00    -0.258 C  
ATOM      6  C   MET A   1     -10.259  10.599  65.365  1.00  0.00    -0.273 C  
ATOM      7  N   MET A   1      -9.674   9.898  67.641  1.00  0.00    -0.152 NA 
ATOM      8  O   MET A   1     -10.362  11.760  66.067  1.00  0.00    -0.224 OA 
ATOM      9  OXT MET A   1     -10.290  10.550  64.147  1.00  0.00    -0.313 OA 
ATOM     10  H1  MET A   1     -10.284  10.615  68.035  1.00  0.00     0.000 HD 
ATOM     11  H2  MET A   1      -8.712  10.232  67.582  1.00  0.00     0.000 HD 
ENDBRANCH   4   5
ENDBRANCH   3   4
ENDBRANCH   2   3
TORSDOF 3
ENDMDL
MODEL      253
REMARK 921   NORMALIZED FREE ENERGY PREDICTED BY IDOCK:   -1.44 KCAL/MOL
REMARK 922        TOTAL FREE ENERGY PREDICTED BY IDOCK:   -1.75 KCAL/MOL
REMARK 923 INTER-LIGAND FREE ENERGY PREDICTED BY IDOCK:   -1.68 KCAL/MOL
REMARK 924 INTRA-LIGAND FREE ENERGY PREDICTED BY IDOCK:   -0.07 KCAL/MOL
REMARK 927      BINDING AFFINITY PREDICTED BY RF-SCORE:    0.00 PKD
ROOT
ATOM      1  CE  MET A   1      -8.530   4.608  74.331  1.00  0.00    -0.104 C  
ATOM      2  SD  MET A   1      -8.166   4.085  72.638  1.00  0.00    -0.096 SA 
ENDROOT
BRANCH   2   3
ATOM      3  CG  MET A   1      -7.973   5.724  71.867  1.00  0.00    -0.107 C  
BRANCH   3   4
ATOM      4  CB  MET A   1      -9.331   6.226  71.377  1.00  0.00    -0.160 C  
BRANCH   4   5
ATOM      5  CA  MET A   1      -9.382   6.435  69.858  1.00  0.00    -0.151 C  
ATOM      6  C   MET A   1     -10.802   6.167  69.315  1.00  0.00    -0.351 C  
ATOM      7  N   MET A   1      -8.436   5.551  69.114  1.00  0.00    -0.104 NA 
ATOM      8  O   MET A   1     -10.747   5.606  68.076  1.00  0.00    -0.219 OA 
ATOM      9  OXT MET A   1     -11.848   6.441  69.879  1.00  0.00    -0.384 OA 
ATOM     10  H1  MET A   1      -8.470   5.690  68.104  1.00  0.00     0.000 HD 
ATOM     11  H2  MET A   1      -8.590   4.571  69.352  1.00  0.00     0.000 HD 
ENDBRANCH   4   5
ENDBRANCH   3   4
ENDBRANCH   2   3
TORSDOF 3
ENDMDL
MODEL      254
REMARK 921   NORMALIZED FREE ENERGY PREDICTED BY IDOCK:   -1.43 KCAL/MOL
REMARK 922        TOTAL FREE ENERGY PREDICTED BY IDOCK:   -1.74 KCAL/MOL
REMARK 923 INTER-LIGAND FREE ENERGY PREDICTED BY IDOCK:   -1.66 KCAL/MOL
REMARK 924 INTRA-LIGAND FREE ENERGY PREDICTED BY IDOCK:   -0.08 KCAL/MOL
REMARK 927      BINDING AFFINITY PREDICTED BY RF-SCORE:    0.00 PKD
ROOT
ATOM      1  CE  MET A   1     -10.041   8.837  66.836  1.00  0.00    -0.278 C  
ATOM      2  SD  MET A   1      -9.056  10.225  67.448  1.00  0.00    -0.137 SA 
ENDROOT
BRANCH   2   3
ATOM      3  CG  MET A   1      -8.055   9.341  68.688  1.00  0.00    -0.105 C  
BRANCH   3   4
ATOM      4  CB  MET A   1      -8.672   9.526  70.074  1.00  0.00    -0.242 C  
BRANCH   4   5
ATOM      5  CA  MET A   1      -8.205   8.471  71.085  1.00  0.00    -0.144 C  
ATOM      6  C   MET A   1      -9.329   7.455  71.378  1.00  0.00    -0.142 C  
ATOM      7  N   MET A   1      -7.772   9.060  72.387  1.00  0.00    -0.284 NA 
ATOM      8  O   MET A   1      -9.286   7.049  72.676  1.00  0.00    -0.138 OA 
ATOM      9  OXT MET A   1     -10.138   7.030  70.571  1.00  0.00    -0.190 OA 
ATOM     10  H1  MET A   1      -7.461   8.359  73.060  1.00  0.00     0.000 HD 
ATOM     11  H2  MET A   1      -8.508   9.644  72.785  1.00  0.00     0.000 HD 
ENDBRANCH   4   5
ENDBRANCH   3   4
ENDBRANCH   2   3
TORSDOF 3
ENDMDL
MODEL      255
REMARK 921   NORMALIZED FREE ENERGY PREDICTED BY IDOCK:   -1.42 KCAL/MOL
REMARK 922        TOTAL FREE ENERGY PREDICTED BY IDOCK:   -1.73 KCAL/MOL
REMARK 923 INTER-LIGAND FREE ENERGY PREDICTED BY IDOCK:   -1.65 KCAL/MOL
REMARK 924 INTRA-LIGAND FREE ENERGY PREDICTED BY IDOCK:   -0.08 KCAL/MOL
REMARK 927      BINDING AFFINITY PREDICTED BY RF-SCORE:    0.00 PKD
ROOT
ATOM      1  CE  MET A   1      -8.905   8.842  67.514  1.00  0.00    -0.134 C  
ATOM      2  SD  MET A   1      -8.837  10.282  66.423  1.00  0.00    -0.147 SA 
ENDROOT
BRANCH   2   3
ATOM      3  CG  MET A   1      -8.983  11.598  67.675  1.00  0.00    -0.166 C  
BRANCH   3   4
ATOM      4  CB  MET A   1      -8.707  12.956  67.030  1.00  0.00    -0.195 C  
BRANCH   4   5
ATOM      5  CA  MET A   1      -7.610  13.751  67.750  1.00  0.00    -0.169 C  
ATOM      6  C   MET A   1      -6.267  12.991  67.715  1.00  0.00    -0.149 C  
ATOM      7  N   MET A   1      -7.936  14.033  69.180  1.00  0.00    -0.339 NA 
ATOM      8  O   MET A   1      -5.565  13.199  68.862  1.00  0.00    -0.070 OA 
ATOM      9  OXT MET A   1      -5.850  12.318  66.787  1.00  0.00    -0.283 OA 
ATOM     10  H1  MET A   1      -7.207  14.562  69.659  1.00  0.00     0.000 HD 
ATOM     11  H2  MET A   1      -8.149  13.171  69.682  1.00  0.00     0.000 HD 
ENDBRANCH   4   5
ENDBRANCH   3   4
ENDBRANCH   2   3
TORSDOF 3
ENDMDL
MODEL      256
REMARK 921   NORMALIZED FREE ENERGY PREDICTED BY IDOCK:   -1.42 KCAL/MOL
REMARK 922        TOTAL FREE ENERGY PREDICTED BY IDOCK:   -1.73 KCAL/MOL
REMARK 923 INTER-LIGAND FREE ENERGY PREDICTED BY IDOCK:   -1.56 KCAL/MOL
REMARK 924 INTRA-LIGAND FREE ENERGY PREDICTED BY IDOCK:   -0.17 KCAL/MOL
REMARK 927      BINDING AFFINITY PREDICTED BY RF-SCORE:    0.00 PKD
ROOT
ATOM      1  CE  MET A   1      -8.331   5.045  66.508  1.00  0.00    -0.107 C  
ATOM      2  SD  MET A   1     -10.095   5.284  66.830  1.00  0.00    -0.252 SA 
ENDROOT
BRANCH   2   3
ATOM      3  CG  MET A   1     -10.008   6.849  67.759  1.00  0.00    -0.148 C  
BRANCH   3   4
ATOM      4  CB  MET A   1     -10.516   7.995  66.885  1.00  0.00    -0.387 C  
BRANCH   4   5
ATOM      5  CA  MET A   1      -9.667   9.267  67.008  1.00  0.00    -0.185 C  
ATOM      6  C   MET A   1      -8.342   9.119  66.232  1.00  0.00    -0.119 C  
ATOM      7  N   MET A   1      -9.332   9.611  68.422  1.00  0.00    -0.133 NA 
ATOM      8  O   MET A   1      -7.332   9.768  66.874  1.00  0.00    -0.090 OA 
ATOM      9  OXT MET A   1      -8.194   8.537  65.171  1.00  0.00    -0.135 OA 
ATOM     10  H1  MET A   1      -8.768  10.457  68.504  1.00  0.00     0.000 HD 
ATOM     11  H2  MET A   1      -8.881   8.826  68.891  1.00  0.00     0.000 HD 
ENDBRANCH   4   5
ENDBRANCH   3   4
ENDBRANCH   2   3
TORSDOF 3
ENDMDL
MODEL      257
REMARK 921   NORMALIZED FREE ENERGY PREDICTED BY IDOCK:   -1.40 KCAL/MOL
REMARK 922        TOTAL FREE ENERGY PREDICTED BY IDOCK:   -1.71 KCAL/MOL
REMARK 923 INTER-LIGAND FREE ENERGY PREDICTED BY IDOCK:   -1.65 KCAL/MOL
REMARK 924 INTRA-LIGAND FREE ENERGY PREDICTED BY IDOCK:   -0.06 KCAL/MOL
REMARK 927      BINDING AFFINITY PREDICTED BY RF-SCORE:    0.00 PKD
ROOT
ATOM      1  CE  MET A   1     -10.255  19.013  69.593  1.00  0.00     0.501 C  
ATOM      2  SD  MET A   1     -10.406  17.329  68.949  1.00  0.00    -0.327 SA 
ENDROOT
BRANCH   2   3
ATOM      3  CG  MET A   1      -9.674  17.587  67.300  1.00  0.00    -0.276 C  
BRANCH   3   4
ATOM      4  CB  MET A   1      -8.278  18.192  67.446  1.00  0.00    -0.236 C  
BRANCH   4   5
ATOM      5  CA  MET A   1      -7.739  18.782  66.136  1.00  0.00    -0.247 C  
ATOM      6  C   MET A   1      -6.206  18.623  66.053  1.00  0.00    -0.201 C  
ATOM      7  N   MET A   1      -8.057  20.231  65.972  1.00  0.00    -0.545 NA 
ATOM      8  O   MET A   1      -5.645  19.689  65.418  1.00  0.00    -0.159 OA 
ATOM      9  OXT MET A   1      -5.561  17.672  66.459  1.00  0.00    -0.155 OA 
ATOM     10  H1  MET A   1      -7.698  20.623  65.101  1.00  0.00     0.000 HD 
ATOM     11  H2  MET A   1      -7.729  20.769  66.775  1.00  0.00     0.000 HD 
ENDBRANCH   4   5
ENDBRANCH   3   4
ENDBRANCH   2   3
TORSDOF 3
ENDMDL
MODEL      258
REMARK 921   NORMALIZED FREE ENERGY PREDICTED BY IDOCK:   -1.39 KCAL/MOL
REMARK 922        TOTAL FREE ENERGY PREDICTED BY IDOCK:   -1.70 KCAL/MOL
REMARK 923 INTER-LIGAND FREE ENERGY PREDICTED BY IDOCK:   -1.66 KCAL/MOL
REMARK 924 INTRA-LIGAND FREE ENERGY PREDICTED BY IDOCK:   -0.04 KCAL/MOL
REMARK 927      BINDING AFFINITY PREDICTED BY RF-SCORE:    0.00 PKD
ROOT
ATOM      1  CE  MET A   1      -7.445  10.457  65.079  1.00  0.00    -0.079 C  
ATOM      2  SD  MET A   1      -6.593   9.806  66.537  1.00  0.00    -0.073 SA 
ENDROOT
BRANCH   2   3
ATOM      3  CG  MET A   1      -7.377   8.164  66.617  1.00  0.00    -0.082 C  
BRANCH   3   4
ATOM      4  CB  MET A   1      -8.567   8.207  67.575  1.00  0.00    -0.129 C  
BRANCH   4   5
ATOM      5  CA  MET A   1      -9.814   8.851  66.956  1.00  0.00    -0.214 C  
ATOM      6  C   MET A   1     -10.217  10.124  67.730  1.00  0.00    -0.191 C  
ATOM      7  N   MET A   1     -10.995   7.938  66.935  1.00  0.00    -0.401 NA 
ATOM      8  O   MET A   1     -11.571  10.264  67.758  1.00  0.00    -0.331 OA 
ATOM      9  OXT MET A   1      -9.451  10.931  68.231  1.00  0.00    -0.156 OA 
ATOM     10  H1  MET A   1     -11.825   8.366  66.523  1.00  0.00     0.000 HD 
ATOM     11  H2  MET A   1     -11.196   7.581  67.870  1.00  0.00     0.000 HD 
ENDBRANCH   4   5
ENDBRANCH   3   4
ENDBRANCH   2   3
TORSDOF 3
ENDMDL
MODEL      259
REMARK 921   NORMALIZED FREE ENERGY PREDICTED BY IDOCK:   -1.38 KCAL/MOL
REMARK 922        TOTAL FREE ENERGY PREDICTED BY IDOCK:   -1.68 KCAL/MOL
REMARK 923 INTER-LIGAND FREE ENERGY PREDICTED BY IDOCK:   -1.57 KCAL/MOL
REMARK 924 INTRA-LIGAND FREE ENERGY PREDICTED BY IDOCK:   -0.11 KCAL/MOL
REMARK 927      BINDING AFFINITY PREDICTED BY RF-SCORE:    0.00 PKD
ROOT
ATOM      1  CE  MET A   1      -9.203   8.418  69.393  1.00  0.00    -0.154 C  
ATOM      2  SD  MET A   1     -10.453   8.446  70.699  1.00  0.00    -0.205 SA 
ENDROOT
BRANCH   2   3
ATOM      3  CG  MET A   1      -9.374   8.142  72.135  1.00  0.00    -0.206 C  
BRANCH   3   4
ATOM      4  CB  MET A   1      -9.882   6.928  72.913  1.00  0.00    -0.195 C  
BRANCH   4   5
ATOM      5  CA  MET A   1      -9.647   5.602  72.177  1.00  0.00    -0.149 C  
ATOM      6  C   MET A   1     -10.197   4.415  72.996  1.00  0.00    -0.168 C  
ATOM      7  N   MET A   1      -8.204   5.335  71.900  1.00  0.00    -0.116 NA 
ATOM      8  O   MET A   1      -9.413   3.314  72.837  1.00  0.00    -0.091 OA 
ATOM      9  OXT MET A   1     -11.210   4.421  73.675  1.00  0.00    -0.287 OA 
ATOM     10  H1  MET A   1      -8.048   4.453  71.411  1.00  0.00     0.000 HD 
ATOM     11  H2  MET A   1      -7.655   5.377  72.759  1.00  0.00     0.000 HD 
ENDBRANCH   4   5
ENDBRANCH   3   4
ENDBRANCH   2   3
TORSDOF 3
ENDMDL
MODEL      260
REMARK 921   NORMALIZED FREE ENERGY PREDICTED BY IDOCK:   -1.37 KCAL/MOL
REMARK 922        TOTAL FREE ENERGY PREDICTED BY IDOCK:   -1.66 KCAL/MOL
REMARK 923 INTER-LIGAND FREE ENERGY PREDICTED BY IDOCK:   -1.88 KCAL/MOL
REMARK 924 INTRA-LIGAND FREE ENERGY PREDICTED BY IDOCK:    0.21 KCAL/MOL
REMARK 927      BINDING AFFINITY PREDICTED BY RF-SCORE:    0.00 PKD
ROOT
ATOM      1  CE  MET A   1      -6.987   1.630  66.168  1.00  0.00    -0.046 C  
ATOM      2  SD  MET A   1      -8.120   1.467  67.568  1.00  0.00    -0.062 SA 
ENDROOT
BRANCH   2   3
ATOM      3  CG  MET A   1      -9.132   2.957  67.293  1.00  0.00    -0.174 C  
BRANCH   3   4
ATOM      4  CB  MET A   1      -9.374   3.146  65.795  1.00  0.00    -0.106 C  
BRANCH   4   5
ATOM      5  CA  MET A   1      -9.853   4.559  65.437  1.00  0.00    -0.191 C  
ATOM      6  C   MET A   1      -9.091   5.621  66.257  1.00  0.00    -0.148 C  
ATOM      7  N   MET A   1     -11.313   4.759  65.677  1.00  0.00    -0.884 NA 
ATOM      8  O   MET A   1      -9.903   6.669  66.562  1.00  0.00    -0.166 OA 
ATOM      9  OXT MET A   1      -7.914   5.572  66.575  1.00  0.00    -0.100 OA 
ATOM     10  H1  MET A   1     -11.632   5.699  65.439  1.00  0.00     0.000 HD 
ATOM     11  H2  MET A   1     -11.560   4.524  66.638  1.00  0.00     0.000 HD 
ENDBRANCH   4   5
ENDBRANCH   3   4
ENDBRANCH   2   3
TORSDOF 3
ENDMDL
MODEL      261
REMARK 921   NORMALIZED FREE ENERGY PREDICTED BY IDOCK:   -1.32 KCAL/MOL
REMARK 922        TOTAL FREE ENERGY PREDICTED BY IDOCK:   -1.62 KCAL/MOL
REMARK 923 INTER-LIGAND FREE ENERGY PREDICTED BY IDOCK:   -1.54 KCAL/MOL
REMARK 924 INTRA-LIGAND FREE ENERGY PREDICTED BY IDOCK:   -0.08 KCAL/MOL
REMARK 927      BINDING AFFINITY PREDICTED BY RF-SCORE:    0.00 PKD
ROOT
ATOM      1  CE  MET A   1      -9.093   1.891  67.375  1.00  0.00    -0.134 C  
ATOM      2  SD  MET A   1      -8.870   2.102  69.158  1.00  0.00    -0.105 SA 
ENDROOT
BRANCH   2   3
ATOM      3  CG  MET A   1      -8.148   3.775  69.161  1.00  0.00    -0.057 C  
BRANCH   3   4
ATOM      4  CB  MET A   1      -9.061   4.728  69.931  1.00  0.00    -0.155 C  
BRANCH   4   5
ATOM      5  CA  MET A   1      -9.359   6.024  69.167  1.00  0.00    -0.125 C  
ATOM      6  C   MET A   1     -10.870   6.340  69.190  1.00  0.00    -0.340 C  
ATOM      7  N   MET A   1      -8.926   5.974  67.739  1.00  0.00    -0.113 NA 
ATOM      8  O   MET A   1     -11.259   6.921  68.022  1.00  0.00    -0.133 OA 
ATOM      9  OXT MET A   1     -11.629   6.141  70.123  1.00  0.00    -0.375 OA 
ATOM     10  H1  MET A   1      -9.124   6.836  67.230  1.00  0.00     0.000 HD 
ATOM     11  H2  MET A   1      -9.334   5.169  67.263  1.00  0.00     0.000 HD 
ENDBRANCH   4   5
ENDBRANCH   3   4
ENDBRANCH   2   3
TORSDOF 3
ENDMDL
MODEL      262
REMARK 921   NORMALIZED FREE ENERGY PREDICTED BY IDOCK:   -1.32 KCAL/MOL
REMARK 922        TOTAL FREE ENERGY PREDICTED BY IDOCK:   -1.61 KCAL/MOL
REMARK 923 INTER-LIGAND FREE ENERGY PREDICTED BY IDOCK:   -1.45 KCAL/MOL
REMARK 924 INTRA-LIGAND FREE ENERGY PREDICTED BY IDOCK:   -0.16 KCAL/MOL
REMARK 927      BINDING AFFINITY PREDICTED BY RF-SCORE:    0.00 PKD
ROOT
ATOM      1  CE  MET A   1      -9.299  11.865  68.585  1.00  0.00    -0.069 C  
ATOM      2  SD  MET A   1     -11.064  11.948  68.971  1.00  0.00    -0.239 SA 
ENDROOT
BRANCH   2   3
ATOM      3  CG  MET A   1     -11.535  10.245  68.527  1.00  0.00    -0.100 C  
BRANCH   3   4
ATOM      4  CB  MET A   1     -10.543   9.259  69.145  1.00  0.00    -0.228 C  
BRANCH   4   5
ATOM      5  CA  MET A   1     -10.080   8.176  68.161  1.00  0.00    -0.198 C  
ATOM      6  C   MET A   1      -8.539   8.136  68.074  1.00  0.00    -0.129 C  
ATOM      7  N   MET A   1     -10.609   8.377  66.779  1.00  0.00    -0.281 NA 
ATOM      8  O   MET A   1      -8.135   7.829  66.812  1.00  0.00    -0.111 OA 
ATOM      9  OXT MET A   1      -7.765   8.316  68.999  1.00  0.00    -0.094 OA 
ATOM     10  H1  MET A   1     -10.301   7.657  66.125  1.00  0.00     0.000 HD 
ATOM     11  H2  MET A   1     -10.376   9.307  66.432  1.00  0.00     0.000 HD 
ENDBRANCH   4   5
ENDBRANCH   3   4
ENDBRANCH   2   3
TORSDOF 3
ENDMDL
MODEL      263
REMARK 921   NORMALIZED FREE ENERGY PREDICTED BY IDOCK:   -1.31 KCAL/MOL
REMARK 922        TOTAL FREE ENERGY PREDICTED BY IDOCK:   -1.60 KCAL/MOL
REMARK 923 INTER-LIGAND FREE ENERGY PREDICTED BY IDOCK:   -1.56 KCAL/MOL
REMARK 924 INTRA-LIGAND FREE ENERGY PREDICTED BY IDOCK:   -0.04 KCAL/MOL
REMARK 927      BINDING AFFINITY PREDICTED BY RF-SCORE:    0.00 PKD
ROOT
ATOM      1  CE  MET A   1      -6.899   4.742  70.003  1.00  0.00    -0.044 C  
ATOM      2  SD  MET A   1      -6.982   6.254  70.993  1.00  0.00    -0.070 SA 
ENDROOT
BRANCH   2   3
ATOM      3  CG  MET A   1      -8.702   6.737  70.634  1.00  0.00    -0.143 C  
BRANCH   3   4
ATOM      4  CB  MET A   1      -8.716   8.065  69.877  1.00  0.00    -0.139 C  
BRANCH   4   5
ATOM      5  CA  MET A   1      -9.982   8.262  69.034  1.00  0.00    -0.189 C  
ATOM      6  C   MET A   1     -10.039   9.692  68.455  1.00  0.00    -0.175 C  
ATOM      7  N   MET A   1     -11.240   8.033  69.805  1.00  0.00    -0.451 NA 
ATOM      8  O   MET A   1     -11.323  10.140  68.400  1.00  0.00    -0.219 OA 
ATOM      9  OXT MET A   1      -9.087  10.344  68.061  1.00  0.00    -0.134 OA 
ATOM     10  H1  MET A   1     -12.082   8.164  69.244  1.00  0.00     0.000 HD 
ATOM     11  H2  MET A   1     -11.266   8.615  70.641  1.00  0.00     0.000 HD 
ENDBRANCH   4   5
ENDBRANCH   3   4
ENDBRANCH   2   3
TORSDOF 3
ENDMDL
MODEL      264
REMARK 921   NORMALIZED FREE ENERGY PREDICTED BY IDOCK:   -1.31 KCAL/MOL
REMARK 922        TOTAL FREE ENERGY PREDICTED BY IDOCK:   -1.60 KCAL/MOL
REMARK 923 INTER-LIGAND FREE ENERGY PREDICTED BY IDOCK:   -1.46 KCAL/MOL
REMARK 924 INTRA-LIGAND FREE ENERGY PREDICTED BY IDOCK:   -0.15 KCAL/MOL
REMARK 927      BINDING AFFINITY PREDICTED BY RF-SCORE:    0.00 PKD
ROOT
ATOM      1  CE  MET A   1      -6.270   5.175  70.119  1.00  0.00    -0.022 C  
ATOM      2  SD  MET A   1      -7.761   6.138  69.773  1.00  0.00    -0.099 SA 
ENDROOT
BRANCH   2   3
ATOM      3  CG  MET A   1      -8.418   5.161  68.382  1.00  0.00    -0.095 C  
BRANCH   3   4
ATOM      4  CB  MET A   1      -7.931   5.754  67.060  1.00  0.00    -0.102 C  
BRANCH   4   5
ATOM      5  CA  MET A   1      -9.056   6.403  66.243  1.00  0.00    -0.151 C  
ATOM      6  C   MET A   1      -9.319   7.847  66.721  1.00  0.00    -0.184 C  
ATOM      7  N   MET A   1     -10.345   5.654  66.324  1.00  0.00    -0.418 NA 
ATOM      8  O   MET A   1     -10.642   8.152  66.629  1.00  0.00    -0.272 OA 
ATOM      9  OXT MET A   1      -8.475   8.640  67.102  1.00  0.00    -0.113 OA 
ATOM     10  H1  MET A   1     -11.093   6.085  65.781  1.00  0.00     0.000 HD 
ATOM     11  H2  MET A   1     -10.630   5.523  67.295  1.00  0.00     0.000 HD 
ENDBRANCH   4   5
ENDBRANCH   3   4
ENDBRANCH   2   3
TORSDOF 3
ENDMDL
MODEL      265
REMARK 921   NORMALIZED FREE ENERGY PREDICTED BY IDOCK:   -1.27 KCAL/MOL
REMARK 922        TOTAL FREE ENERGY PREDICTED BY IDOCK:   -1.56 KCAL/MOL
REMARK 923 INTER-LIGAND FREE ENERGY PREDICTED BY IDOCK:   -1.36 KCAL/MOL
REMARK 924 INTRA-LIGAND FREE ENERGY PREDICTED BY IDOCK:   -0.20 KCAL/MOL
REMARK 927      BINDING AFFINITY PREDICTED BY RF-SCORE:    0.00 PKD
ROOT
ATOM      1  CE  MET A   1      -7.661   3.303  66.444  1.00  0.00    -0.077 C  
ATOM      2  SD  MET A   1      -8.126   2.536  68.015  1.00  0.00    -0.059 SA 
ENDROOT
BRANCH   2   3
ATOM      3  CG  MET A   1      -9.493   3.645  68.482  1.00  0.00    -0.146 C  
BRANCH   3   4
ATOM      4  CB  MET A   1      -9.792   4.608  67.333  1.00  0.00    -0.207 C  
BRANCH   4   5
ATOM      5  CA  MET A   1     -10.112   6.031  67.808  1.00  0.00    -0.156 C  
ATOM      6  C   MET A   1      -8.822   6.783  68.199  1.00  0.00    -0.120 C  
ATOM      7  N   MET A   1     -11.032   6.062  68.984  1.00  0.00    -0.344 NA 
ATOM      8  O   MET A   1      -9.050   7.618  69.248  1.00  0.00    -0.146 OA 
ATOM      9  OXT MET A   1      -7.741   6.688  67.642  1.00  0.00    -0.103 OA 
ATOM     10  H1  MET A   1     -11.245   7.008  69.300  1.00  0.00     0.000 HD 
ATOM     11  H2  MET A   1     -10.663   5.497  69.749  1.00  0.00     0.000 HD 
ENDBRANCH   4   5
ENDBRANCH   3   4
ENDBRANCH   2   3
TORSDOF 3
ENDMDL
MODEL      266
REMARK 921   NORMALIZED FREE ENERGY PREDICTED BY IDOCK:   -1.18 KCAL/MOL
REMARK 922        TOTAL FREE ENERGY PREDICTED BY IDOCK:   -1.44 KCAL/MOL
REMARK 923 INTER-LIGAND FREE ENERGY PREDICTED BY IDOCK:   -1.75 KCAL/MOL
REMARK 924 INTRA-LIGAND FREE ENERGY PREDICTED BY IDOCK:    0.31 KCAL/MOL
REMARK 927      BINDING AFFINITY PREDICTED BY RF-SCORE:    0.00 PKD
ROOT
ATOM      1  CE  MET A   1     -11.254  10.290  69.848  1.00  0.00    -0.299 C  
ATOM      2  SD  MET A   1     -10.381   9.381  68.550  1.00  0.00    -0.213 SA 
ENDROOT
BRANCH   2   3
ATOM      3  CG  MET A   1     -10.542  10.590  67.197  1.00  0.00    -0.264 C  
BRANCH   3   4
ATOM      4  CB  MET A   1      -9.317  11.504  67.175  1.00  0.00    -0.177 C  
BRANCH   4   5
ATOM      5  CA  MET A   1      -8.190  10.978  66.276  1.00  0.00    -0.164 C  
ATOM      6  C   MET A   1      -8.761  10.382  64.972  1.00  0.00    -0.182 C  
ATOM      7  N   MET A   1      -7.362   9.924  66.933  1.00  0.00    -0.091 NA 
ATOM      8  O   MET A   1      -8.022   9.315  64.564  1.00  0.00    -0.115 OA 
ATOM      9  OXT MET A   1      -9.721  10.807  64.350  1.00  0.00    -0.246 OA 
ATOM     10  H1  MET A   1      -6.613   9.574  66.336  1.00  0.00     0.000 HD 
ATOM     11  H2  MET A   1      -7.946   9.159  67.270  1.00  0.00     0.000 HD 
ENDBRANCH   4   5
ENDBRANCH   3   4
ENDBRANCH   2   3
TORSDOF 3
ENDMDL
MODEL      267
REMARK 921   NORMALIZED FREE ENERGY PREDICTED BY IDOCK:   -1.16 KCAL/MOL
REMARK 922        TOTAL FREE ENERGY PREDICTED BY IDOCK:   -1.42 KCAL/MOL
REMARK 923 INTER-LIGAND FREE ENERGY PREDICTED BY IDOCK:   -1.28 KCAL/MOL
REMARK 924 INTRA-LIGAND FREE ENERGY PREDICTED BY IDOCK:   -0.14 KCAL/MOL
REMARK 927      BINDING AFFINITY PREDICTED BY RF-SCORE:    0.00 PKD
ROOT
ATOM      1  CE  MET A   1      -8.126   6.327  63.635  1.00  0.00    -0.048 C  
ATOM      2  SD  MET A   1      -7.330   7.326  64.915  1.00  0.00    -0.086 SA 
ENDROOT
BRANCH   2   3
ATOM      3  CG  MET A   1      -7.715   6.292  66.365  1.00  0.00    -0.099 C  
BRANCH   3   4
ATOM      4  CB  MET A   1      -9.217   6.014  66.415  1.00  0.00    -0.163 C  
BRANCH   4   5
ATOM      5  CA  MET A   1      -9.893   6.586  67.668  1.00  0.00    -0.125 C  
ATOM      6  C   MET A   1      -9.972   8.126  67.595  1.00  0.00    -0.185 C  
ATOM      7  N   MET A   1      -9.183   6.226  68.931  1.00  0.00    -0.124 NA 
ATOM      8  O   MET A   1      -9.821   8.676  68.831  1.00  0.00    -0.170 OA 
ATOM      9  OXT MET A   1     -10.174   8.786  66.590  1.00  0.00    -0.277 OA 
ATOM     10  H1  MET A   1      -9.633   6.606  69.765  1.00  0.00     0.000 HD 
ATOM     11  H2  MET A   1      -8.202   6.502  68.889  1.00  0.00     0.000 HD 
ENDBRANCH   4   5
ENDBRANCH   3   4
ENDBRANCH   2   3
TORSDOF 3
ENDMDL
MODEL      268
REMARK 921   NORMALIZED FREE ENERGY PREDICTED BY IDOCK:   -1.15 KCAL/MOL
REMARK 922        TOTAL FREE ENERGY PREDICTED BY IDOCK:   -1.42 KCAL/MOL
REMARK 923 INTER-LIGAND FREE ENERGY PREDICTED BY IDOCK:   -1.29 KCAL/MOL
REMARK 924 INTRA-LIGAND FREE ENERGY PREDICTED BY IDOCK:   -0.13 KCAL/MOL
REMARK 927      BINDING AFFINITY PREDICTED BY RF-SCORE:    0.00 PKD
ROOT
ATOM      1  CE  MET A   1      -8.311   4.210  70.043  1.00  0.00    -0.061 C  
ATOM      2  SD  MET A   1      -8.549   5.999  69.925  1.00  0.00    -0.132 SA 
ENDROOT
BRANCH   2   3
ATOM      3  CG  MET A   1      -7.795   6.282  68.291  1.00  0.00    -0.105 C  
BRANCH   3   4
ATOM      4  CB  MET A   1      -8.884   6.301  67.218  1.00  0.00    -0.107 C  
BRANCH   4   5
ATOM      5  CA  MET A   1      -8.974   4.988  66.429  1.00  0.00    -0.123 C  
ATOM      6  C   MET A   1      -8.567   5.204  64.956  1.00  0.00    -0.151 C  
ATOM      7  N   MET A   1     -10.343   4.391  66.441  1.00  0.00    -0.374 NA 
ATOM      8  O   MET A   1      -9.301   4.408  64.131  1.00  0.00    -0.153 OA 
ATOM      9  OXT MET A   1      -7.690   5.952  64.557  1.00  0.00    -0.084 OA 
ATOM     10  H1  MET A   1     -10.402   3.518  65.916  1.00  0.00     0.000 HD 
ATOM     11  H2  MET A   1     -11.035   5.063  66.110  1.00  0.00     0.000 HD 
ENDBRANCH   4   5
ENDBRANCH   3   4
ENDBRANCH   2   3
TORSDOF 3
ENDMDL
MODEL      269
REMARK 921   NORMALIZED FREE ENERGY PREDICTED BY IDOCK:   -1.15 KCAL/MOL
REMARK 922        TOTAL FREE ENERGY PREDICTED BY IDOCK:   -1.41 KCAL/MOL
REMARK 923 INTER-LIGAND FREE ENERGY PREDICTED BY IDOCK:   -1.27 KCAL/MOL
REMARK 924 INTRA-LIGAND FREE ENERGY PREDICTED BY IDOCK:   -0.14 KCAL/MOL
REMARK 927      BINDING AFFINITY PREDICTED BY RF-SCORE:    0.00 PKD
ROOT
ATOM      1  CE  MET A   1      -7.969   8.768  71.264  1.00  0.00    -0.139 C  
ATOM      2  SD  MET A   1      -7.901   6.966  71.406  1.00  0.00    -0.100 SA 
ENDROOT
BRANCH   2   3
ATOM      3  CG  MET A   1      -8.652   6.525  69.805  1.00  0.00    -0.136 C  
BRANCH   3   4
ATOM      4  CB  MET A   1      -9.882   5.647  70.038  1.00  0.00    -0.247 C  
BRANCH   4   5
ATOM      5  CA  MET A   1      -9.631   4.166  69.725  1.00  0.00    -0.211 C  
ATOM      6  C   MET A   1      -9.414   3.360  71.022  1.00  0.00    -0.157 C  
ATOM      7  N   MET A   1      -8.442   3.947  68.848  1.00  0.00    -0.076 NA 
ATOM      8  O   MET A   1      -8.506   2.365  70.827  1.00  0.00    -0.049 OA 
ATOM      9  OXT MET A   1      -9.988   3.542  72.083  1.00  0.00    -0.160 OA 
ATOM     10  H1  MET A   1      -8.275   2.962  68.640  1.00  0.00     0.000 HD 
ATOM     11  H2  MET A   1      -7.610   4.380  69.249  1.00  0.00     0.000 HD 
ENDBRANCH   4   5
ENDBRANCH   3   4
ENDBRANCH   2   3
TORSDOF 3
ENDMDL
MODEL      270
REMARK 921   NORMALIZED FREE ENERGY PREDICTED BY IDOCK:   -1.04 KCAL/MOL
REMARK 922        TOTAL FREE ENERGY PREDICTED BY IDOCK:   -1.28 KCAL/MOL
REMARK 923 INTER-LIGAND FREE ENERGY PREDICTED BY IDOCK:   -1.12 KCAL/MOL
REMARK 924 INTRA-LIGAND FREE ENERGY PREDICTED BY IDOCK:   -0.16 KCAL/MOL
REMARK 927      BINDING AFFINITY PREDICTED BY RF-SCORE:    0.00 PKD
ROOT
ATOM      1  CE  MET A   1      -5.725   9.539  71.438  1.00  0.00    -0.074 C  
ATOM      2  SD  MET A   1      -6.316   8.317  72.634  1.00  0.00    -0.087 SA 
ENDROOT
BRANCH   2   3
ATOM      3  CG  MET A   1      -6.432   6.871  71.532  1.00  0.00    -0.042 C  
BRANCH   3   4
ATOM      4  CB  MET A   1      -7.838   6.277  71.607  1.00  0.00    -0.102 C  
BRANCH   4   5
ATOM      5  CA  MET A   1      -8.712   6.937  72.681  1.00  0.00    -0.120 C  
ATOM      6  C   MET A   1      -9.125   5.913  73.759  1.00  0.00    -0.127 C  
ATOM      7  N   MET A   1      -9.959   7.544  72.128  1.00  0.00    -0.173 NA 
ATOM      8  O   MET A   1     -10.380   6.174  74.217  1.00  0.00    -0.292 OA 
ATOM      9  OXT MET A   1      -8.433   5.005  74.187  1.00  0.00    -0.109 OA 
ATOM     10  H1  MET A   1     -10.541   7.984  72.842  1.00  0.00     0.000 HD 
ATOM     11  H2  MET A   1     -10.494   6.857  71.596  1.00  0.00     0.000 HD 
ENDBRANCH   4   5
ENDBRANCH   3   4
ENDBRANCH   2   3
TORSDOF 3
ENDMDL
MODEL      271
REMARK 921   NORMALIZED FREE ENERGY PREDICTED BY IDOCK:   -0.98 KCAL/MOL
REMARK 922        TOTAL FREE ENERGY PREDICTED BY IDOCK:   -1.22 KCAL/MOL
REMARK 923 INTER-LIGAND FREE ENERGY PREDICTED BY IDOCK:   -1.20 KCAL/MOL
REMARK 924 INTRA-LIGAND FREE ENERGY PREDICTED BY IDOCK:   -0.02 KCAL/MOL
REMARK 927      BINDING AFFINITY PREDICTED BY RF-SCORE:    0.00 PKD
ROOT
ATOM      1  CE  MET A   1      -8.767   4.909  72.965  1.00  0.00    -0.113 C  
ATOM      2  SD  MET A   1      -7.846   4.635  71.433  1.00  0.00    -0.089 SA 
ENDROOT
BRANCH   2   3
ATOM      3  CG  MET A   1      -6.322   5.542  71.849  1.00  0.00    -0.043 C  
BRANCH   3   4
ATOM      4  CB  MET A   1      -6.676   6.832  72.590  1.00  0.00    -0.063 C  
BRANCH   4   5
ATOM      5  CA  MET A   1      -7.437   7.837  71.716  1.00  0.00    -0.072 C  
ATOM      6  C   MET A   1      -6.467   8.853  71.076  1.00  0.00    -0.062 C  
ATOM      7  N   MET A   1      -8.468   8.607  72.473  1.00  0.00    -0.403 NA 
ATOM      8  O   MET A   1      -7.049  10.079  70.978  1.00  0.00    -0.325 OA 
ATOM      9  OXT MET A   1      -5.342   8.612  70.672  1.00  0.00    -0.027 OA 
ATOM     10  H1  MET A   1      -8.975   9.275  71.892  1.00  0.00     0.000 HD 
ATOM     11  H2  MET A   1      -8.056   9.068  73.284  1.00  0.00     0.000 HD 
ENDBRANCH   4   5
ENDBRANCH   3   4
ENDBRANCH   2   3
TORSDOF 3
ENDMDL
MODEL      272
REMARK 921   NORMALIZED FREE ENERGY PREDICTED BY IDOCK:   -0.97 KCAL/MOL
REMARK 922        TOTAL FREE ENERGY PREDICTED BY IDOCK:   -1.21 KCAL/MOL
REMARK 923 INTER-LIGAND FREE ENERGY PREDICTED BY IDOCK:   -1.10 KCAL/MOL
REMARK 924 INTRA-LIGAND FREE ENERGY PREDICTED BY IDOCK:   -0.11 KCAL/MOL
REMARK 927      BINDING AFFINITY PREDICTED BY RF-SCORE:    0.00 PKD
ROOT
ATOM      1  CE  MET A   1     -10.826  10.154  70.093  1.00  0.00    -0.311 C  
ATOM      2  SD  MET A   1      -9.117   9.579  69.947  1.00  0.00    -0.231 SA 
ENDROOT
BRANCH   2   3
ATOM      3  CG  MET A   1      -8.825   9.991  68.196  1.00  0.00    -0.122 C  
BRANCH   3   4
ATOM      4  CB  MET A   1      -8.624   8.707  67.391  1.00  0.00    -0.134 C  
BRANCH   4   5
ATOM      5  CA  MET A   1      -7.151   8.299  67.267  1.00  0.00    -0.079 C  
ATOM      6  C   MET A   1      -6.776   7.262  68.346  1.00  0.00    -0.054 C  
ATOM      7  N   MET A   1      -6.212   9.453  67.397  1.00  0.00    -0.060 NA 
ATOM      8  O   MET A   1      -5.494   7.445  68.767  1.00  0.00    -0.020 OA 
ATOM      9  OXT MET A   1      -7.494   6.368  68.762  1.00  0.00    -0.084 OA 
ATOM     10  H1  MET A   1      -5.232   9.182  67.315  1.00  0.00     0.000 HD 
ATOM     11  H2  MET A   1      -6.376   9.960  68.266  1.00  0.00     0.000 HD 
ENDBRANCH   4   5
ENDBRANCH   3   4
ENDBRANCH   2   3
TORSDOF 3
ENDMDL
MODEL      273
REMARK 921   NORMALIZED FREE ENERGY PREDICTED BY IDOCK:   -0.95 KCAL/MOL
REMARK 922        TOTAL FREE ENERGY PREDICTED BY IDOCK:   -1.18 KCAL/MOL
REMARK 923 INTER-LIGAND FREE ENERGY PREDICTED BY IDOCK:   -0.97 KCAL/MOL
REMARK 924 INTRA-LIGAND FREE ENERGY PREDICTED BY IDOCK:   -0.21 KCAL/MOL
REMARK 927      BINDING AFFINITY PREDICTED BY RF-SCORE:    0.00 PKD
ROOT
ATOM      1  CE  MET A   1      -7.770   9.100  71.039  1.00  0.00    -0.100 C  
ATOM      2  SD  MET A   1      -8.052   7.333  71.305  1.00  0.00    -0.102 SA 
ENDROOT
BRANCH   2   3
ATOM      3  CG  MET A   1      -9.149   7.002  69.889  1.00  0.00    -0.141 C  
BRANCH   3   4
ATOM      4  CB  MET A   1      -8.310   6.646  68.661  1.00  0.00    -0.123 C  
BRANCH   4   5
ATOM      5  CA  MET A   1      -8.516   7.616  67.491  1.00  0.00    -0.116 C  
ATOM      6  C   MET A   1      -7.337   8.606  67.384  1.00  0.00    -0.089 C  
ATOM      7  N   MET A   1      -9.772   8.415  67.608  1.00  0.00    -0.153 NA 
ATOM      8  O   MET A   1      -7.768   9.827  66.968  1.00  0.00    -0.095 OA 
ATOM      9  OXT MET A   1      -6.165   8.349  67.602  1.00  0.00    -0.050 OA 
ATOM     10  H1  MET A   1      -9.909   9.060  66.829  1.00  0.00     0.000 HD 
ATOM     11  H2  MET A   1      -9.808   8.908  68.500  1.00  0.00     0.000 HD 
ENDBRANCH   4   5
ENDBRANCH   3   4
ENDBRANCH   2   3
TORSDOF 3
ENDMDL
MODEL      274
REMARK 921   NORMALIZED FREE ENERGY PREDICTED BY IDOCK:   -0.92 KCAL/MOL
REMARK 922        TOTAL FREE ENERGY PREDICTED BY IDOCK:   -1.14 KCAL/MOL
REMARK 923 INTER-LIGAND FREE ENERGY PREDICTED BY IDOCK:   -1.00 KCAL/MOL
REMARK 924 INTRA-LIGAND FREE ENERGY PREDICTED BY IDOCK:   -0.14 KCAL/MOL
REMARK 927      BINDING AFFINITY PREDICTED BY RF-SCORE:    0.00 PKD
ROOT
ATOM      1  CE  MET A   1      -8.129  10.697  65.792  1.00  0.00    -0.158 C  
ATOM      2  SD  MET A   1      -6.387  10.254  65.582  1.00  0.00    -0.126 SA 
ENDROOT
BRANCH   2   3
ATOM      3  CG  MET A   1      -6.599   8.619  64.808  1.00  0.00    -0.066 C  
BRANCH   3   4
ATOM      4  CB  MET A   1      -7.951   8.030  65.209  1.00  0.00    -0.124 C  
BRANCH   4   5
ATOM      5  CA  MET A   1      -7.849   7.017  66.357  1.00  0.00    -0.106 C  
ATOM      6  C   MET A   1      -8.135   5.587  65.853  1.00  0.00    -0.110 C  
ATOM      7  N   MET A   1      -8.795   7.304  67.476  1.00  0.00    -0.120 NA 
ATOM      8  O   MET A   1      -8.783   4.861  66.805  1.00  0.00    -0.109 OA 
ATOM      9  OXT MET A   1      -7.808   5.129  64.771  1.00  0.00    -0.086 OA 
ATOM     10  H1  MET A   1      -8.728   6.631  68.239  1.00  0.00     0.000 HD 
ATOM     11  H2  MET A   1      -9.754   7.371  67.134  1.00  0.00     0.000 HD 
ENDBRANCH   4   5
ENDBRANCH   3   4
ENDBRANCH   2   3
TORSDOF 3
ENDMDL
MODEL      275
REMARK 921   NORMALIZED FREE ENERGY PREDICTED BY IDOCK:   -0.90 KCAL/MOL
REMARK 922        TOTAL FREE ENERGY PREDICTED BY IDOCK:   -1.12 KCAL/MOL
REMARK 923 INTER-LIGAND FREE ENERGY PREDICTED BY IDOCK:   -1.08 KCAL/MOL
REMARK 924 INTRA-LIGAND FREE ENERGY PREDICTED BY IDOCK:   -0.05 KCAL/MOL
REMARK 927      BINDING AFFINITY PREDICTED BY RF-SCORE:    0.00 PKD
ROOT
ATOM      1  CE  MET A   1      -5.787   9.400  71.426  1.00  0.00    -0.075 C  
ATOM      2  SD  MET A   1      -6.328   8.118  72.582  1.00  0.00    -0.084 SA 
ENDROOT
BRANCH   2   3
ATOM      3  CG  MET A   1      -6.705   6.795  71.387  1.00  0.00    -0.061 C  
BRANCH   3   4
ATOM      4  CB  MET A   1      -7.857   7.231  70.483  1.00  0.00    -0.099 C  
BRANCH   4   5
ATOM      5  CA  MET A   1      -8.406   6.091  69.616  1.00  0.00    -0.119 C  
ATOM      6  C   MET A   1      -9.926   5.927  69.821  1.00  0.00    -0.181 C  
ATOM      7  N   MET A   1      -7.763   4.775  69.906  1.00  0.00    -0.055 NA 
ATOM      8  O   MET A   1     -10.286   4.617  69.740  1.00  0.00    -0.182 OA 
ATOM      9  OXT MET A   1     -10.727   6.831  69.998  1.00  0.00    -0.221 OA 
ATOM     10  H1  MET A   1      -8.127   4.016  69.329  1.00  0.00     0.000 HD 
ATOM     11  H2  MET A   1      -7.835   4.545  70.897  1.00  0.00     0.000 HD 
ENDBRANCH   4   5
ENDBRANCH   3   4
ENDBRANCH   2   3
TORSDOF 3
ENDMDL
MODEL      276
REMARK 921   NORMALIZED FREE ENERGY PREDICTED BY IDOCK:   -0.89 KCAL/MOL
REMARK 922        TOTAL FREE ENERGY PREDICTED BY IDOCK:   -1.11 KCAL/MOL
REMARK 923 INTER-LIGAND FREE ENERGY PREDICTED BY IDOCK:   -1.07 KCAL/MOL
REMARK 924 INTRA-LIGAND FREE ENERGY PREDICTED BY IDOCK:   -0.04 KCAL/MOL
REMARK 927      BINDING AFFINITY PREDICTED BY RF-SCORE:    0.00 PKD
ROOT
ATOM      1  CE  MET A   1      -5.826   9.506  71.274  1.00  0.00    -0.075 C  
ATOM      2  SD  MET A   1      -7.134   8.341  71.723  1.00  0.00    -0.091 SA 
ENDROOT
BRANCH   2   3
ATOM      3  CG  MET A   1      -7.147   7.327  70.210  1.00  0.00    -0.065 C  
BRANCH   3   4
ATOM      4  CB  MET A   1      -8.520   7.413  69.544  1.00  0.00    -0.133 C  
BRANCH   4   5
ATOM      5  CA  MET A   1      -8.514   6.929  68.088  1.00  0.00    -0.124 C  
ATOM      6  C   MET A   1      -9.949   6.862  67.525  1.00  0.00    -0.149 C  
ATOM      7  N   MET A   1      -7.897   5.579  67.923  1.00  0.00    -0.096 NA 
ATOM      8  O   MET A   1     -10.082   5.819  66.662  1.00  0.00    -0.166 OA 
ATOM      9  OXT MET A   1     -10.853   7.643  67.774  1.00  0.00    -0.170 OA 
ATOM     10  H1  MET A   1      -7.893   5.257  66.955  1.00  0.00     0.000 HD 
ATOM     11  H2  MET A   1      -8.348   4.896  68.531  1.00  0.00     0.000 HD 
ENDBRANCH   4   5
ENDBRANCH   3   4
ENDBRANCH   2   3
TORSDOF 3
ENDMDL
MODEL      277
REMARK 921   NORMALIZED FREE ENERGY PREDICTED BY IDOCK:   -0.88 KCAL/MOL
REMARK 922        TOTAL FREE ENERGY PREDICTED BY IDOCK:   -1.09 KCAL/MOL
REMARK 923 INTER-LIGAND FREE ENERGY PREDICTED BY IDOCK:   -1.81 KCAL/MOL
REMARK 924 INTRA-LIGAND FREE ENERGY PREDICTED BY IDOCK:    0.72 KCAL/MOL
REMARK 927      BINDING AFFINITY PREDICTED BY RF-SCORE:    0.00 PKD
ROOT
ATOM      1  CE  MET A   1      -9.560   8.920  67.406  1.00  0.00    -0.157 C  
ATOM      2  SD  MET A   1     -10.868  10.085  66.956  1.00  0.00    -0.050 SA 
ENDROOT
BRANCH   2   3
ATOM      3  CG  MET A   1      -9.833  11.471  66.384  1.00  0.00    -0.205 C  
BRANCH   3   4
ATOM      4  CB  MET A   1     -10.713  12.689  66.104  1.00  0.00    -0.293 C  
BRANCH   4   5
ATOM      5  CA  MET A   1     -10.234  13.955  66.826  1.00  0.00    -0.268 C  
ATOM      6  C   MET A   1      -9.881  13.647  68.297  1.00  0.00    -0.232 C  
ATOM      7  N   MET A   1     -11.248  15.051  66.821  1.00  0.00    -0.339 NA 
ATOM      8  O   MET A   1     -10.197  14.700  69.100  1.00  0.00    -0.231 OA 
ATOM      9  OXT MET A   1      -9.359  12.625  68.710  1.00  0.00    -0.033 OA 
ATOM     10  H1  MET A   1     -10.930  15.893  67.302  1.00  0.00     0.000 HD 
ATOM     11  H2  MET A   1     -12.136  14.727  67.205  1.00  0.00     0.000 HD 
ENDBRANCH   4   5
ENDBRANCH   3   4
ENDBRANCH   2   3
TORSDOF 3
ENDMDL
MODEL      278
REMARK 921   NORMALIZED FREE ENERGY PREDICTED BY IDOCK:   -0.86 KCAL/MOL
REMARK 922        TOTAL FREE ENERGY PREDICTED BY IDOCK:   -1.07 KCAL/MOL
REMARK 923 INTER-LIGAND FREE ENERGY PREDICTED BY IDOCK:   -0.94 KCAL/MOL
REMARK 924 INTRA-LIGAND FREE ENERGY PREDICTED BY IDOCK:   -0.13 KCAL/MOL
REMARK 927      BINDING AFFINITY PREDICTED BY RF-SCORE:    0.00 PKD
ROOT
ATOM      1  CE  MET A   1      -6.947   7.383  70.977  1.00  0.00    -0.059 C  
ATOM      2  SD  MET A   1      -6.652   6.549  69.399  1.00  0.00    -0.046 SA 
ENDROOT
BRANCH   2   3
ATOM      3  CG  MET A   1      -6.351   8.011  68.354  1.00  0.00    -0.050 C  
BRANCH   3   4
ATOM      4  CB  MET A   1      -7.660   8.774  68.147  1.00  0.00    -0.097 C  
BRANCH   4   5
ATOM      5  CA  MET A   1      -8.425   8.325  66.896  1.00  0.00    -0.118 C  
ATOM      6  C   MET A   1      -9.637   7.449  67.278  1.00  0.00    -0.150 C  
ATOM      7  N   MET A   1      -7.582   7.544  65.942  1.00  0.00    -0.085 NA 
ATOM      8  O   MET A   1      -9.845   6.480  66.346  1.00  0.00    -0.145 OA 
ATOM      9  OXT MET A   1     -10.350   7.600  68.256  1.00  0.00    -0.194 OA 
ATOM     10  H1  MET A   1      -8.091   7.246  65.110  1.00  0.00     0.000 HD 
ATOM     11  H2  MET A   1      -7.148   6.748  66.409  1.00  0.00     0.000 HD 
ENDBRANCH   4   5
ENDBRANCH   3   4
ENDBRANCH   2   3
TORSDOF 3
ENDMDL
MODEL      279
REMARK 921   NORMALIZED FREE ENERGY PREDICTED BY IDOCK:   -0.62 KCAL/MOL
REMARK 922        TOTAL FREE ENERGY PREDICTED BY IDOCK:   -0.79 KCAL/MOL
REMARK 923 INTER-LIGAND FREE ENERGY PREDICTED BY IDOCK:   -0.74 KCAL/MOL
REMARK 924 INTRA-LIGAND FREE ENERGY PREDICTED BY IDOCK:   -0.04 KCAL/MOL
REMARK 927      BINDING AFFINITY PREDICTED BY RF-SCORE:    0.00 PKD
ROOT
ATOM      1  CE  MET A   1     -10.890  17.306  69.200  1.00  0.00     0.017 C  
ATOM      2  SD  MET A   1     -10.389  15.573  69.062  1.00  0.00    -0.249 SA 
ENDROOT
BRANCH   2   3
ATOM      3  CG  MET A   1     -11.955  14.782  69.554  1.00  0.00    -0.311 C  
BRANCH   3   4
ATOM      4  CB  MET A   1     -11.676  13.680  70.576  1.00  0.00    -0.175 C  
BRANCH   4   5
ATOM      5  CA  MET A   1     -12.787  13.539  71.625  1.00  0.00    -0.329 C  
ATOM      6  C   MET A   1     -13.063  12.052  71.934  1.00  0.00    -0.370 C  
ATOM      7  N   MET A   1     -14.075  14.163  71.201  1.00  0.00    -0.195 NA 
ATOM      8  O   MET A   1     -14.385  11.850  72.187  1.00  0.00     0.619 OA 
ATOM      9  OXT MET A   1     -12.229  11.164  71.987  1.00  0.00     0.249 OA 
ATOM     10  H1  MET A   1     -14.813  14.069  71.898  1.00  0.00     0.000 HD 
ATOM     11  H2  MET A   1     -14.378  13.796  70.299  1.00  0.00     0.000 HD 
ENDBRANCH   4   5
ENDBRANCH   3   4
ENDBRANCH   2   3
TORSDOF 3
ENDMDL
MODEL      280
REMARK 921   NORMALIZED FREE ENERGY PREDICTED BY IDOCK:   -0.21 KCAL/MOL
REMARK 922        TOTAL FREE ENERGY PREDICTED BY IDOCK:   -0.31 KCAL/MOL
REMARK 923 INTER-LIGAND FREE ENERGY PREDICTED BY IDOCK:   -0.54 KCAL/MOL
REMARK 924 INTRA-LIGAND FREE ENERGY PREDICTED BY IDOCK:    0.23 KCAL/MOL
REMARK 927      BINDING AFFINITY PREDICTED BY RF-SCORE:    0.00 PKD
ROOT
ATOM      1  CE  MET A   1      -8.308   8.852  64.995  1.00  0.00    -0.165 C  
ATOM      2  SD  MET A   1      -9.482  10.220  64.841  1.00  0.00    -0.305 SA 
ENDROOT
BRANCH   2   3
ATOM      3  CG  MET A   1      -9.354  10.897  66.528  1.00  0.00    -0.173 C  
BRANCH   3   4
ATOM      4  CB  MET A   1      -7.947  11.449  66.756  1.00  0.00    -0.160 C  
BRANCH   4   5
ATOM      5  CA  MET A   1      -7.252  10.838  67.980  1.00  0.00    -0.086 C  
ATOM      6  C   MET A   1      -7.919  11.319  69.286  1.00  0.00     0.086 C  
ATOM      7  N   MET A   1      -5.800  11.176  68.058  1.00  0.00    -0.042 NA 
ATOM      8  O   MET A   1      -6.994  11.466  70.274  1.00  0.00    -0.002 OA 
ATOM      9  OXT MET A   1      -9.111  11.517  69.452  1.00  0.00     0.307 OA 
ATOM     10  H1  MET A   1      -5.338  10.770  68.871  1.00  0.00     0.000 HD 
ATOM     11  H2  MET A   1      -5.659  12.186  68.026  1.00  0.00     0.000 HD 
ENDBRANCH   4   5
ENDBRANCH   3   4
ENDBRANCH   2   3
TORSDOF 3
ENDMDL
