MODEL        1
REMARK 921   NORMALIZED FREE ENERGY PREDICTED BY IDOCK:   -8.08 KCAL/MOL
REMARK 922        TOTAL FREE ENERGY PREDICTED BY IDOCK:  -13.47 KCAL/MOL
REMARK 923 INTER-LIGAND FREE ENERGY PREDICTED BY IDOCK:  -11.39 KCAL/MOL
REMARK 924 INTRA-LIGAND FREE ENERGY PREDICTED BY IDOCK:   -2.08 KCAL/MOL
REMARK 927      BINDING AFFINITY PREDICTED BY RF-SCORE:    0.00 PKD
ROOT
HETATM    1  O   UNL     1     -13.209  15.901  73.880  1.00  0.00    -0.798 OA 
HETATM    2  H   UNL     1     -12.778  16.743  73.970  1.00  0.00     0.000 HD 
HETATM    3  C   UNL     1     -12.954  15.071  72.832  1.00  0.00    -0.463 A  
HETATM    4  C   UNL     1     -13.584  13.840  72.700  1.00  0.00    -0.617 A  
HETATM    5  C   UNL     1     -13.246  12.991  71.635  1.00  0.00    -0.426 A  
HETATM    6  C   UNL     1     -12.288  13.366  70.677  1.00  0.00    -0.423 A  
HETATM    7  C   UNL     1     -11.717  14.647  70.809  1.00  0.00    -0.336 A  
HETATM    8  C   UNL     1     -12.035  15.486  71.887  1.00  0.00    -0.506 A  
ENDROOT
BRANCH   6   9
HETATM    9  C   UNL     1     -11.829  12.430  69.605  1.00  0.00    -0.311 A  
HETATM   10  C   UNL     1     -11.459  12.610  68.262  1.00  0.00    -0.356 A  
HETATM   11  C   UNL     1     -10.102   9.780  65.998  1.00  0.00    -0.322 A  
HETATM   12  C   UNL     1     -11.009  11.363  67.645  1.00  0.00    -0.303 A  
HETATM   13  O   UNL     1      -9.951   7.483  66.478  1.00  0.00    -0.365 OA 
HETATM   14  C   UNL     1     -11.156  10.281  68.511  1.00  0.00    -0.242 A  
HETATM   15  H   UNL     1      -9.601   7.329  65.608  1.00  0.00     0.000 HD 
HETATM   16  C   UNL     1     -10.438  11.086  66.369  1.00  0.00    -0.312 A  
HETATM   17  S   UNL     1     -11.794  10.758  70.014  1.00  0.00    -0.372 SA 
HETATM   18  C   UNL     1     -10.803   8.965  68.155  1.00  0.00    -0.062 A  
HETATM   19  C   UNL     1     -10.291   8.739  66.885  1.00  0.00    -0.274 A  
BRANCH  10  20
HETATM   20  C   UNL     1     -11.389  13.926  67.625  1.00  0.00    -0.309 C  
HETATM   21  O   UNL     1     -12.410  14.449  67.175  1.00  0.00    -0.335 OA 
BRANCH  20  22
HETATM   22  C   UNL     1     -10.113  14.694  67.486  1.00  0.00    -0.224 A  
HETATM   23  C   UNL     1      -7.701  16.055  66.861  1.00  0.00    -0.244 A  
HETATM   24  C   UNL     1      -7.840  15.384  68.080  1.00  0.00    -0.133 A  
HETATM   25  C   UNL     1      -9.968  15.394  66.286  1.00  0.00    -0.308 A  
HETATM   26  C   UNL     1      -9.041  14.702  68.394  1.00  0.00    -0.192 A  
HETATM   27  C   UNL     1      -8.772  16.040  65.968  1.00  0.00    -0.267 A  
BRANCH  23  28
HETATM   28  O   UNL     1      -6.500  16.708  66.607  1.00  0.00    -0.219 OA 
BRANCH  28  29
HETATM   29  C   UNL     1      -6.520  18.059  67.100  1.00  0.00    -0.172 C  
BRANCH  29  30
HETATM   30  C   UNL     1      -7.481  19.053  66.422  1.00  0.00    -0.258 C  
BRANCH  30  31
HETATM   31  N   UNL     1      -8.087  19.971  67.428  1.00  0.00    -0.312 NA 
HETATM   32  C   UNL     1      -9.218  20.771  66.925  1.00  0.00    -0.100 C  
HETATM   33  C   UNL     1     -10.388  19.891  66.496  1.00  0.00    -0.608 C  
HETATM   34  C   UNL     1     -10.904  19.112  67.701  1.00  0.00    -0.467 C  
HETATM   35  C   UNL     1      -9.778  18.417  68.476  1.00  0.00    -0.386 C  
HETATM   36  C   UNL     1      -8.519  19.277  68.651  1.00  0.00    -0.368 C  
ENDBRANCH  30  31
ENDBRANCH  29  30
ENDBRANCH  28  29
ENDBRANCH  23  28
ENDBRANCH  20  22
ENDBRANCH  10  20
ENDBRANCH   6   9
TORSDOF 7
ENDMDL
MODEL        2
REMARK 921   NORMALIZED FREE ENERGY PREDICTED BY IDOCK:   -7.93 KCAL/MOL
REMARK 922        TOTAL FREE ENERGY PREDICTED BY IDOCK:  -13.25 KCAL/MOL
REMARK 923 INTER-LIGAND FREE ENERGY PREDICTED BY IDOCK:  -11.35 KCAL/MOL
REMARK 924 INTRA-LIGAND FREE ENERGY PREDICTED BY IDOCK:   -1.90 KCAL/MOL
REMARK 927      BINDING AFFINITY PREDICTED BY RF-SCORE:    0.00 PKD
ROOT
HETATM    1  O   UNL     1     -13.932  15.959  73.131  1.00  0.00    -0.678 OA 
HETATM    2  H   UNL     1     -14.549  15.648  73.782  1.00  0.00     0.000 HD 
HETATM    3  C   UNL     1     -13.326  15.114  72.251  1.00  0.00    -0.408 A  
HETATM    4  C   UNL     1     -12.425  15.569  71.298  1.00  0.00    -0.486 A  
HETATM    5  C   UNL     1     -11.870  14.670  70.373  1.00  0.00    -0.365 A  
HETATM    6  C   UNL     1     -12.194  13.302  70.400  1.00  0.00    -0.404 A  
HETATM    7  C   UNL     1     -13.062  12.869  71.421  1.00  0.00    -0.331 A  
HETATM    8  C   UNL     1     -13.638  13.770  72.329  1.00  0.00    -0.656 A  
ENDROOT
BRANCH   6   9
HETATM    9  C   UNL     1     -11.707  12.351  69.354  1.00  0.00    -0.322 A  
HETATM   10  C   UNL     1     -11.350  12.502  68.005  1.00  0.00    -0.339 A  
HETATM   11  C   UNL     1      -9.900   9.655  65.821  1.00  0.00    -0.373 A  
HETATM   12  C   UNL     1     -10.858  11.254  67.424  1.00  0.00    -0.311 A  
HETATM   13  O   UNL     1      -9.665   7.380  66.370  1.00  0.00    -0.338 OA 
HETATM   14  C   UNL     1     -10.961  10.195  68.323  1.00  0.00    -0.248 A  
HETATM   15  H   UNL     1      -9.313   7.212  65.504  1.00  0.00     0.000 HD 
HETATM   16  C   UNL     1     -10.282  10.958  66.154  1.00  0.00    -0.304 A  
HETATM   17  S   UNL     1     -11.610  10.694  69.814  1.00  0.00    -0.328 SA 
HETATM   18  C   UNL     1     -10.563   8.882  68.006  1.00  0.00    -0.226 A  
HETATM   19  C   UNL     1     -10.048   8.636  66.740  1.00  0.00    -0.296 A  
BRANCH  10  20
HETATM   20  C   UNL     1     -11.330  13.800  67.327  1.00  0.00    -0.321 C  
HETATM   21  O   UNL     1     -12.383  14.312  66.943  1.00  0.00    -0.408 OA 
BRANCH  20  22
HETATM   22  C   UNL     1     -10.069  14.562  67.068  1.00  0.00    -0.254 A  
HETATM   23  C   UNL     1      -7.660  16.060  66.948  1.00  0.00    -0.233 A  
HETATM   24  C   UNL     1      -8.635  16.206  65.957  1.00  0.00    -0.231 A  
HETATM   25  C   UNL     1      -9.072  14.406  68.034  1.00  0.00    -0.188 A  
HETATM   26  C   UNL     1      -9.838  15.462  66.014  1.00  0.00    -0.355 A  
HETATM   27  C   UNL     1      -7.900  15.164  67.990  1.00  0.00    -0.135 A  
BRANCH  23  28
HETATM   28  O   UNL     1      -6.497  16.814  66.839  1.00  0.00    -0.179 OA 
BRANCH  28  29
HETATM   29  C   UNL     1      -6.633  18.090  67.487  1.00  0.00    -0.180 C  
BRANCH  29  30
HETATM   30  C   UNL     1      -7.394  19.197  66.734  1.00  0.00    -0.214 C  
BRANCH  30  31
HETATM   31  N   UNL     1      -8.199  20.022  67.679  1.00  0.00    -0.308 NA 
HETATM   32  C   UNL     1      -9.293  20.783  67.049  1.00  0.00    -0.214 C  
HETATM   33  C   UNL     1     -10.329  19.864  66.409  1.00  0.00    -0.611 C  
HETATM   34  C   UNL     1     -10.964  18.991  67.485  1.00  0.00    -0.363 C  
HETATM   35  C   UNL     1      -9.923  18.319  68.388  1.00  0.00    -0.401 C  
HETATM   36  C   UNL     1      -8.761  19.238  68.789  1.00  0.00    -0.346 C  
ENDBRANCH  30  31
ENDBRANCH  29  30
ENDBRANCH  28  29
ENDBRANCH  23  28
ENDBRANCH  20  22
ENDBRANCH  10  20
ENDBRANCH   6   9
TORSDOF 7
ENDMDL
MODEL        3
REMARK 921   NORMALIZED FREE ENERGY PREDICTED BY IDOCK:   -7.84 KCAL/MOL
REMARK 922        TOTAL FREE ENERGY PREDICTED BY IDOCK:  -13.13 KCAL/MOL
REMARK 923 INTER-LIGAND FREE ENERGY PREDICTED BY IDOCK:  -11.15 KCAL/MOL
REMARK 924 INTRA-LIGAND FREE ENERGY PREDICTED BY IDOCK:   -1.98 KCAL/MOL
REMARK 927      BINDING AFFINITY PREDICTED BY RF-SCORE:    0.00 PKD
ROOT
HETATM    1  O   UNL     1     -13.585  16.242  73.905  1.00  0.00    -0.906 OA 
HETATM    2  H   UNL     1     -14.501  16.184  74.151  1.00  0.00     0.000 HD 
HETATM    3  C   UNL     1     -13.089  15.581  72.822  1.00  0.00    -0.480 A  
HETATM    4  C   UNL     1     -11.750  15.665  72.462  1.00  0.00    -0.567 A  
HETATM    5  C   UNL     1     -11.295  15.016  71.303  1.00  0.00    -0.315 A  
HETATM    6  C   UNL     1     -12.166  14.259  70.500  1.00  0.00    -0.427 A  
HETATM    7  C   UNL     1     -13.501  14.145  70.933  1.00  0.00    -0.148 A  
HETATM    8  C   UNL     1     -13.963  14.815  72.076  1.00  0.00    -0.582 A  
ENDROOT
BRANCH   6   9
HETATM    9  C   UNL     1     -11.728  13.658  69.203  1.00  0.00    -0.329 A  
HETATM   10  C   UNL     1     -11.582  12.336  68.753  1.00  0.00    -0.380 A  
HETATM   11  C   UNL     1     -10.616  11.380  65.130  1.00  0.00    -0.352 A  
HETATM   12  C   UNL     1     -11.183  12.275  67.348  1.00  0.00    -0.358 A  
HETATM   13  O   UNL     1      -9.956  12.804  63.379  1.00  0.00    -0.642 OA 
HETATM   14  C   UNL     1     -10.945  13.545  66.827  1.00  0.00    -0.292 A  
HETATM   15  H   UNL     1      -9.839  12.049  62.815  1.00  0.00     0.000 HD 
HETATM   16  C   UNL     1     -11.037  11.179  66.449  1.00  0.00    -0.204 A  
HETATM   17  S   UNL     1     -11.210  14.761  67.986  1.00  0.00    -0.312 SA 
HETATM   18  C   UNL     1     -10.539  13.761  65.496  1.00  0.00    -0.312 A  
HETATM   19  C   UNL     1     -10.368  12.658  64.671  1.00  0.00    -0.330 A  
BRANCH  10  20
HETATM   20  C   UNL     1     -11.946  11.174  69.566  1.00  0.00    -0.355 C  
HETATM   21  O   UNL     1     -13.131  10.931  69.800  1.00  0.00    -0.057 OA 
BRANCH  20  22
HETATM   22  C   UNL     1     -10.933  10.237  70.144  1.00  0.00    -0.377 A  
HETATM   23  C   UNL     1      -9.146   8.557  71.575  1.00  0.00    -0.216 A  
HETATM   24  C   UNL     1      -8.715   9.242  70.435  1.00  0.00    -0.263 A  
HETATM   25  C   UNL     1     -11.355   9.524  71.268  1.00  0.00    -0.446 A  
HETATM   26  C   UNL     1      -9.602  10.082  69.720  1.00  0.00    -0.249 A  
HETATM   27  C   UNL     1     -10.469   8.720  71.987  1.00  0.00    -0.414 A  
BRANCH  23  28
HETATM   28  O   UNL     1      -8.232   7.745  72.235  1.00  0.00    -0.104 OA 
BRANCH  28  29
HETATM   29  C   UNL     1      -8.459   6.354  71.951  1.00  0.00    -0.123 C  
BRANCH  29  30
HETATM   30  C   UNL     1      -8.452   5.916  70.475  1.00  0.00    -0.128 C  
BRANCH  30  31
HETATM   31  N   UNL     1      -9.591   4.999  70.190  1.00  0.00    -0.171 NA 
HETATM   32  C   UNL     1     -10.896   5.669  70.045  1.00  0.00    -0.296 C  
HETATM   33  C   UNL     1     -10.911   6.631  68.861  1.00  0.00    -0.326 C  
HETATM   34  C   UNL     1     -10.672   5.853  67.573  1.00  0.00    -0.359 C  
HETATM   35  C   UNL     1      -9.465   4.913  67.670  1.00  0.00    -0.166 C  
HETATM   36  C   UNL     1      -9.368   4.159  69.004  1.00  0.00    -0.165 C  
ENDBRANCH  30  31
ENDBRANCH  29  30
ENDBRANCH  28  29
ENDBRANCH  23  28
ENDBRANCH  20  22
ENDBRANCH  10  20
ENDBRANCH   6   9
TORSDOF 7
ENDMDL
MODEL        4
REMARK 921   NORMALIZED FREE ENERGY PREDICTED BY IDOCK:   -7.74 KCAL/MOL
REMARK 922        TOTAL FREE ENERGY PREDICTED BY IDOCK:  -12.99 KCAL/MOL
REMARK 923 INTER-LIGAND FREE ENERGY PREDICTED BY IDOCK:  -10.91 KCAL/MOL
REMARK 924 INTRA-LIGAND FREE ENERGY PREDICTED BY IDOCK:   -2.08 KCAL/MOL
REMARK 927      BINDING AFFINITY PREDICTED BY RF-SCORE:    0.00 PKD
ROOT
HETATM    1  O   UNL     1     -13.416  10.414  72.455  1.00  0.00    -0.612 OA 
HETATM    2  H   UNL     1     -13.941  10.601  73.224  1.00  0.00     0.000 HD 
HETATM    3  C   UNL     1     -12.999  11.399  71.611  1.00  0.00    -0.418 A  
HETATM    4  C   UNL     1     -12.231  11.126  70.487  1.00  0.00    -0.475 A  
HETATM    5  C   UNL     1     -11.773  12.179  69.679  1.00  0.00    -0.396 A  
HETATM    6  C   UNL     1     -12.091  13.516  69.972  1.00  0.00    -0.411 A  
HETATM    7  C   UNL     1     -12.925  13.748  71.084  1.00  0.00    -0.370 A  
HETATM    8  C   UNL     1     -13.361  12.699  71.907  1.00  0.00    -0.485 A  
ENDROOT
BRANCH   6   9
HETATM    9  C   UNL     1     -11.518  14.657  69.194  1.00  0.00    -0.294 A  
HETATM   10  C   UNL     1     -11.201  14.837  67.839  1.00  0.00    -0.318 A  
HETATM   11  C   UNL     1      -9.937  18.172  66.338  1.00  0.00    -0.376 A  
HETATM   12  C   UNL     1     -10.722  16.190  67.561  1.00  0.00    -0.304 A  
HETATM   13  O   UNL     1      -9.346  20.144  67.474  1.00  0.00    -0.350 OA 
HETATM   14  C   UNL     1     -10.599  16.939  68.729  1.00  0.00    -0.355 A  
HETATM   15  H   UNL     1      -9.114  20.547  66.646  1.00  0.00     0.000 HD 
HETATM   16  C   UNL     1     -10.404  16.854  66.340  1.00  0.00    -0.302 A  
HETATM   17  S   UNL     1     -11.061  16.048  70.102  1.00  0.00    -0.378 SA 
HETATM   18  C   UNL     1     -10.147  18.273  68.736  1.00  0.00    -0.393 A  
HETATM   19  C   UNL     1      -9.809  18.862  67.526  1.00  0.00    -0.327 A  
BRANCH  10  20
HETATM   20  C   UNL     1     -11.477  13.825  66.816  1.00  0.00    -0.348 C  
HETATM   21  O   UNL     1     -12.588  13.769  66.287  1.00  0.00    -0.416 OA 
BRANCH  20  22
HETATM   22  C   UNL     1     -10.456  12.830  66.362  1.00  0.00    -0.265 A  
HETATM   23  C   UNL     1      -8.809  10.717  65.421  1.00  0.00    -0.189 A  
HETATM   24  C   UNL     1      -8.415  11.487  66.520  1.00  0.00    -0.160 A  
HETATM   25  C   UNL     1     -10.821  12.071  65.248  1.00  0.00    -0.340 A  
HETATM   26  C   UNL     1      -9.235  12.540  66.994  1.00  0.00    -0.214 A  
HETATM   27  C   UNL     1     -10.024  11.014  64.803  1.00  0.00    -0.350 A  
BRANCH  23  28
HETATM   28  O   UNL     1      -7.964   9.698  64.999  1.00  0.00    -0.112 OA 
BRANCH  28  29
HETATM   29  C   UNL     1      -8.600   8.412  65.090  1.00  0.00    -0.132 C  
BRANCH  29  30
HETATM   30  C   UNL     1      -8.881   7.852  66.497  1.00  0.00    -0.152 C  
BRANCH  30  31
HETATM   31  N   UNL     1     -10.328   7.973  66.834  1.00  0.00    -0.333 NA 
HETATM   32  C   UNL     1     -11.023   6.686  67.021  1.00  0.00    -0.393 C  
HETATM   33  C   UNL     1     -10.450   5.897  68.194  1.00  0.00    -0.291 C  
HETATM   34  C   UNL     1     -10.644   6.691  69.481  1.00  0.00    -0.281 C  
HETATM   35  C   UNL     1     -10.180   8.146  69.348  1.00  0.00    -0.211 C  
HETATM   36  C   UNL     1     -10.574   8.807  68.020  1.00  0.00    -0.159 C  
ENDBRANCH  30  31
ENDBRANCH  29  30
ENDBRANCH  28  29
ENDBRANCH  23  28
ENDBRANCH  20  22
ENDBRANCH  10  20
ENDBRANCH   6   9
TORSDOF 7
ENDMDL
MODEL        5
REMARK 921   NORMALIZED FREE ENERGY PREDICTED BY IDOCK:   -7.57 KCAL/MOL
REMARK 922        TOTAL FREE ENERGY PREDICTED BY IDOCK:  -12.74 KCAL/MOL
REMARK 923 INTER-LIGAND FREE ENERGY PREDICTED BY IDOCK:  -10.70 KCAL/MOL
REMARK 924 INTRA-LIGAND FREE ENERGY PREDICTED BY IDOCK:   -2.04 KCAL/MOL
REMARK 927      BINDING AFFINITY PREDICTED BY RF-SCORE:    0.00 PKD
ROOT
HETATM    1  O   UNL     1     -11.560  16.405  63.882  1.00  0.00    -1.564 OA 
HETATM    2  H   UNL     1     -10.806  16.956  63.712  1.00  0.00     0.000 HD 
HETATM    3  C   UNL     1     -11.457  15.240  64.581  1.00  0.00    -0.354 A  
HETATM    4  C   UNL     1     -12.560  14.434  64.830  1.00  0.00    -0.298 A  
HETATM    5  C   UNL     1     -12.417  13.272  65.606  1.00  0.00    -0.510 A  
HETATM    6  C   UNL     1     -11.168  12.890  66.126  1.00  0.00    -0.326 A  
HETATM    7  C   UNL     1     -10.063  13.699  65.798  1.00  0.00    -0.311 A  
HETATM    8  C   UNL     1     -10.208  14.874  65.045  1.00  0.00    -0.365 A  
ENDROOT
BRANCH   6   9
HETATM    9  C   UNL     1     -11.016  11.724  67.049  1.00  0.00    -0.285 A  
HETATM   10  C   UNL     1     -11.115  11.577  68.442  1.00  0.00    -0.288 A  
HETATM   11  C   UNL     1     -10.849   8.183  70.282  1.00  0.00    -0.244 A  
HETATM   12  C   UNL     1     -10.948  10.186  68.861  1.00  0.00    -0.261 A  
HETATM   13  O   UNL     1     -10.285   6.085  69.383  1.00  0.00    -0.179 OA 
HETATM   14  C   UNL     1     -10.628   9.362  67.784  1.00  0.00    -0.258 A  
HETATM   15  H   UNL     1     -10.355   5.700  70.248  1.00  0.00     0.000 HD 
HETATM   16  C   UNL     1     -11.085   9.553  70.131  1.00  0.00    -0.294 A  
HETATM   17  S   UNL     1     -10.552  10.233  66.325  1.00  0.00    -0.013 SA 
HETATM   18  C   UNL     1     -10.407   7.978  67.922  1.00  0.00    -0.282 A  
HETATM   19  C   UNL     1     -10.509   7.415  69.186  1.00  0.00    -0.213 A  
BRANCH  10  20
HETATM   20  C   UNL     1     -11.499  12.674  69.333  1.00  0.00    -0.266 C  
HETATM   21  O   UNL     1     -12.181  12.447  70.333  1.00  0.00    -0.346 OA 
BRANCH  20  22
HETATM   22  C   UNL     1     -11.097  14.095  69.091  1.00  0.00    -0.295 A  
HETATM   23  C   UNL     1     -10.600  16.795  68.367  1.00  0.00    -0.354 A  
HETATM   24  C   UNL     1      -9.542  15.947  68.709  1.00  0.00    -0.219 A  
HETATM   25  C   UNL     1     -12.145  14.963  68.775  1.00  0.00    -0.212 A  
HETATM   26  C   UNL     1      -9.786  14.599  69.069  1.00  0.00    -0.178 A  
HETATM   27  C   UNL     1     -11.897  16.283  68.392  1.00  0.00     0.111 A  
BRANCH  23  28
HETATM   28  O   UNL     1     -10.301  18.109  68.025  1.00  0.00    -0.363 OA 
BRANCH  28  29
HETATM   29  C   UNL     1      -9.890  18.216  66.651  1.00  0.00    -0.350 C  
BRANCH  29  30
HETATM   30  C   UNL     1      -9.077  19.459  66.244  1.00  0.00    -0.346 C  
BRANCH  30  31
HETATM   31  N   UNL     1      -7.698  19.076  65.830  1.00  0.00    -0.465 NA 
HETATM   32  C   UNL     1      -6.800  20.214  65.562  1.00  0.00    -0.298 C  
HETATM   33  C   UNL     1      -6.573  21.063  66.809  1.00  0.00    -0.378 C  
HETATM   34  C   UNL     1      -5.899  20.216  67.882  1.00  0.00    -0.244 C  
HETATM   35  C   UNL     1      -6.601  18.869  68.094  1.00  0.00    -0.242 C  
HETATM   36  C   UNL     1      -7.037  18.182  66.792  1.00  0.00    -0.207 C  
ENDBRANCH  30  31
ENDBRANCH  29  30
ENDBRANCH  28  29
ENDBRANCH  23  28
ENDBRANCH  20  22
ENDBRANCH  10  20
ENDBRANCH   6   9
TORSDOF 7
ENDMDL
MODEL        6
REMARK 921   NORMALIZED FREE ENERGY PREDICTED BY IDOCK:   -7.44 KCAL/MOL
REMARK 922        TOTAL FREE ENERGY PREDICTED BY IDOCK:  -12.56 KCAL/MOL
REMARK 923 INTER-LIGAND FREE ENERGY PREDICTED BY IDOCK:  -10.81 KCAL/MOL
REMARK 924 INTRA-LIGAND FREE ENERGY PREDICTED BY IDOCK:   -1.75 KCAL/MOL
REMARK 927      BINDING AFFINITY PREDICTED BY RF-SCORE:    0.00 PKD
ROOT
HETATM    1  O   UNL     1     -12.631  11.037  62.742  1.00  0.00    -0.406 OA 
HETATM    2  H   UNL     1     -12.055  10.585  62.136  1.00  0.00     0.000 HD 
HETATM    3  C   UNL     1     -12.186  12.048  63.539  1.00  0.00    -0.547 A  
HETATM    4  C   UNL     1     -13.028  12.708  64.424  1.00  0.00    -0.232 A  
HETATM    5  C   UNL     1     -12.540  13.784  65.183  1.00  0.00    -0.471 A  
HETATM    6  C   UNL     1     -11.202  14.203  65.082  1.00  0.00    -0.337 A  
HETATM    7  C   UNL     1     -10.364  13.467  64.221  1.00  0.00    -0.249 A  
HETATM    8  C   UNL     1     -10.856  12.409  63.443  1.00  0.00    -0.417 A  
ENDROOT
BRANCH   6   9
HETATM    9  C   UNL     1     -10.694  15.416  65.792  1.00  0.00    -0.351 A  
HETATM   10  C   UNL     1      -9.991  15.608  66.992  1.00  0.00    -0.242 A  
HETATM   11  C   UNL     1      -8.714  19.047  68.223  1.00  0.00    -0.366 A  
HETATM   12  C   UNL     1      -9.659  17.014  67.216  1.00  0.00    -0.244 A  
HETATM   13  O   UNL     1      -9.129  21.167  67.295  1.00  0.00    -0.559 OA 
HETATM   14  C   UNL     1     -10.212  17.833  66.234  1.00  0.00    -0.364 A  
HETATM   15  H   UNL     1      -8.621  21.567  67.991  1.00  0.00     0.000 HD 
HETATM   16  C   UNL     1      -8.868  17.657  68.212  1.00  0.00    -0.276 A  
HETATM   17  S   UNL     1     -11.082  16.936  65.080  1.00  0.00     0.240 SA 
HETATM   18  C   UNL     1     -10.048  19.232  66.225  1.00  0.00    -0.519 A  
HETATM   19  C   UNL     1      -9.305  19.816  67.241  1.00  0.00    -0.346 A  
BRANCH  10  20
HETATM   20  C   UNL     1      -9.518  14.499  67.824  1.00  0.00    -0.210 C  
HETATM   21  O   UNL     1      -8.331  14.428  68.142  1.00  0.00    -0.142 OA 
BRANCH  20  22
HETATM   22  C   UNL     1     -10.423  13.417  68.325  1.00  0.00    -0.256 A  
HETATM   23  C   UNL     1     -12.101  11.524  69.614  1.00  0.00    -0.296 A  
HETATM   24  C   UNL     1     -11.232  11.122  68.594  1.00  0.00    -0.314 A  
HETATM   25  C   UNL     1     -11.317  13.806  69.325  1.00  0.00    -0.325 A  
HETATM   26  C   UNL     1     -10.392  12.064  67.951  1.00  0.00    -0.209 A  
HETATM   27  C   UNL     1     -12.121  12.871  69.977  1.00  0.00    -0.357 A  
BRANCH  23  28
HETATM   28  O   UNL     1     -12.903  10.557  70.209  1.00  0.00    -0.295 OA 
BRANCH  28  29
HETATM   29  C   UNL     1     -12.452  10.241  71.537  1.00  0.00    -0.422 C  
BRANCH  29  30
HETATM   30  C   UNL     1     -11.313   9.214  71.679  1.00  0.00    -0.376 C  
BRANCH  30  31
HETATM   31  N   UNL     1     -11.811   7.956  72.305  1.00  0.00    -0.338 NA 
HETATM   32  C   UNL     1     -12.609   7.100  71.409  1.00  0.00    -0.394 C  
HETATM   33  C   UNL     1     -11.791   6.605  70.220  1.00  0.00    -0.378 C  
HETATM   34  C   UNL     1     -10.632   5.754  70.723  1.00  0.00    -0.337 C  
HETATM   35  C   UNL     1      -9.849   6.435  71.851  1.00  0.00    -0.172 C  
HETATM   36  C   UNL     1     -10.735   7.140  72.887  1.00  0.00    -0.302 C  
ENDBRANCH  30  31
ENDBRANCH  29  30
ENDBRANCH  28  29
ENDBRANCH  23  28
ENDBRANCH  20  22
ENDBRANCH  10  20
ENDBRANCH   6   9
TORSDOF 7
ENDMDL
MODEL        7
REMARK 921   NORMALIZED FREE ENERGY PREDICTED BY IDOCK:   -7.39 KCAL/MOL
REMARK 922        TOTAL FREE ENERGY PREDICTED BY IDOCK:  -12.50 KCAL/MOL
REMARK 923 INTER-LIGAND FREE ENERGY PREDICTED BY IDOCK:  -10.17 KCAL/MOL
REMARK 924 INTRA-LIGAND FREE ENERGY PREDICTED BY IDOCK:   -2.33 KCAL/MOL
REMARK 927      BINDING AFFINITY PREDICTED BY RF-SCORE:    0.00 PKD
ROOT
HETATM    1  O   UNL     1     -12.512  14.895  64.072  1.00  0.00    -0.930 OA 
HETATM    2  H   UNL     1     -12.538  14.575  63.177  1.00  0.00     0.000 HD 
HETATM    3  C   UNL     1     -12.233  14.074  65.122  1.00  0.00    -0.436 A  
HETATM    4  C   UNL     1     -12.195  14.542  66.429  1.00  0.00    -0.274 A  
HETATM    5  C   UNL     1     -11.843  13.672  67.473  1.00  0.00    -0.416 A  
HETATM    6  C   UNL     1     -11.543  12.321  67.229  1.00  0.00    -0.427 A  
HETATM    7  C   UNL     1     -11.654  11.870  65.899  1.00  0.00    -0.291 A  
HETATM    8  C   UNL     1     -11.979  12.743  64.851  1.00  0.00    -0.451 A  
ENDROOT
BRANCH   6   9
HETATM    9  C   UNL     1     -11.054  11.409  68.309  1.00  0.00    -0.244 A  
HETATM   10  C   UNL     1      -9.793  10.881  68.626  1.00  0.00    -0.194 A  
HETATM   11  C   UNL     1      -9.082   8.716  71.754  1.00  0.00    -0.317 A  
HETATM   12  C   UNL     1      -9.825  10.079  69.849  1.00  0.00    -0.266 A  
HETATM   13  O   UNL     1     -10.625   7.859  73.308  1.00  0.00    -0.341 OA 
HETATM   14  C   UNL     1     -11.121   9.951  70.342  1.00  0.00    -0.319 A  
HETATM   15  H   UNL     1      -9.914   7.434  73.773  1.00  0.00     0.000 HD 
HETATM   16  C   UNL     1      -8.789   9.461  70.607  1.00  0.00    -0.275 A  
HETATM   17  S   UNL     1     -12.249  10.780  69.377  1.00  0.00    -0.031 SA 
HETATM   18  C   UNL     1     -11.426   9.219  71.507  1.00  0.00    -0.454 A  
HETATM   19  C   UNL     1     -10.387   8.598  72.187  1.00  0.00    -0.333 A  
BRANCH  10  20
HETATM   20  C   UNL     1      -8.574  11.235  67.896  1.00  0.00    -0.134 C  
HETATM   21  O   UNL     1      -7.956  10.371  67.271  1.00  0.00    -0.109 OA 
BRANCH  20  22
HETATM   22  C   UNL     1      -8.022  12.625  67.861  1.00  0.00    -0.156 A  
HETATM   23  C   UNL     1      -6.976  15.247  68.172  1.00  0.00    -0.126 A  
HETATM   24  C   UNL     1      -7.898  14.967  67.158  1.00  0.00    -0.224 A  
HETATM   25  C   UNL     1      -7.079  12.915  68.850  1.00  0.00    -0.063 A  
HETATM   26  C   UNL     1      -8.423  13.661  67.002  1.00  0.00    -0.141 A  
HETATM   27  C   UNL     1      -6.587  14.210  69.020  1.00  0.00    -0.104 A  
BRANCH  23  28
HETATM   28  O   UNL     1      -6.493  16.546  68.277  1.00  0.00    -0.130 OA 
BRANCH  28  29
HETATM   29  C   UNL     1      -7.396  17.387  69.015  1.00  0.00    -0.204 C  
BRANCH  29  30
HETATM   30  C   UNL     1      -7.896  18.672  68.330  1.00  0.00    -0.319 C  
BRANCH  30  31
HETATM   31  N   UNL     1      -9.353  18.868  68.575  1.00  0.00    -0.350 NA 
HETATM   32  C   UNL     1      -9.913  20.099  67.989  1.00  0.00    -0.381 C  
HETATM   33  C   UNL     1      -9.806  20.103  66.468  1.00  0.00    -0.574 C  
HETATM   34  C   UNL     1     -10.612  18.941  65.900  1.00  0.00    -0.438 C  
HETATM   35  C   UNL     1     -10.302  17.614  66.600  1.00  0.00    -0.333 C  
HETATM   36  C   UNL     1     -10.169  17.730  68.125  1.00  0.00    -0.382 C  
ENDBRANCH  30  31
ENDBRANCH  29  30
ENDBRANCH  28  29
ENDBRANCH  23  28
ENDBRANCH  20  22
ENDBRANCH  10  20
ENDBRANCH   6   9
TORSDOF 7
ENDMDL
MODEL        8
REMARK 921   NORMALIZED FREE ENERGY PREDICTED BY IDOCK:   -7.39 KCAL/MOL
REMARK 922        TOTAL FREE ENERGY PREDICTED BY IDOCK:  -12.49 KCAL/MOL
REMARK 923 INTER-LIGAND FREE ENERGY PREDICTED BY IDOCK:  -10.34 KCAL/MOL
REMARK 924 INTRA-LIGAND FREE ENERGY PREDICTED BY IDOCK:   -2.15 KCAL/MOL
REMARK 927      BINDING AFFINITY PREDICTED BY RF-SCORE:    0.00 PKD
ROOT
HETATM    1  O   UNL     1      -9.439  12.094  63.280  1.00  0.00    -0.664 OA 
HETATM    2  H   UNL     1      -9.839  12.454  62.497  1.00  0.00     0.000 HD 
HETATM    3  C   UNL     1      -9.863  12.438  64.527  1.00  0.00    -0.078 A  
HETATM    4  C   UNL     1      -9.279  11.912  65.672  1.00  0.00    -0.060 A  
HETATM    5  C   UNL     1      -9.789  12.249  66.936  1.00  0.00    -0.216 A  
HETATM    6  C   UNL     1     -10.875  13.130  67.075  1.00  0.00    -0.278 A  
HETATM    7  C   UNL     1     -11.399  13.693  65.894  1.00  0.00    -0.317 A  
HETATM    8  C   UNL     1     -10.908  13.336  64.629  1.00  0.00    -0.396 A  
ENDROOT
BRANCH   6   9
HETATM    9  C   UNL     1     -11.506  13.410  68.401  1.00  0.00    -0.316 A  
HETATM   10  C   UNL     1     -12.008  12.589  69.423  1.00  0.00    -0.315 A  
HETATM   11  C   UNL     1     -13.332  13.914  72.808  1.00  0.00    -0.567 A  
HETATM   12  C   UNL     1     -12.464  13.363  70.576  1.00  0.00    -0.350 A  
HETATM   13  O   UNL     1     -13.668  16.148  73.462  1.00  0.00    -0.875 OA 
HETATM   14  C   UNL     1     -12.385  14.733  70.337  1.00  0.00    -0.344 A  
HETATM   15  H   UNL     1     -14.000  15.849  74.300  1.00  0.00     0.000 HD 
HETATM   16  C   UNL     1     -12.927  12.966  71.865  1.00  0.00    -0.405 A  
HETATM   17  S   UNL     1     -11.766  15.068  68.788  1.00  0.00    -0.319 SA 
HETATM   18  C   UNL     1     -12.773  15.698  71.287  1.00  0.00    -0.537 A  
HETATM   19  C   UNL     1     -13.258  15.261  72.512  1.00  0.00    -0.430 A  
BRANCH  10  20
HETATM   20  C   UNL     1     -11.926  11.127  69.381  1.00  0.00    -0.349 C  
HETATM   21  O   UNL     1     -12.624  10.492  68.588  1.00  0.00     0.100 OA 
BRANCH  20  22
HETATM   22  C   UNL     1     -11.018  10.339  70.271  1.00  0.00    -0.375 A  
HETATM   23  C   UNL     1      -9.130   8.722  71.643  1.00  0.00    -0.244 A  
HETATM   24  C   UNL     1     -10.443   8.830  72.111  1.00  0.00    -0.384 A  
HETATM   25  C   UNL     1      -9.695  10.242  69.833  1.00  0.00    -0.119 A  
HETATM   26  C   UNL     1     -11.388   9.634  71.428  1.00  0.00    -0.444 A  
HETATM   27  C   UNL     1      -8.775   9.425  70.492  1.00  0.00    -0.276 A  
BRANCH  23  28
HETATM   28  O   UNL     1      -8.245   7.920  72.355  1.00  0.00    -0.111 OA 
BRANCH  28  29
HETATM   29  C   UNL     1      -8.596   6.529  72.256  1.00  0.00    -0.123 C  
BRANCH  29  30
HETATM   30  C   UNL     1      -8.464   5.856  70.878  1.00  0.00    -0.127 C  
BRANCH  30  31
HETATM   31  N   UNL     1      -9.658   5.013  70.584  1.00  0.00    -0.171 NA 
HETATM   32  C   UNL     1     -10.893   5.772  70.319  1.00  0.00    -0.303 C  
HETATM   33  C   UNL     1     -10.764   6.649  69.077  1.00  0.00    -0.299 C  
HETATM   34  C   UNL     1     -10.520   5.767  67.858  1.00  0.00    -0.290 C  
HETATM   35  C   UNL     1      -9.402   4.744  68.087  1.00  0.00    -0.172 C  
HETATM   36  C   UNL     1      -9.440   4.079  69.470  1.00  0.00    -0.187 C  
ENDBRANCH  30  31
ENDBRANCH  29  30
ENDBRANCH  28  29
ENDBRANCH  23  28
ENDBRANCH  20  22
ENDBRANCH  10  20
ENDBRANCH   6   9
TORSDOF 7
ENDMDL
MODEL        9
REMARK 921   NORMALIZED FREE ENERGY PREDICTED BY IDOCK:   -7.39 KCAL/MOL
REMARK 922        TOTAL FREE ENERGY PREDICTED BY IDOCK:  -12.49 KCAL/MOL
REMARK 923 INTER-LIGAND FREE ENERGY PREDICTED BY IDOCK:  -10.28 KCAL/MOL
REMARK 924 INTRA-LIGAND FREE ENERGY PREDICTED BY IDOCK:   -2.21 KCAL/MOL
REMARK 927      BINDING AFFINITY PREDICTED BY RF-SCORE:    0.00 PKD
ROOT
HETATM    1  O   UNL     1     -13.594   9.815  72.563  1.00  0.00    -0.656 OA 
HETATM    2  H   UNL     1     -13.382   8.903  72.404  1.00  0.00     0.000 HD 
HETATM    3  C   UNL     1     -13.076  10.817  71.799  1.00  0.00    -0.468 A  
HETATM    4  C   UNL     1     -13.385  12.151  72.032  1.00  0.00    -0.470 A  
HETATM    5  C   UNL     1     -12.876  13.146  71.181  1.00  0.00    -0.349 A  
HETATM    6  C   UNL     1     -12.038  12.823  70.100  1.00  0.00    -0.370 A  
HETATM    7  C   UNL     1     -11.696  11.467  69.936  1.00  0.00    -0.424 A  
HETATM    8  C   UNL     1     -12.225  10.469  70.768  1.00  0.00    -0.468 A  
ENDROOT
BRANCH   6   9
HETATM    9  C   UNL     1     -11.581  13.853  69.116  1.00  0.00    -0.313 A  
HETATM   10  C   UNL     1     -11.214  13.796  67.762  1.00  0.00    -0.312 A  
HETATM   11  C   UNL     1     -10.330  16.903  65.631  1.00  0.00    -0.254 A  
HETATM   12  C   UNL     1     -10.907  15.119  67.220  1.00  0.00    -0.316 A  
HETATM   13  O   UNL     1     -10.077  19.129  66.345  1.00  0.00    -0.361 OA 
HETATM   14  C   UNL     1     -10.954  16.100  68.208  1.00  0.00    -0.340 A  
HETATM   15  H   UNL     1      -9.855  19.384  65.457  1.00  0.00     0.000 HD 
HETATM   16  C   UNL     1     -10.613  15.559  65.897  1.00  0.00    -0.350 A  
HETATM   17  S   UNL     1     -11.369  15.450  69.724  1.00  0.00    -0.337 SA 
HETATM   18  C   UNL     1     -10.689  17.459  67.948  1.00  0.00    -0.351 A  
HETATM   19  C   UNL     1     -10.364  17.832  66.652  1.00  0.00    -0.345 A  
BRANCH  10  20
HETATM   20  C   UNL     1     -11.291  12.569  66.967  1.00  0.00    -0.328 C  
HETATM   21  O   UNL     1     -12.318  12.303  66.341  1.00  0.00    -0.531 OA 
BRANCH  20  22
HETATM   22  C   UNL     1     -10.161  11.593  66.868  1.00  0.00    -0.244 A  
HETATM   23  C   UNL     1      -8.281   9.475  66.673  1.00  0.00    -0.116 A  
HETATM   24  C   UNL     1      -8.008  10.593  67.467  1.00  0.00    -0.110 A  
HETATM   25  C   UNL     1     -10.405  10.482  66.057  1.00  0.00    -0.279 A  
HETATM   26  C   UNL     1      -8.945  11.651  67.568  1.00  0.00    -0.165 A  
HETATM   27  C   UNL     1      -9.492   9.429  65.983  1.00  0.00    -0.304 A  
BRANCH  23  28
HETATM   28  O   UNL     1      -7.324   8.468  66.610  1.00  0.00    -0.080 OA 
BRANCH  28  29
HETATM   29  C   UNL     1      -6.983   7.982  67.919  1.00  0.00    -0.078 C  
BRANCH  29  30
HETATM   30  C   UNL     1      -7.761   6.767  68.455  1.00  0.00    -0.113 C  
BRANCH  30  31
HETATM   31  N   UNL     1      -8.302   7.044  69.817  1.00  0.00    -0.131 NA 
HETATM   32  C   UNL     1      -9.389   8.039  69.854  1.00  0.00    -0.156 C  
HETATM   33  C   UNL     1     -10.613   7.570  69.075  1.00  0.00    -0.190 C  
HETATM   34  C   UNL     1     -11.162   6.298  69.710  1.00  0.00    -0.499 C  
HETATM   35  C   UNL     1     -10.072   5.249  69.959  1.00  0.00    -0.336 C  
HETATM   36  C   UNL     1      -8.762   5.830  70.509  1.00  0.00    -0.139 C  
ENDBRANCH  30  31
ENDBRANCH  29  30
ENDBRANCH  28  29
ENDBRANCH  23  28
ENDBRANCH  20  22
ENDBRANCH  10  20
ENDBRANCH   6   9
TORSDOF 7
ENDMDL
MODEL       10
REMARK 921   NORMALIZED FREE ENERGY PREDICTED BY IDOCK:   -7.37 KCAL/MOL
REMARK 922        TOTAL FREE ENERGY PREDICTED BY IDOCK:  -12.46 KCAL/MOL
REMARK 923 INTER-LIGAND FREE ENERGY PREDICTED BY IDOCK:  -11.30 KCAL/MOL
REMARK 924 INTRA-LIGAND FREE ENERGY PREDICTED BY IDOCK:   -1.15 KCAL/MOL
REMARK 927      BINDING AFFINITY PREDICTED BY RF-SCORE:    0.00 PKD
ROOT
HETATM    1  O   UNL     1     -13.396  16.013  73.610  1.00  0.00    -0.777 OA 
HETATM    2  H   UNL     1     -13.186  16.938  73.567  1.00  0.00     0.000 HD 
HETATM    3  C   UNL     1     -13.114  15.163  72.583  1.00  0.00    -0.421 A  
HETATM    4  C   UNL     1     -13.420  13.810  72.646  1.00  0.00    -0.638 A  
HETATM    5  C   UNL     1     -13.056  12.961  71.588  1.00  0.00    -0.430 A  
HETATM    6  C   UNL     1     -12.400  13.454  70.447  1.00  0.00    -0.382 A  
HETATM    7  C   UNL     1     -12.164  14.842  70.393  1.00  0.00    -0.393 A  
HETATM    8  C   UNL     1     -12.503  15.688  71.460  1.00  0.00    -0.499 A  
ENDROOT
BRANCH   6   9
HETATM    9  C   UNL     1     -11.902  12.551  69.365  1.00  0.00    -0.308 A  
HETATM   10  C   UNL     1     -11.507  12.765  68.036  1.00  0.00    -0.364 A  
HETATM   11  C   UNL     1     -10.050  10.010  65.742  1.00  0.00    -0.320 A  
HETATM   12  C   UNL     1     -11.021  11.540  67.402  1.00  0.00    -0.317 A  
HETATM   13  O   UNL     1      -9.868   7.706  66.176  1.00  0.00    -0.443 OA 
HETATM   14  C   UNL     1     -11.166  10.438  68.241  1.00  0.00    -0.267 A  
HETATM   15  H   UNL     1      -9.496   7.577  65.311  1.00  0.00     0.000 HD 
HETATM   16  C   UNL     1     -10.417  11.301  66.133  1.00  0.00    -0.305 A  
HETATM   17  S   UNL     1     -11.845  10.871  69.739  1.00  0.00    -0.370 SA 
HETATM   18  C   UNL     1     -10.782   9.136  67.865  1.00  0.00    -0.224 A  
HETATM   19  C   UNL     1     -10.239   8.947  66.602  1.00  0.00    -0.268 A  
BRANCH  10  20
HETATM   20  C   UNL     1     -11.447  14.096  67.428  1.00  0.00    -0.345 C  
HETATM   21  O   UNL     1     -12.288  14.432  66.593  1.00  0.00    -0.409 OA 
BRANCH  20  22
HETATM   22  C   UNL     1     -10.394  15.101  67.774  1.00  0.00    -0.243 A  
HETATM   23  C   UNL     1      -8.241  16.736  68.644  1.00  0.00    -0.252 A  
HETATM   24  C   UNL     1      -9.522  17.276  68.484  1.00  0.00    -0.285 A  
HETATM   25  C   UNL     1      -9.103  14.585  67.911  1.00  0.00    -0.191 A  
HETATM   26  C   UNL     1     -10.597  16.462  68.053  1.00  0.00    -0.314 A  
HETATM   27  C   UNL     1      -8.051  15.382  68.365  1.00  0.00    -0.140 A  
BRANCH  23  28
HETATM   28  O   UNL     1      -7.223  17.582  69.068  1.00  0.00    -0.251 OA 
BRANCH  28  29
HETATM   29  C   UNL     1      -7.636  18.958  69.045  1.00  0.00    -0.248 C  
BRANCH  29  30
HETATM   30  C   UNL     1      -6.631  19.998  68.515  1.00  0.00    -0.302 C  
BRANCH  30  31
HETATM   31  N   UNL     1      -7.159  20.668  67.293  1.00  0.00    -0.312 NA 
HETATM   32  C   UNL     1      -6.130  21.301  66.448  1.00  0.00    -0.285 C  
HETATM   33  C   UNL     1      -5.143  20.278  65.894  1.00  0.00    -0.188 C  
HETATM   34  C   UNL     1      -5.887  19.285  65.009  1.00  0.00    -0.279 C  
HETATM   35  C   UNL     1      -7.143  18.722  65.685  1.00  0.00    -0.219 C  
HETATM   36  C   UNL     1      -7.962  19.771  66.449  1.00  0.00    -0.318 C  
ENDBRANCH  30  31
ENDBRANCH  29  30
ENDBRANCH  28  29
ENDBRANCH  23  28
ENDBRANCH  20  22
ENDBRANCH  10  20
ENDBRANCH   6   9
TORSDOF 7
ENDMDL
MODEL       11
REMARK 921   NORMALIZED FREE ENERGY PREDICTED BY IDOCK:   -7.29 KCAL/MOL
REMARK 922        TOTAL FREE ENERGY PREDICTED BY IDOCK:  -12.35 KCAL/MOL
REMARK 923 INTER-LIGAND FREE ENERGY PREDICTED BY IDOCK:  -10.31 KCAL/MOL
REMARK 924 INTRA-LIGAND FREE ENERGY PREDICTED BY IDOCK:   -2.04 KCAL/MOL
REMARK 927      BINDING AFFINITY PREDICTED BY RF-SCORE:    0.00 PKD
ROOT
HETATM    1  O   UNL     1      -7.383  10.138  63.213  1.00  0.00    -0.138 OA 
HETATM    2  H   UNL     1      -6.438  10.047  63.245  1.00  0.00     0.000 HD 
HETATM    3  C   UNL     1      -8.151  10.059  64.335  1.00  0.00    -0.156 A  
HETATM    4  C   UNL     1      -9.533  10.192  64.288  1.00  0.00    -0.366 A  
HETATM    5  C   UNL     1     -10.279  10.164  65.478  1.00  0.00    -0.288 A  
HETATM    6  C   UNL     1      -9.658   9.985  66.726  1.00  0.00    -0.228 A  
HETATM    7  C   UNL     1      -8.263   9.790  66.725  1.00  0.00    -0.120 A  
HETATM    8  C   UNL     1      -7.513   9.844  65.541  1.00  0.00    -0.126 A  
ENDROOT
BRANCH   6   9
HETATM    9  C   UNL     1     -10.419  10.069  68.010  1.00  0.00    -0.218 A  
HETATM   10  C   UNL     1     -11.080  11.115  68.672  1.00  0.00    -0.293 A  
HETATM   11  C   UNL     1     -13.123  10.663  71.927  1.00  0.00    -0.563 A  
HETATM   12  C   UNL     1     -11.747  10.659  69.891  1.00  0.00    -0.395 A  
HETATM   13  O   UNL     1     -13.315   8.739  73.266  1.00  0.00    -0.915 OA 
HETATM   14  C   UNL     1     -11.476   9.318  70.151  1.00  0.00    -0.108 A  
HETATM   15  H   UNL     1     -13.870   9.220  73.869  1.00  0.00     0.000 HD 
HETATM   16  C   UNL     1     -12.620  11.322  70.801  1.00  0.00    -0.425 A  
HETATM   17  S   UNL     1     -10.472   8.634  68.961  1.00  0.00    -0.165 SA 
HETATM   18  C   UNL     1     -11.993   8.638  71.272  1.00  0.00    -0.339 A  
HETATM   19  C   UNL     1     -12.804   9.339  72.153  1.00  0.00    -0.408 A  
BRANCH  10  20
HETATM   20  C   UNL     1     -11.207  12.460  68.107  1.00  0.00    -0.265 C  
HETATM   21  O   UNL     1     -12.108  12.711  67.306  1.00  0.00    -0.448 OA 
BRANCH  20  22
HETATM   22  C   UNL     1     -10.279  13.579  68.460  1.00  0.00    -0.229 A  
HETATM   23  C   UNL     1      -8.261  15.437  69.195  1.00  0.00    -0.243 A  
HETATM   24  C   UNL     1      -9.592  15.654  69.563  1.00  0.00    -0.279 A  
HETATM   25  C   UNL     1      -8.949  13.392  68.076  1.00  0.00    -0.190 A  
HETATM   26  C   UNL     1     -10.601  14.729  69.200  1.00  0.00    -0.251 A  
HETATM   27  C   UNL     1      -7.953  14.291  68.461  1.00  0.00    -0.145 A  
BRANCH  23  28
HETATM   28  O   UNL     1      -7.314  16.379  69.577  1.00  0.00    -0.209 OA 
BRANCH  28  29
HETATM   29  C   UNL     1      -6.881  17.176  68.462  1.00  0.00    -0.190 C  
BRANCH  29  30
HETATM   30  C   UNL     1      -7.614  18.506  68.207  1.00  0.00    -0.287 C  
BRANCH  30  31
HETATM   31  N   UNL     1      -8.082  18.589  66.794  1.00  0.00    -0.246 NA 
HETATM   32  C   UNL     1      -9.247  17.740  66.485  1.00  0.00    -0.265 C  
HETATM   33  C   UNL     1     -10.476  18.148  67.291  1.00  0.00    -0.407 C  
HETATM   34  C   UNL     1     -10.867  19.577  66.932  1.00  0.00    -0.523 C  
HETATM   35  C   UNL     1      -9.675  20.540  66.975  1.00  0.00    -0.548 C  
HETATM   36  C   UNL     1      -8.387  19.964  66.371  1.00  0.00    -0.334 C  
ENDBRANCH  30  31
ENDBRANCH  29  30
ENDBRANCH  28  29
ENDBRANCH  23  28
ENDBRANCH  20  22
ENDBRANCH  10  20
ENDBRANCH   6   9
TORSDOF 7
ENDMDL
MODEL       12
REMARK 921   NORMALIZED FREE ENERGY PREDICTED BY IDOCK:   -7.26 KCAL/MOL
REMARK 922        TOTAL FREE ENERGY PREDICTED BY IDOCK:  -12.32 KCAL/MOL
REMARK 923 INTER-LIGAND FREE ENERGY PREDICTED BY IDOCK:  -11.10 KCAL/MOL
REMARK 924 INTRA-LIGAND FREE ENERGY PREDICTED BY IDOCK:   -1.22 KCAL/MOL
REMARK 927      BINDING AFFINITY PREDICTED BY RF-SCORE:    0.00 PKD
ROOT
HETATM    1  O   UNL     1     -13.519  16.170  74.101  1.00  0.00    -0.838 OA 
HETATM    2  H   UNL     1     -14.286  15.835  74.550  1.00  0.00     0.000 HD 
HETATM    3  C   UNL     1     -13.004  15.555  73.000  1.00  0.00    -0.499 A  
HETATM    4  C   UNL     1     -11.883  16.045  72.343  1.00  0.00    -0.639 A  
HETATM    5  C   UNL     1     -11.423  15.413  71.177  1.00  0.00    -0.425 A  
HETATM    6  C   UNL     1     -12.065  14.273  70.662  1.00  0.00    -0.417 A  
HETATM    7  C   UNL     1     -13.159  13.769  71.392  1.00  0.00    -0.413 A  
HETATM    8  C   UNL     1     -13.636  14.415  72.542  1.00  0.00    -0.598 A  
ENDROOT
BRANCH   6   9
HETATM    9  C   UNL     1     -11.663  13.656  69.361  1.00  0.00    -0.324 A  
HETATM   10  C   UNL     1     -11.618  12.333  68.894  1.00  0.00    -0.367 A  
HETATM   11  C   UNL     1     -10.695  11.349  65.268  1.00  0.00    -0.326 A  
HETATM   12  C   UNL     1     -11.211  12.257  67.492  1.00  0.00    -0.354 A  
HETATM   13  O   UNL     1      -9.907  12.739  63.542  1.00  0.00    -0.682 OA 
HETATM   14  C   UNL     1     -10.868  13.511  66.991  1.00  0.00    -0.282 A  
HETATM   15  H   UNL     1      -9.844  11.985  62.968  1.00  0.00     0.000 HD 
HETATM   16  C   UNL     1     -11.143  11.165  66.579  1.00  0.00    -0.233 A  
HETATM   17  S   UNL     1     -11.047  14.730  68.164  1.00  0.00    -0.291 SA 
HETATM   18  C   UNL     1     -10.433  13.711  65.666  1.00  0.00    -0.304 A  
HETATM   19  C   UNL     1     -10.342  12.609  64.828  1.00  0.00    -0.312 A  
BRANCH  10  20
HETATM   20  C   UNL     1     -12.081  11.192  69.689  1.00  0.00    -0.336 C  
HETATM   21  O   UNL     1     -13.284  10.942  69.765  1.00  0.00     0.031 OA 
BRANCH  20  22
HETATM   22  C   UNL     1     -11.149  10.288  70.431  1.00  0.00    -0.391 A  
HETATM   23  C   UNL     1      -9.238   8.481  71.503  1.00  0.00    -0.221 A  
HETATM   24  C   UNL     1     -10.518   8.573  72.061  1.00  0.00    -0.407 A  
HETATM   25  C   UNL     1      -9.857  10.204  69.904  1.00  0.00    -0.223 A  
HETATM   26  C   UNL     1     -11.473   9.472  71.527  1.00  0.00    -0.466 A  
HETATM   27  C   UNL     1      -8.928   9.296  70.414  1.00  0.00    -0.278 A  
BRANCH  23  28
HETATM   28  O   UNL     1      -8.341   7.583  72.069  1.00  0.00    -0.103 OA 
BRANCH  28  29
HETATM   29  C   UNL     1      -8.134   6.439  71.223  1.00  0.00    -0.117 C  
BRANCH  29  30
HETATM   30  C   UNL     1      -9.059   5.225  71.426  1.00  0.00    -0.145 C  
BRANCH  30  31
HETATM   31  N   UNL     1      -8.552   4.352  72.523  1.00  0.00    -0.109 NA 
HETATM   32  C   UNL     1      -9.018   4.729  73.870  1.00  0.00    -0.113 C  
HETATM   33  C   UNL     1     -10.533   4.617  73.998  1.00  0.00    -0.322 C  
HETATM   34  C   UNL     1     -10.955   3.169  73.778  1.00  0.00    -0.310 C  
HETATM   35  C   UNL     1     -10.333   2.562  72.516  1.00  0.00    -0.212 C  
HETATM   36  C   UNL     1      -8.856   2.929  72.310  1.00  0.00    -0.075 C  
ENDBRANCH  30  31
ENDBRANCH  29  30
ENDBRANCH  28  29
ENDBRANCH  23  28
ENDBRANCH  20  22
ENDBRANCH  10  20
ENDBRANCH   6   9
TORSDOF 7
ENDMDL
MODEL       13
REMARK 921   NORMALIZED FREE ENERGY PREDICTED BY IDOCK:   -7.25 KCAL/MOL
REMARK 922        TOTAL FREE ENERGY PREDICTED BY IDOCK:  -12.29 KCAL/MOL
REMARK 923 INTER-LIGAND FREE ENERGY PREDICTED BY IDOCK:  -10.86 KCAL/MOL
REMARK 924 INTRA-LIGAND FREE ENERGY PREDICTED BY IDOCK:   -1.44 KCAL/MOL
REMARK 927      BINDING AFFINITY PREDICTED BY RF-SCORE:    0.00 PKD
ROOT
HETATM    1  O   UNL     1     -13.533  12.117  72.404  1.00  0.00    -0.610 OA 
HETATM    2  H   UNL     1     -13.898  11.383  72.884  1.00  0.00     0.000 HD 
HETATM    3  C   UNL     1     -12.885  11.949  71.217  1.00  0.00    -0.290 A  
HETATM    4  C   UNL     1     -12.351  13.022  70.515  1.00  0.00    -0.365 A  
HETATM    5  C   UNL     1     -11.744  12.808  69.267  1.00  0.00    -0.376 A  
HETATM    6  C   UNL     1     -11.646  11.520  68.712  1.00  0.00    -0.379 A  
HETATM    7  C   UNL     1     -12.143  10.451  69.484  1.00  0.00    -0.125 A  
HETATM    8  C   UNL     1     -12.773  10.666  70.719  1.00  0.00    -0.468 A  
ENDROOT
BRANCH   6   9
HETATM    9  C   UNL     1     -11.110  11.288  67.336  1.00  0.00    -0.297 A  
HETATM   10  C   UNL     1     -11.277  11.953  66.112  1.00  0.00    -0.387 A  
HETATM   11  C   UNL     1      -9.402  11.002  62.863  1.00  0.00    -0.380 A  
HETATM   12  C   UNL     1     -10.464  11.361  65.049  1.00  0.00    -0.361 A  
HETATM   13  O   UNL     1      -8.003   9.150  62.482  1.00  0.00    -0.118 OA 
HETATM   14  C   UNL     1      -9.803  10.217  65.489  1.00  0.00    -0.298 A  
HETATM   15  H   UNL     1      -7.886   9.429  61.582  1.00  0.00     0.000 HD 
HETATM   16  C   UNL     1     -10.220  11.762  63.704  1.00  0.00    -0.461 A  
HETATM   17  S   UNL     1     -10.137   9.883  67.123  1.00  0.00    -0.228 SA 
HETATM   18  C   UNL     1      -8.961   9.454  64.656  1.00  0.00    -0.233 A  
HETATM   19  C   UNL     1      -8.789   9.861  63.340  1.00  0.00    -0.238 A  
BRANCH  10  20
HETATM   20  C   UNL     1     -12.053  13.187  65.975  1.00  0.00    -0.436 C  
HETATM   21  O   UNL     1     -13.284  13.143  65.952  1.00  0.00    -0.002 OA 
BRANCH  20  22
HETATM   22  C   UNL     1     -11.418  14.537  65.861  1.00  0.00    -0.345 A  
HETATM   23  C   UNL     1     -10.327  17.155  65.998  1.00  0.00    -0.309 A  
HETATM   24  C   UNL     1     -10.921  16.696  64.819  1.00  0.00    -0.123 A  
HETATM   25  C   UNL     1     -10.795  15.001  67.022  1.00  0.00    -0.311 A  
HETATM   26  C   UNL     1     -11.468  15.392  64.747  1.00  0.00    -0.337 A  
HETATM   27  C   UNL     1     -10.283  16.297  67.098  1.00  0.00    -0.276 A  
BRANCH  23  28
HETATM   28  O   UNL     1      -9.805  18.443  66.010  1.00  0.00    -0.489 OA 
BRANCH  28  29
HETATM   29  C   UNL     1     -10.053  19.103  67.263  1.00  0.00    -0.376 C  
BRANCH  29  30
HETATM   30  C   UNL     1      -8.874  19.833  67.932  1.00  0.00    -0.321 C  
BRANCH  30  31
HETATM   31  N   UNL     1      -7.590  19.131  67.652  1.00  0.00    -0.237 NA 
HETATM   32  C   UNL     1      -6.602  19.933  66.907  1.00  0.00    -0.198 C  
HETATM   33  C   UNL     1      -6.168  21.168  67.690  1.00  0.00    -0.426 C  
HETATM   34  C   UNL     1      -5.493  20.734  68.986  1.00  0.00    -0.398 C  
HETATM   35  C   UNL     1      -6.314  19.694  69.756  1.00  0.00    -0.366 C  
HETATM   36  C   UNL     1      -6.943  18.613  68.867  1.00  0.00    -0.291 C  
ENDBRANCH  30  31
ENDBRANCH  29  30
ENDBRANCH  28  29
ENDBRANCH  23  28
ENDBRANCH  20  22
ENDBRANCH  10  20
ENDBRANCH   6   9
TORSDOF 7
ENDMDL
MODEL       14
REMARK 921   NORMALIZED FREE ENERGY PREDICTED BY IDOCK:   -7.19 KCAL/MOL
REMARK 922        TOTAL FREE ENERGY PREDICTED BY IDOCK:  -12.21 KCAL/MOL
REMARK 923 INTER-LIGAND FREE ENERGY PREDICTED BY IDOCK:  -10.04 KCAL/MOL
REMARK 924 INTRA-LIGAND FREE ENERGY PREDICTED BY IDOCK:   -2.17 KCAL/MOL
REMARK 927      BINDING AFFINITY PREDICTED BY RF-SCORE:    0.00 PKD
ROOT
HETATM    1  O   UNL     1     -13.049  15.107  70.420  1.00  0.00    -0.617 OA 
HETATM    2  H   UNL     1     -12.717  15.602  69.680  1.00  0.00     0.000 HD 
HETATM    3  C   UNL     1     -12.775  13.782  70.580  1.00  0.00    -0.222 A  
HETATM    4  C   UNL     1     -13.260  13.058  71.661  1.00  0.00    -0.426 A  
HETATM    5  C   UNL     1     -12.903  11.709  71.817  1.00  0.00    -0.418 A  
HETATM    6  C   UNL     1     -12.074  11.061  70.886  1.00  0.00    -0.444 A  
HETATM    7  C   UNL     1     -11.654  11.810  69.770  1.00  0.00    -0.372 A  
HETATM    8  C   UNL     1     -11.988  13.166  69.626  1.00  0.00    -0.370 A  
ENDROOT
BRANCH   6   9
HETATM    9  C   UNL     1     -11.588   9.662  71.095  1.00  0.00    -0.381 A  
HETATM   10  C   UNL     1     -10.443   8.966  70.677  1.00  0.00    -0.271 A  
HETATM   11  C   UNL     1      -9.599   5.347  71.754  1.00  0.00    -0.186 A  
HETATM   12  C   UNL     1     -10.397   7.608  71.216  1.00  0.00    -0.215 A  
HETATM   13  O   UNL     1     -10.931   3.850  72.985  1.00  0.00    -0.162 OA 
HETATM   14  C   UNL     1     -11.554   7.302  71.930  1.00  0.00    -0.277 A  
HETATM   15  H   UNL     1     -10.254   3.189  72.906  1.00  0.00     0.000 HD 
HETATM   16  C   UNL     1      -9.394   6.598  71.164  1.00  0.00    -0.164 A  
HETATM   17  S   UNL     1     -12.641   8.610  71.961  1.00  0.00    -0.404 SA 
HETATM   18  C   UNL     1     -11.764   6.052  72.545  1.00  0.00    -0.280 A  
HETATM   19  C   UNL     1     -10.775   5.085  72.429  1.00  0.00    -0.200 A  
BRANCH  10  20
HETATM   20  C   UNL     1      -9.359   9.598  69.921  1.00  0.00    -0.228 C  
HETATM   21  O   UNL     1      -8.399  10.092  70.515  1.00  0.00    -0.124 OA 
BRANCH  20  22
HETATM   22  C   UNL     1      -9.351   9.679  68.428  1.00  0.00    -0.136 A  
HETATM   23  C   UNL     1      -9.233  10.191  65.637  1.00  0.00    -0.187 A  
HETATM   24  C   UNL     1     -10.227   9.360  66.164  1.00  0.00    -0.264 A  
HETATM   25  C   UNL     1      -8.347  10.483  67.881  1.00  0.00    -0.115 A  
HETATM   26  C   UNL     1     -10.290   9.104  67.555  1.00  0.00    -0.324 A  
HETATM   27  C   UNL     1      -8.307  10.757  66.513  1.00  0.00    -0.146 A  
BRANCH  23  28
HETATM   28  O   UNL     1      -9.219  10.404  64.264  1.00  0.00    -0.210 OA 
BRANCH  28  29
HETATM   29  C   UNL     1     -10.480  10.909  63.795  1.00  0.00    -0.259 C  
BRANCH  29  30
HETATM   30  C   UNL     1     -10.643  12.437  63.687  1.00  0.00    -0.445 C  
BRANCH  30  31
HETATM   31  N   UNL     1     -11.867  12.890  64.406  1.00  0.00    -0.359 NA 
HETATM   32  C   UNL     1     -11.814  12.727  65.870  1.00  0.00    -0.437 C  
HETATM   33  C   UNL     1     -10.704  13.568  66.494  1.00  0.00    -0.287 C  
HETATM   34  C   UNL     1     -10.976  15.043  66.227  1.00  0.00    -0.338 C  
HETATM   35  C   UNL     1     -11.295  15.324  64.754  1.00  0.00    -0.396 C  
HETATM   36  C   UNL     1     -12.223  14.286  64.109  1.00  0.00    -0.378 C  
ENDBRANCH  30  31
ENDBRANCH  29  30
ENDBRANCH  28  29
ENDBRANCH  23  28
ENDBRANCH  20  22
ENDBRANCH  10  20
ENDBRANCH   6   9
TORSDOF 7
ENDMDL
MODEL       15
REMARK 921   NORMALIZED FREE ENERGY PREDICTED BY IDOCK:   -7.19 KCAL/MOL
REMARK 922        TOTAL FREE ENERGY PREDICTED BY IDOCK:  -12.21 KCAL/MOL
REMARK 923 INTER-LIGAND FREE ENERGY PREDICTED BY IDOCK:  -10.27 KCAL/MOL
REMARK 924 INTRA-LIGAND FREE ENERGY PREDICTED BY IDOCK:   -1.94 KCAL/MOL
REMARK 927      BINDING AFFINITY PREDICTED BY RF-SCORE:    0.00 PKD
ROOT
HETATM    1  O   UNL     1      -5.957  12.141  66.535  1.00  0.00    -0.500 OA 
HETATM    2  H   UNL     1      -5.231  12.549  66.993  1.00  0.00     0.000 HD 
HETATM    3  C   UNL     1      -6.961  11.506  67.202  1.00  0.00    -0.138 A  
HETATM    4  C   UNL     1      -8.023  10.911  66.533  1.00  0.00    -0.152 A  
HETATM    5  C   UNL     1      -9.066  10.319  67.263  1.00  0.00    -0.150 A  
HETATM    6  C   UNL     1      -9.054  10.299  68.669  1.00  0.00    -0.152 A  
HETATM    7  C   UNL     1      -7.930  10.857  69.309  1.00  0.00    -0.076 A  
HETATM    8  C   UNL     1      -6.899  11.471  68.581  1.00  0.00    -0.077 A  
ENDROOT
BRANCH   6   9
HETATM    9  C   UNL     1     -10.209   9.780  69.465  1.00  0.00    -0.221 A  
HETATM   10  C   UNL     1     -11.344  10.386  70.025  1.00  0.00    -0.384 A  
HETATM   11  C   UNL     1     -14.171   8.444  71.815  1.00  0.00    -0.536 A  
HETATM   12  C   UNL     1     -12.230   9.413  70.661  1.00  0.00    -0.147 A  
HETATM   13  O   UNL     1     -14.237   6.160  72.372  1.00  0.00    -0.619 OA 
HETATM   14  C   UNL     1     -11.679   8.133  70.647  1.00  0.00    -0.143 A  
HETATM   15  H   UNL     1     -15.087   6.287  72.777  1.00  0.00     0.000 HD 
HETATM   16  C   UNL     1     -13.525   9.543  71.241  1.00  0.00    -0.352 A  
HETATM   17  S   UNL     1     -10.161   8.109  69.878  1.00  0.00    -0.209 SA 
HETATM   18  C   UNL     1     -12.329   7.015  71.205  1.00  0.00    -0.423 A  
HETATM   19  C   UNL     1     -13.570   7.201  71.797  1.00  0.00    -0.263 A  
BRANCH  10  20
HETATM   20  C   UNL     1     -11.661  11.805  69.842  1.00  0.00    -0.323 C  
HETATM   21  O   UNL     1     -12.186  12.442  70.756  1.00  0.00    -0.369 OA 
BRANCH  20  22
HETATM   22  C   UNL     1     -11.374  12.544  68.573  1.00  0.00    -0.337 A  
HETATM   23  C   UNL     1     -10.793  14.252  66.381  1.00  0.00    -0.307 A  
HETATM   24  C   UNL     1     -11.733  13.225  66.249  1.00  0.00    -0.412 A  
HETATM   25  C   UNL     1     -10.417  13.556  68.679  1.00  0.00    -0.242 A  
HETATM   26  C   UNL     1     -12.026  12.372  67.341  1.00  0.00    -0.246 A  
HETATM   27  C   UNL     1     -10.152  14.413  67.610  1.00  0.00    -0.222 A  
BRANCH  23  28
HETATM   28  O   UNL     1     -10.544  15.057  65.275  1.00  0.00    -0.336 OA 
BRANCH  28  29
HETATM   29  C   UNL     1      -9.683  16.159  65.608  1.00  0.00    -0.204 C  
BRANCH  29  30
HETATM   30  C   UNL     1     -10.331  17.546  65.779  1.00  0.00    -0.209 C  
BRANCH  30  31
HETATM   31  N   UNL     1      -9.293  18.589  66.016  1.00  0.00    -0.493 NA 
HETATM   32  C   UNL     1      -9.829  19.928  66.319  1.00  0.00    -0.461 C  
HETATM   33  C   UNL     1     -10.641  19.935  67.611  1.00  0.00    -0.483 C  
HETATM   34  C   UNL     1      -9.740  19.549  68.778  1.00  0.00    -0.513 C  
HETATM   35  C   UNL     1      -8.923  18.282  68.494  1.00  0.00    -0.329 C  
HETATM   36  C   UNL     1      -8.342  18.220  67.075  1.00  0.00    -0.248 C  
ENDBRANCH  30  31
ENDBRANCH  29  30
ENDBRANCH  28  29
ENDBRANCH  23  28
ENDBRANCH  20  22
ENDBRANCH  10  20
ENDBRANCH   6   9
TORSDOF 7
ENDMDL
MODEL       16
REMARK 921   NORMALIZED FREE ENERGY PREDICTED BY IDOCK:   -7.18 KCAL/MOL
REMARK 922        TOTAL FREE ENERGY PREDICTED BY IDOCK:  -12.20 KCAL/MOL
REMARK 923 INTER-LIGAND FREE ENERGY PREDICTED BY IDOCK:   -9.64 KCAL/MOL
REMARK 924 INTRA-LIGAND FREE ENERGY PREDICTED BY IDOCK:   -2.55 KCAL/MOL
REMARK 927      BINDING AFFINITY PREDICTED BY RF-SCORE:    0.00 PKD
ROOT
HETATM    1  O   UNL     1      -9.828   8.102  73.059  1.00  0.00    -0.280 OA 
HETATM    2  H   UNL     1      -8.960   7.836  73.339  1.00  0.00     0.000 HD 
HETATM    3  C   UNL     1     -10.031   8.780  71.895  1.00  0.00    -0.331 A  
HETATM    4  C   UNL     1     -11.299   9.168  71.484  1.00  0.00    -0.439 A  
HETATM    5  C   UNL     1     -11.468   9.813  70.248  1.00  0.00    -0.317 A  
HETATM    6  C   UNL     1     -10.371  10.094  69.415  1.00  0.00    -0.251 A  
HETATM    7  C   UNL     1      -9.094   9.741  69.896  1.00  0.00    -0.257 A  
HETATM    8  C   UNL     1      -8.927   9.074  71.118  1.00  0.00    -0.303 A  
ENDROOT
BRANCH   6   9
HETATM    9  C   UNL     1     -10.541  10.672  68.047  1.00  0.00    -0.211 A  
HETATM   10  C   UNL     1      -9.926  10.421  66.811  1.00  0.00    -0.256 A  
HETATM   11  C   UNL     1     -10.977  12.108  63.491  1.00  0.00    -0.521 A  
HETATM   12  C   UNL     1     -10.509  11.220  65.734  1.00  0.00    -0.310 A  
HETATM   13  O   UNL     1     -12.532  13.844  63.173  1.00  0.00    -1.121 OA 
HETATM   14  C   UNL     1     -11.464  12.111  66.218  1.00  0.00    -0.374 A  
HETATM   15  H   UNL     1     -12.344  13.835  62.241  1.00  0.00     0.000 HD 
HETATM   16  C   UNL     1     -10.297  11.215  64.325  1.00  0.00    -0.413 A  
HETATM   17  S   UNL     1     -11.659  11.974  67.902  1.00  0.00    -0.325 SA 
HETATM   18  C   UNL     1     -12.169  13.002  65.385  1.00  0.00    -0.520 A  
HETATM   19  C   UNL     1     -11.896  12.990  64.024  1.00  0.00    -0.445 A  
BRANCH  10  20
HETATM   20  C   UNL     1      -8.930   9.365  66.617  1.00  0.00    -0.146 C  
HETATM   21  O   UNL     1      -7.750   9.658  66.420  1.00  0.00    -0.100 OA 
BRANCH  20  22
HETATM   22  C   UNL     1      -9.274   7.909  66.648  1.00  0.00    -0.221 A  
HETATM   23  C   UNL     1      -9.719   5.116  66.394  1.00  0.00    -0.173 A  
HETATM   24  C   UNL     1     -10.743   5.960  66.837  1.00  0.00    -0.395 A  
HETATM   25  C   UNL     1      -8.254   7.049  66.234  1.00  0.00    -0.120 A  
HETATM   26  C   UNL     1     -10.525   7.353  66.963  1.00  0.00    -0.404 A  
HETATM   27  C   UNL     1      -8.482   5.680  66.083  1.00  0.00    -0.128 A  
BRANCH  23  28
HETATM   28  O   UNL     1      -9.990   3.757  66.291  1.00  0.00    -0.123 OA 
BRANCH  28  29
HETATM   29  C   UNL     1      -9.138   2.982  67.153  1.00  0.00    -0.175 C  
BRANCH  29  30
HETATM   30  C   UNL     1      -9.497   2.927  68.649  1.00  0.00    -0.124 C  
BRANCH  30  31
HETATM   31  N   UNL     1      -8.384   3.469  69.479  1.00  0.00    -0.055 NA 
HETATM   32  C   UNL     1      -8.407   4.933  69.654  1.00  0.00    -0.083 C  
HETATM   33  C   UNL     1      -9.659   5.397  70.392  1.00  0.00    -0.233 C  
HETATM   34  C   UNL     1      -9.678   4.788  71.789  1.00  0.00    -0.225 C  
HETATM   35  C   UNL     1      -9.417   3.278  71.775  1.00  0.00    -0.215 C  
HETATM   36  C   UNL     1      -8.305   2.846  70.809  1.00  0.00    -0.053 C  
ENDBRANCH  30  31
ENDBRANCH  29  30
ENDBRANCH  28  29
ENDBRANCH  23  28
ENDBRANCH  20  22
ENDBRANCH  10  20
ENDBRANCH   6   9
TORSDOF 7
ENDMDL
MODEL       17
REMARK 921   NORMALIZED FREE ENERGY PREDICTED BY IDOCK:   -7.11 KCAL/MOL
REMARK 922        TOTAL FREE ENERGY PREDICTED BY IDOCK:  -12.10 KCAL/MOL
REMARK 923 INTER-LIGAND FREE ENERGY PREDICTED BY IDOCK:   -9.46 KCAL/MOL
REMARK 924 INTRA-LIGAND FREE ENERGY PREDICTED BY IDOCK:   -2.64 KCAL/MOL
REMARK 927      BINDING AFFINITY PREDICTED BY RF-SCORE:    0.00 PKD
ROOT
HETATM    1  O   UNL     1     -12.955  16.000  71.689  1.00  0.00    -0.495 OA 
HETATM    2  H   UNL     1     -12.954  16.949  71.657  1.00  0.00     0.000 HD 
HETATM    3  C   UNL     1     -12.513  15.245  70.645  1.00  0.00    -0.406 A  
HETATM    4  C   UNL     1     -12.513  13.857  70.692  1.00  0.00    -0.436 A  
HETATM    5  C   UNL     1     -11.992  13.120  69.616  1.00  0.00    -0.370 A  
HETATM    6  C   UNL     1     -11.482  13.758  68.472  1.00  0.00    -0.342 A  
HETATM    7  C   UNL     1     -11.558  15.165  68.436  1.00  0.00    -0.356 A  
HETATM    8  C   UNL     1     -12.053  15.903  69.521  1.00  0.00    -0.200 A  
ENDROOT
BRANCH   6   9
HETATM    9  C   UNL     1     -10.818  12.998  67.369  1.00  0.00    -0.251 A  
HETATM   10  C   UNL     1      -9.489  12.618  67.125  1.00  0.00    -0.214 A  
HETATM   11  C   UNL     1      -8.389  10.403  64.149  1.00  0.00    -0.139 A  
HETATM   12  C   UNL     1      -9.364  11.805  65.915  1.00  0.00    -0.214 A  
HETATM   13  O   UNL     1      -9.690   9.648  62.341  1.00  0.00    -0.562 OA 
HETATM   14  C   UNL     1     -10.580  11.695  65.245  1.00  0.00    -0.281 A  
HETATM   15  H   UNL     1      -8.925   9.220  61.975  1.00  0.00     0.000 HD 
HETATM   16  C   UNL     1      -8.258  11.108  65.349  1.00  0.00     0.159 A  
HETATM   17  S   UNL     1     -11.825  12.524  66.055  1.00  0.00    -0.386 SA 
HETATM   18  C   UNL     1     -10.728  10.971  64.046  1.00  0.00    -0.331 A  
HETATM   19  C   UNL     1      -9.611  10.345  63.510  1.00  0.00    -0.310 A  
BRANCH  10  20
HETATM   20  C   UNL     1      -8.399  12.880  68.067  1.00  0.00    -0.169 C  
HETATM   21  O   UNL     1      -7.923  11.958  68.732  1.00  0.00    -0.123 OA 
BRANCH  20  22
HETATM   22  C   UNL     1      -7.814  14.241  68.273  1.00  0.00    -0.141 A  
HETATM   23  C   UNL     1      -6.480  16.746  68.373  1.00  0.00    -0.144 A  
HETATM   24  C   UNL     1      -6.853  16.094  69.553  1.00  0.00    -0.190 A  
HETATM   25  C   UNL     1      -7.461  14.919  67.104  1.00  0.00    -0.111 A  
HETATM   26  C   UNL     1      -7.517  14.844  69.507  1.00  0.00    -0.162 A  
HETATM   27  C   UNL     1      -6.780  16.137  67.154  1.00  0.00    -0.227 A  
BRANCH  23  28
HETATM   28  O   UNL     1      -5.833  17.971  68.479  1.00  0.00    -0.177 OA 
BRANCH  28  29
HETATM   29  C   UNL     1      -6.731  19.007  68.911  1.00  0.00    -0.291 C  
BRANCH  29  30
HETATM   30  C   UNL     1      -7.607  19.685  67.842  1.00  0.00    -0.296 C  
BRANCH  30  31
HETATM   31  N   UNL     1      -9.037  19.702  68.263  1.00  0.00    -0.342 NA 
HETATM   32  C   UNL     1      -9.901  20.587  67.462  1.00  0.00    -0.394 C  
HETATM   33  C   UNL     1      -9.966  20.147  66.003  1.00  0.00    -0.487 C  
HETATM   34  C   UNL     1     -10.573  18.751  65.922  1.00  0.00    -0.405 C  
HETATM   35  C   UNL     1      -9.918  17.769  66.900  1.00  0.00    -0.332 C  
HETATM   36  C   UNL     1      -9.643  18.363  68.289  1.00  0.00    -0.334 C  
ENDBRANCH  30  31
ENDBRANCH  29  30
ENDBRANCH  28  29
ENDBRANCH  23  28
ENDBRANCH  20  22
ENDBRANCH  10  20
ENDBRANCH   6   9
TORSDOF 7
ENDMDL
MODEL       18
REMARK 921   NORMALIZED FREE ENERGY PREDICTED BY IDOCK:   -7.11 KCAL/MOL
REMARK 922        TOTAL FREE ENERGY PREDICTED BY IDOCK:  -12.09 KCAL/MOL
REMARK 923 INTER-LIGAND FREE ENERGY PREDICTED BY IDOCK:  -10.18 KCAL/MOL
REMARK 924 INTRA-LIGAND FREE ENERGY PREDICTED BY IDOCK:   -1.91 KCAL/MOL
REMARK 927      BINDING AFFINITY PREDICTED BY RF-SCORE:    0.00 PKD
ROOT
HETATM    1  O   UNL     1      -5.251  11.329  65.042  1.00  0.00    -0.498 OA 
HETATM    2  H   UNL     1      -4.685  12.087  65.124  1.00  0.00     0.000 HD 
HETATM    3  C   UNL     1      -6.232  11.062  65.949  1.00  0.00    -0.037 A  
HETATM    4  C   UNL     1      -7.061   9.954  65.828  1.00  0.00    -0.110 A  
HETATM    5  C   UNL     1      -8.097   9.751  66.754  1.00  0.00    -0.120 A  
HETATM    6  C   UNL     1      -8.307  10.641  67.822  1.00  0.00    -0.115 A  
HETATM    7  C   UNL     1      -7.406  11.717  67.947  1.00  0.00    -0.096 A  
HETATM    8  C   UNL     1      -6.387  11.935  67.008  1.00  0.00    -0.141 A  
ENDROOT
BRANCH   6   9
HETATM    9  C   UNL     1      -9.474  10.508  68.748  1.00  0.00    -0.180 A  
HETATM   10  C   UNL     1     -10.752  11.086  68.777  1.00  0.00    -0.240 A  
HETATM   11  C   UNL     1     -13.489  10.152  71.348  1.00  0.00    -0.325 A  
HETATM   12  C   UNL     1     -11.567  10.563  69.873  1.00  0.00    -0.384 A  
HETATM   13  O   UNL     1     -13.298   8.751  73.227  1.00  0.00    -0.915 OA 
HETATM   14  C   UNL     1     -10.839   9.695  70.682  1.00  0.00    -0.320 A  
HETATM   15  H   UNL     1     -14.206   8.927  73.446  1.00  0.00     0.000 HD 
HETATM   16  C   UNL     1     -12.936  10.760  70.217  1.00  0.00    -0.132 A  
HETATM   17  S   UNL     1      -9.242   9.506  70.129  1.00  0.00    -0.249 SA 
HETATM   18  C   UNL     1     -11.391   9.061  71.813  1.00  0.00    -0.447 A  
HETATM   19  C   UNL     1     -12.717   9.319  72.133  1.00  0.00    -0.390 A  
BRANCH  10  20
HETATM   20  C   UNL     1     -11.244  11.985  67.730  1.00  0.00    -0.271 C  
HETATM   21  O   UNL     1     -11.883  11.533  66.779  1.00  0.00    -0.511 OA 
BRANCH  20  22
HETATM   22  C   UNL     1     -11.009  13.462  67.752  1.00  0.00    -0.281 A  
HETATM   23  C   UNL     1     -10.932  16.298  67.861  1.00  0.00    -0.310 A  
HETATM   24  C   UNL     1     -10.141  15.603  66.941  1.00  0.00    -0.265 A  
HETATM   25  C   UNL     1     -11.771  14.171  68.684  1.00  0.00    -0.385 A  
HETATM   26  C   UNL     1     -10.179  14.189  66.883  1.00  0.00    -0.267 A  
HETATM   27  C   UNL     1     -11.753  15.566  68.719  1.00  0.00    -0.372 A  
BRANCH  23  28
HETATM   28  O   UNL     1     -10.853  17.686  67.875  1.00  0.00    -0.374 OA 
BRANCH  28  29
HETATM   29  C   UNL     1     -10.044  18.158  68.966  1.00  0.00    -0.275 C  
BRANCH  29  30
HETATM   30  C   UNL     1      -9.052  19.300  68.678  1.00  0.00    -0.380 C  
BRANCH  30  31
HETATM   31  N   UNL     1      -7.677  18.766  68.467  1.00  0.00    -0.317 NA 
HETATM   32  C   UNL     1      -7.402  18.306  67.094  1.00  0.00    -0.202 C  
HETATM   33  C   UNL     1      -7.498  19.446  66.085  1.00  0.00    -0.297 C  
HETATM   34  C   UNL     1      -6.449  20.502  66.412  1.00  0.00    -0.282 C  
HETATM   35  C   UNL     1      -6.460  20.901  67.892  1.00  0.00    -0.382 C  
HETATM   36  C   UNL     1      -6.626  19.718  68.856  1.00  0.00    -0.317 C  
ENDBRANCH  30  31
ENDBRANCH  29  30
ENDBRANCH  28  29
ENDBRANCH  23  28
ENDBRANCH  20  22
ENDBRANCH  10  20
ENDBRANCH   6   9
TORSDOF 7
ENDMDL
MODEL       19
REMARK 921   NORMALIZED FREE ENERGY PREDICTED BY IDOCK:   -7.09 KCAL/MOL
REMARK 922        TOTAL FREE ENERGY PREDICTED BY IDOCK:  -12.07 KCAL/MOL
REMARK 923 INTER-LIGAND FREE ENERGY PREDICTED BY IDOCK:   -9.80 KCAL/MOL
REMARK 924 INTRA-LIGAND FREE ENERGY PREDICTED BY IDOCK:   -2.27 KCAL/MOL
REMARK 927      BINDING AFFINITY PREDICTED BY RF-SCORE:    0.00 PKD
ROOT
HETATM    1  O   UNL     1      -8.795   5.306  66.726  1.00  0.00    -0.112 OA 
HETATM    2  H   UNL     1      -9.305   4.769  67.321  1.00  0.00     0.000 HD 
HETATM    3  C   UNL     1      -9.138   6.594  66.445  1.00  0.00    -0.152 A  
HETATM    4  C   UNL     1      -8.392   7.379  65.575  1.00  0.00    -0.139 A  
HETATM    5  C   UNL     1      -8.749   8.720  65.362  1.00  0.00    -0.217 A  
HETATM    6  C   UNL     1      -9.865   9.289  65.999  1.00  0.00    -0.363 A  
HETATM    7  C   UNL     1     -10.633   8.443  66.824  1.00  0.00    -0.227 A  
HETATM    8  C   UNL     1     -10.263   7.111  67.059  1.00  0.00    -0.339 A  
ENDROOT
BRANCH   6   9
HETATM    9  C   UNL     1     -10.193  10.743  65.877  1.00  0.00    -0.259 A  
HETATM   10  C   UNL     1     -10.113  11.827  66.765  1.00  0.00    -0.235 A  
HETATM   11  C   UNL     1     -10.896  15.487  65.783  1.00  0.00    -0.337 A  
HETATM   12  C   UNL     1     -10.493  13.088  66.129  1.00  0.00    -0.289 A  
HETATM   13  O   UNL     1     -11.782  16.289  63.758  1.00  0.00    -1.511 OA 
HETATM   14  C   UNL     1     -10.940  12.888  64.825  1.00  0.00    -0.318 A  
HETATM   15  H   UNL     1     -11.770  17.172  64.107  1.00  0.00     0.000 HD 
HETATM   16  C   UNL     1     -10.451  14.435  66.590  1.00  0.00    -0.274 A  
HETATM   17  S   UNL     1     -10.886  11.246  64.383  1.00  0.00    -0.252 SA 
HETATM   18  C   UNL     1     -11.374  13.942  63.996  1.00  0.00    -0.109 A  
HETATM   19  C   UNL     1     -11.355  15.233  64.506  1.00  0.00    -0.300 A  
BRANCH  10  20
HETATM   20  C   UNL     1      -9.560  11.711  68.116  1.00  0.00    -0.190 C  
HETATM   21  O   UNL     1      -8.449  12.177  68.371  1.00  0.00    -0.169 OA 
BRANCH  20  22
HETATM   22  C   UNL     1     -10.290  11.041  69.237  1.00  0.00    -0.181 A  
HETATM   23  C   UNL     1     -11.503   9.454  71.255  1.00  0.00    -0.363 A  
HETATM   24  C   UNL     1     -12.228  10.467  70.619  1.00  0.00    -0.441 A  
HETATM   25  C   UNL     1      -9.572  10.044  69.902  1.00  0.00    -0.233 A  
HETATM   26  C   UNL     1     -11.627  11.259  69.611  1.00  0.00    -0.401 A  
HETATM   27  C   UNL     1     -10.177   9.246  70.875  1.00  0.00    -0.371 A  
BRANCH  23  28
HETATM   28  O   UNL     1     -12.144   8.710  72.239  1.00  0.00    -0.364 OA 
BRANCH  28  29
HETATM   29  C   UNL     1     -11.308   7.646  72.725  1.00  0.00    -0.367 C  
BRANCH  29  30
HETATM   30  C   UNL     1     -11.430   6.272  72.040  1.00  0.00    -0.310 C  
BRANCH  30  31
HETATM   31  N   UNL     1     -10.328   5.366  72.473  1.00  0.00    -0.198 NA 
HETATM   32  C   UNL     1     -10.157   4.165  71.635  1.00  0.00    -0.128 C  
HETATM   33  C   UNL     1      -9.780   4.523  70.201  1.00  0.00    -0.287 C  
HETATM   34  C   UNL     1      -8.443   5.255  70.196  1.00  0.00    -0.109 C  
HETATM   35  C   UNL     1      -8.395   6.397  71.217  1.00  0.00    -0.123 C  
HETATM   36  C   UNL     1      -9.029   6.050  72.571  1.00  0.00    -0.132 C  
ENDBRANCH  30  31
ENDBRANCH  29  30
ENDBRANCH  28  29
ENDBRANCH  23  28
ENDBRANCH  20  22
ENDBRANCH  10  20
ENDBRANCH   6   9
TORSDOF 7
ENDMDL
MODEL       20
REMARK 921   NORMALIZED FREE ENERGY PREDICTED BY IDOCK:   -7.09 KCAL/MOL
REMARK 922        TOTAL FREE ENERGY PREDICTED BY IDOCK:  -12.07 KCAL/MOL
REMARK 923 INTER-LIGAND FREE ENERGY PREDICTED BY IDOCK:   -9.89 KCAL/MOL
REMARK 924 INTRA-LIGAND FREE ENERGY PREDICTED BY IDOCK:   -2.17 KCAL/MOL
REMARK 927      BINDING AFFINITY PREDICTED BY RF-SCORE:    0.00 PKD
ROOT
HETATM    1  O   UNL     1      -8.121   8.599  67.299  1.00  0.00    -0.101 OA 
HETATM    2  H   UNL     1      -8.465   8.080  66.581  1.00  0.00     0.000 HD 
HETATM    3  C   UNL     1      -8.236   9.956  67.324  1.00  0.00    -0.121 A  
HETATM    4  C   UNL     1      -7.734  10.716  68.373  1.00  0.00    -0.106 A  
HETATM    5  C   UNL     1      -7.927  12.106  68.385  1.00  0.00    -0.152 A  
HETATM    6  C   UNL     1      -8.608  12.759  67.343  1.00  0.00    -0.194 A  
HETATM    7  C   UNL     1      -9.046  11.963  66.267  1.00  0.00    -0.188 A  
HETATM    8  C   UNL     1      -8.877  10.570  66.265  1.00  0.00    -0.172 A  
ENDROOT
BRANCH   6   9
HETATM    9  C   UNL     1      -8.926  14.219  67.395  1.00  0.00    -0.201 A  
HETATM   10  C   UNL     1     -10.125  14.941  67.510  1.00  0.00    -0.228 A  
HETATM   11  C   UNL     1     -10.304  18.792  67.838  1.00  0.00    -0.461 A  
HETATM   12  C   UNL     1      -9.892  16.382  67.589  1.00  0.00    -0.243 A  
HETATM   13  O   UNL     1      -8.550  20.348  67.660  1.00  0.00    -0.303 OA 
HETATM   14  C   UNL     1      -8.544  16.693  67.427  1.00  0.00    -0.189 A  
HETATM   15  H   UNL     1      -9.170  21.056  67.792  1.00  0.00     0.000 HD 
HETATM   16  C   UNL     1     -10.775  17.475  67.829  1.00  0.00    -0.333 A  
HETATM   17  S   UNL     1      -7.597  15.297  67.206  1.00  0.00    -0.194 SA 
HETATM   18  C   UNL     1      -8.056  18.014  67.453  1.00  0.00    -0.227 A  
HETATM   19  C   UNL     1      -8.961  19.048  67.646  1.00  0.00    -0.289 A  
BRANCH  10  20
HETATM   20  C   UNL     1     -11.428  14.297  67.688  1.00  0.00    -0.346 C  
HETATM   21  O   UNL     1     -12.282  14.378  66.804  1.00  0.00    -0.420 OA 
BRANCH  20  22
HETATM   22  C   UNL     1     -11.790  13.523  68.916  1.00  0.00    -0.384 A  
HETATM   23  C   UNL     1     -12.643  11.811  71.014  1.00  0.00    -0.310 A  
HETATM   24  C   UNL     1     -12.659  13.199  71.182  1.00  0.00    -0.403 A  
HETATM   25  C   UNL     1     -11.754  12.134  68.775  1.00  0.00    -0.374 A  
HETATM   26  C   UNL     1     -12.236  14.056  70.137  1.00  0.00    -0.425 A  
HETATM   27  C   UNL     1     -12.200  11.294  69.797  1.00  0.00    -0.343 A  
BRANCH  23  28
HETATM   28  O   UNL     1     -13.068  11.019  72.074  1.00  0.00    -0.496 OA 
BRANCH  28  29
HETATM   29  C   UNL     1     -13.437   9.701  71.635  1.00  0.00    -0.374 C  
BRANCH  29  30
HETATM   30  C   UNL     1     -12.838   8.501  72.392  1.00  0.00    -0.321 C  
BRANCH  30  31
HETATM   31  N   UNL     1     -11.360   8.444  72.208  1.00  0.00    -0.362 NA 
HETATM   32  C   UNL     1     -10.666   7.509  73.112  1.00  0.00    -0.398 C  
HETATM   33  C   UNL     1     -11.108   6.067  72.884  1.00  0.00    -0.290 C  
HETATM   34  C   UNL     1     -10.753   5.647  71.462  1.00  0.00    -0.306 C  
HETATM   35  C   UNL     1     -11.209   6.672  70.417  1.00  0.00    -0.398 C  
HETATM   36  C   UNL     1     -10.966   8.131  70.827  1.00  0.00    -0.244 C  
ENDBRANCH  30  31
ENDBRANCH  29  30
ENDBRANCH  28  29
ENDBRANCH  23  28
ENDBRANCH  20  22
ENDBRANCH  10  20
ENDBRANCH   6   9
TORSDOF 7
ENDMDL
MODEL       21
REMARK 921   NORMALIZED FREE ENERGY PREDICTED BY IDOCK:   -7.04 KCAL/MOL
REMARK 922        TOTAL FREE ENERGY PREDICTED BY IDOCK:  -12.01 KCAL/MOL
REMARK 923 INTER-LIGAND FREE ENERGY PREDICTED BY IDOCK:   -9.60 KCAL/MOL
REMARK 924 INTRA-LIGAND FREE ENERGY PREDICTED BY IDOCK:   -2.40 KCAL/MOL
REMARK 927      BINDING AFFINITY PREDICTED BY RF-SCORE:    0.00 PKD
ROOT
HETATM    1  O   UNL     1      -9.658  12.220  63.549  1.00  0.00    -0.650 OA 
HETATM    2  H   UNL     1      -8.720  12.183  63.409  1.00  0.00     0.000 HD 
HETATM    3  C   UNL     1     -10.194  12.414  64.787  1.00  0.00    -0.279 A  
HETATM    4  C   UNL     1     -11.566  12.469  64.992  1.00  0.00    -0.392 A  
HETATM    5  C   UNL     1     -12.072  12.730  66.275  1.00  0.00    -0.400 A  
HETATM    6  C   UNL     1     -11.216  12.922  67.373  1.00  0.00    -0.331 A  
HETATM    7  C   UNL     1      -9.833  12.795  67.137  1.00  0.00    -0.216 A  
HETATM    8  C   UNL     1      -9.325  12.560  65.851  1.00  0.00    -0.039 A  
ENDROOT
BRANCH   6   9
HETATM    9  C   UNL     1     -11.730  13.316  68.721  1.00  0.00    -0.329 A  
HETATM   10  C   UNL     1     -12.270  12.593  69.796  1.00  0.00    -0.209 A  
HETATM   11  C   UNL     1     -13.225  14.170  73.198  1.00  0.00    -0.253 A  
HETATM   12  C   UNL     1     -12.561  13.451  70.944  1.00  0.00    -0.406 A  
HETATM   13  O   UNL     1     -13.242  16.446  73.790  1.00  0.00    -0.794 OA 
HETATM   14  C   UNL     1     -12.326  14.793  70.653  1.00  0.00    -0.337 A  
HETATM   15  H   UNL     1     -13.560  16.214  74.655  1.00  0.00     0.000 HD 
HETATM   16  C   UNL     1     -12.994  13.152  72.268  1.00  0.00    -0.354 A  
HETATM   17  S   UNL     1     -11.760  15.004  69.063  1.00  0.00    -0.321 SA 
HETATM   18  C   UNL     1     -12.536  15.825  71.588  1.00  0.00    -0.521 A  
HETATM   19  C   UNL     1     -13.001  15.487  72.851  1.00  0.00    -0.477 A  
BRANCH  10  20
HETATM   20  C   UNL     1     -12.374  11.132  69.801  1.00  0.00    -0.246 C  
HETATM   21  O   UNL     1     -13.435  10.590  70.113  1.00  0.00     0.096 OA 
BRANCH  20  22
HETATM   22  C   UNL     1     -11.232  10.237  69.437  1.00  0.00    -0.292 A  
HETATM   23  C   UNL     1      -8.847   8.780  68.932  1.00  0.00    -0.137 A  
HETATM   24  C   UNL     1      -9.843   8.872  67.954  1.00  0.00    -0.205 A  
HETATM   25  C   UNL     1     -10.241  10.111  70.414  1.00  0.00    -0.116 A  
HETATM   26  C   UNL     1     -11.032   9.599  68.202  1.00  0.00    -0.185 A  
HETATM   27  C   UNL     1      -9.057   9.418  70.155  1.00  0.00    -0.262 A  
BRANCH  23  28
HETATM   28  O   UNL     1      -7.702   8.052  68.634  1.00  0.00    -0.101 OA 
BRANCH  28  29
HETATM   29  C   UNL     1      -7.961   6.638  68.630  1.00  0.00    -0.118 C  
BRANCH  29  30
HETATM   30  C   UNL     1      -8.287   5.967  69.978  1.00  0.00    -0.123 C  
BRANCH  30  31
HETATM   31  N   UNL     1      -9.440   5.033  69.838  1.00  0.00    -0.145 NA 
HETATM   32  C   UNL     1      -9.672   4.167  71.009  1.00  0.00    -0.190 C  
HETATM   33  C   UNL     1     -10.019   4.977  72.254  1.00  0.00    -0.233 C  
HETATM   34  C   UNL     1     -11.314   5.745  72.013  1.00  0.00    -0.289 C  
HETATM   35  C   UNL     1     -11.305   6.510  70.684  1.00  0.00    -0.409 C  
HETATM   36  C   UNL     1     -10.699   5.721  69.515  1.00  0.00    -0.338 C  
ENDBRANCH  30  31
ENDBRANCH  29  30
ENDBRANCH  28  29
ENDBRANCH  23  28
ENDBRANCH  20  22
ENDBRANCH  10  20
ENDBRANCH   6   9
TORSDOF 7
ENDMDL
MODEL       22
REMARK 921   NORMALIZED FREE ENERGY PREDICTED BY IDOCK:   -7.02 KCAL/MOL
REMARK 922        TOTAL FREE ENERGY PREDICTED BY IDOCK:  -11.97 KCAL/MOL
REMARK 923 INTER-LIGAND FREE ENERGY PREDICTED BY IDOCK:   -9.87 KCAL/MOL
REMARK 924 INTRA-LIGAND FREE ENERGY PREDICTED BY IDOCK:   -2.09 KCAL/MOL
REMARK 927      BINDING AFFINITY PREDICTED BY RF-SCORE:    0.00 PKD
ROOT
HETATM    1  O   UNL     1      -8.373  20.865  67.259  1.00  0.00    -0.510 OA 
HETATM    2  H   UNL     1      -7.451  21.016  67.431  1.00  0.00     0.000 HD 
HETATM    3  C   UNL     1      -8.971  19.673  67.538  1.00  0.00    -0.317 A  
HETATM    4  C   UNL     1     -10.319  19.452  67.288  1.00  0.00    -0.554 A  
HETATM    5  C   UNL     1     -10.906  18.228  67.647  1.00  0.00    -0.272 A  
HETATM    6  C   UNL     1     -10.151  17.203  68.243  1.00  0.00    -0.314 A  
HETATM    7  C   UNL     1      -8.774  17.441  68.422  1.00  0.00    -0.271 A  
HETATM    8  C   UNL     1      -8.192  18.673  68.088  1.00  0.00    -0.327 A  
ENDROOT
BRANCH   6   9
HETATM    9  C   UNL     1     -10.780  15.940  68.737  1.00  0.00    -0.265 A  
HETATM   10  C   UNL     1     -11.031  14.692  68.146  1.00  0.00    -0.269 A  
HETATM   11  C   UNL     1     -12.507  11.659  70.043  1.00  0.00    -0.166 A  
HETATM   12  C   UNL     1     -11.616  13.743  69.092  1.00  0.00    -0.363 A  
HETATM   13  O   UNL     1     -13.346  11.588  72.239  1.00  0.00    -0.624 OA 
HETATM   14  C   UNL     1     -11.878  14.343  70.322  1.00  0.00    -0.313 A  
HETATM   15  H   UNL     1     -13.564  10.671  72.121  1.00  0.00     0.000 HD 
HETATM   16  C   UNL     1     -11.921  12.355  68.981  1.00  0.00    -0.291 A  
HETATM   17  S   UNL     1     -11.418  15.980  70.337  1.00  0.00    -0.348 SA 
HETATM   18  C   UNL     1     -12.452  13.647  71.404  1.00  0.00    -0.374 A  
HETATM   19  C   UNL     1     -12.770  12.307  71.233  1.00  0.00    -0.251 A  
BRANCH  10  20
HETATM   20  C   UNL     1     -10.601  14.354  66.787  1.00  0.00    -0.282 C  
HETATM   21  O   UNL     1     -10.993  15.025  65.831  1.00  0.00    -0.331 OA 
BRANCH  20  22
HETATM   22  C   UNL     1      -9.686  13.209  66.486  1.00  0.00    -0.268 A  
HETATM   23  C   UNL     1      -8.261  10.841  65.835  1.00  0.00    -0.155 A  
HETATM   24  C   UNL     1      -7.836  11.657  66.888  1.00  0.00    -0.156 A  
HETATM   25  C   UNL     1     -10.081  12.398  65.419  1.00  0.00    -0.289 A  
HETATM   26  C   UNL     1      -8.545  12.838  67.217  1.00  0.00    -0.197 A  
HETATM   27  C   UNL     1      -9.396  11.220  65.118  1.00  0.00    -0.211 A  
BRANCH  23  28
HETATM   28  O   UNL     1      -7.524   9.696  65.556  1.00  0.00    -0.099 OA 
BRANCH  28  29
HETATM   29  C   UNL     1      -8.378   8.569  65.297  1.00  0.00    -0.159 C  
BRANCH  29  30
HETATM   30  C   UNL     1      -8.850   7.737  66.504  1.00  0.00    -0.153 C  
BRANCH  30  31
HETATM   31  N   UNL     1     -10.319   7.884  66.705  1.00  0.00    -0.316 NA 
HETATM   32  C   UNL     1     -11.030   6.622  66.978  1.00  0.00    -0.393 C  
HETATM   33  C   UNL     1     -10.557   5.974  68.276  1.00  0.00    -0.325 C  
HETATM   34  C   UNL     1     -10.854   6.906  69.445  1.00  0.00    -0.283 C  
HETATM   35  C   UNL     1     -10.378   8.340  69.188  1.00  0.00    -0.225 C  
HETATM   36  C   UNL     1     -10.660   8.845  67.765  1.00  0.00    -0.202 C  
ENDBRANCH  30  31
ENDBRANCH  29  30
ENDBRANCH  28  29
ENDBRANCH  23  28
ENDBRANCH  20  22
ENDBRANCH  10  20
ENDBRANCH   6   9
TORSDOF 7
ENDMDL
MODEL       23
REMARK 921   NORMALIZED FREE ENERGY PREDICTED BY IDOCK:   -6.98 KCAL/MOL
REMARK 922        TOTAL FREE ENERGY PREDICTED BY IDOCK:  -11.92 KCAL/MOL
REMARK 923 INTER-LIGAND FREE ENERGY PREDICTED BY IDOCK:  -10.27 KCAL/MOL
REMARK 924 INTRA-LIGAND FREE ENERGY PREDICTED BY IDOCK:   -1.64 KCAL/MOL
REMARK 927      BINDING AFFINITY PREDICTED BY RF-SCORE:    0.00 PKD
ROOT
HETATM    1  O   UNL     1     -13.637  10.582  72.678  1.00  0.00    -0.460 OA 
HETATM    2  H   UNL     1     -14.150  10.806  73.445  1.00  0.00     0.000 HD 
HETATM    3  C   UNL     1     -13.183  11.532  71.813  1.00  0.00    -0.351 A  
HETATM    4  C   UNL     1     -12.433  11.204  70.692  1.00  0.00    -0.448 A  
HETATM    5  C   UNL     1     -11.936  12.222  69.861  1.00  0.00    -0.377 A  
HETATM    6  C   UNL     1     -12.197  13.577  70.129  1.00  0.00    -0.400 A  
HETATM    7  C   UNL     1     -13.015  13.864  71.239  1.00  0.00    -0.414 A  
HETATM    8  C   UNL     1     -13.490  12.851  72.085  1.00  0.00    -0.619 A  
ENDROOT
BRANCH   6   9
HETATM    9  C   UNL     1     -11.581  14.677  69.325  1.00  0.00    -0.302 A  
HETATM   10  C   UNL     1     -11.139  14.769  67.996  1.00  0.00    -0.294 A  
HETATM   11  C   UNL     1      -9.822  18.028  66.378  1.00  0.00    -0.340 A  
HETATM   12  C   UNL     1     -10.670  16.114  67.665  1.00  0.00    -0.318 A  
HETATM   13  O   UNL     1      -9.395  20.095  67.415  1.00  0.00    -0.348 OA 
HETATM   14  C   UNL     1     -10.680  16.948  68.781  1.00  0.00    -0.333 A  
HETATM   15  H   UNL     1      -9.095  20.445  66.585  1.00  0.00     0.000 HD 
HETATM   16  C   UNL     1     -10.253  16.699  66.434  1.00  0.00    -0.322 A  
HETATM   17  S   UNL     1     -11.250  16.143  70.166  1.00  0.00    -0.335 SA 
HETATM   18  C   UNL     1     -10.266  18.294  68.732  1.00  0.00    -0.342 A  
HETATM   19  C   UNL     1      -9.827  18.806  67.518  1.00  0.00    -0.320 A  
BRANCH  10  20
HETATM   20  C   UNL     1     -11.289  13.679  67.030  1.00  0.00    -0.324 C  
HETATM   21  O   UNL     1     -12.176  13.727  66.178  1.00  0.00    -0.422 OA 
BRANCH  20  22
HETATM   22  C   UNL     1     -10.397  12.477  67.018  1.00  0.00    -0.236 A  
HETATM   23  C   UNL     1      -9.010  10.001  67.101  1.00  0.00    -0.135 A  
HETATM   24  C   UNL     1      -8.382  11.180  67.518  1.00  0.00    -0.122 A  
HETATM   25  C   UNL     1     -10.999  11.296  66.578  1.00  0.00    -0.303 A  
HETATM   26  C   UNL     1      -9.072  12.416  67.479  1.00  0.00    -0.185 A  
HETATM   27  C   UNL     1     -10.326  10.075  66.646  1.00  0.00    -0.281 A  
BRANCH  23  28
HETATM   28  O   UNL     1      -8.283   8.818  67.159  1.00  0.00    -0.103 OA 
BRANCH  28  29
HETATM   29  C   UNL     1      -7.906   8.495  68.508  1.00  0.00    -0.108 C  
BRANCH  29  30
HETATM   30  C   UNL     1      -8.770   7.469  69.265  1.00  0.00    -0.136 C  
BRANCH  30  31
HETATM   31  N   UNL     1     -10.053   8.084  69.710  1.00  0.00    -0.192 NA 
HETATM   32  C   UNL     1     -11.114   7.117  70.041  1.00  0.00    -0.258 C  
HETATM   33  C   UNL     1     -10.723   6.224  71.215  1.00  0.00    -0.299 C  
HETATM   34  C   UNL     1     -10.510   7.083  72.455  1.00  0.00    -0.243 C  
HETATM   35  C   UNL     1      -9.604   8.290  72.186  1.00  0.00    -0.338 C  
HETATM   36  C   UNL     1      -9.885   8.995  70.852  1.00  0.00    -0.264 C  
ENDBRANCH  30  31
ENDBRANCH  29  30
ENDBRANCH  28  29
ENDBRANCH  23  28
ENDBRANCH  20  22
ENDBRANCH  10  20
ENDBRANCH   6   9
TORSDOF 7
ENDMDL
MODEL       24
REMARK 921   NORMALIZED FREE ENERGY PREDICTED BY IDOCK:   -6.95 KCAL/MOL
REMARK 922        TOTAL FREE ENERGY PREDICTED BY IDOCK:  -11.87 KCAL/MOL
REMARK 923 INTER-LIGAND FREE ENERGY PREDICTED BY IDOCK:  -10.39 KCAL/MOL
REMARK 924 INTRA-LIGAND FREE ENERGY PREDICTED BY IDOCK:   -1.48 KCAL/MOL
REMARK 927      BINDING AFFINITY PREDICTED BY RF-SCORE:    0.00 PKD
ROOT
HETATM    1  O   UNL     1     -13.598  13.192  72.898  1.00  0.00    -0.652 OA 
HETATM    2  H   UNL     1     -13.939  12.509  73.463  1.00  0.00     0.000 HD 
HETATM    3  C   UNL     1     -13.002  12.909  71.706  1.00  0.00    -0.315 A  
HETATM    4  C   UNL     1     -12.503  13.908  70.880  1.00  0.00    -0.447 A  
HETATM    5  C   UNL     1     -11.952  13.573  69.633  1.00  0.00    -0.397 A  
HETATM    6  C   UNL     1     -11.875  12.237  69.202  1.00  0.00    -0.355 A  
HETATM    7  C   UNL     1     -12.333  11.249  70.095  1.00  0.00    -0.354 A  
HETATM    8  C   UNL     1     -12.908  11.583  71.330  1.00  0.00    -0.489 A  
ENDROOT
BRANCH   6   9
HETATM    9  C   UNL     1     -11.399  11.871  67.833  1.00  0.00    -0.291 A  
HETATM   10  C   UNL     1     -11.497  12.496  66.580  1.00  0.00    -0.418 A  
HETATM   11  C   UNL     1      -9.825  11.152  63.359  1.00  0.00    -0.397 A  
HETATM   12  C   UNL     1     -10.790  11.752  65.538  1.00  0.00    -0.348 A  
HETATM   13  O   UNL     1      -8.693   9.114  63.052  1.00  0.00    -0.286 OA 
HETATM   14  C   UNL     1     -10.280  10.550  66.025  1.00  0.00    -0.245 A  
HETATM   15  H   UNL     1      -8.556   9.332  62.138  1.00  0.00     0.000 HD 
HETATM   16  C   UNL     1     -10.519  12.054  64.172  1.00  0.00    -0.393 A  
HETATM   17  S   UNL     1     -10.626  10.341  67.677  1.00  0.00    -0.283 SA 
HETATM   18  C   UNL     1      -9.563   9.643  65.220  1.00  0.00    -0.347 A  
HETATM   19  C   UNL     1      -9.362   9.963  63.884  1.00  0.00    -0.207 A  
BRANCH  10  20
HETATM   20  C   UNL     1     -12.104  13.816  66.393  1.00  0.00    -0.444 C  
HETATM   21  O   UNL     1     -13.309  13.914  66.160  1.00  0.00     0.018 OA 
BRANCH  20  22
HETATM   22  C   UNL     1     -11.320  15.088  66.473  1.00  0.00    -0.280 A  
HETATM   23  C   UNL     1     -10.089  17.615  66.876  1.00  0.00    -0.331 A  
HETATM   24  C   UNL     1     -10.127  17.040  65.602  1.00  0.00    -0.136 A  
HETATM   25  C   UNL     1     -11.249  15.663  67.744  1.00  0.00    -0.297 A  
HETATM   26  C   UNL     1     -10.741  15.781  65.397  1.00  0.00    -0.420 A  
HETATM   27  C   UNL     1     -10.668  16.917  67.937  1.00  0.00    -0.344 A  
BRANCH  23  28
HETATM   28  O   UNL     1      -9.471  18.851  67.019  1.00  0.00    -0.297 OA 
BRANCH  28  29
HETATM   29  C   UNL     1      -8.059  18.712  67.251  1.00  0.00    -0.241 C  
BRANCH  29  30
HETATM   30  C   UNL     1      -7.608  18.236  68.644  1.00  0.00    -0.296 C  
BRANCH  30  31
HETATM   31  N   UNL     1      -6.455  17.298  68.535  1.00  0.00    -0.164 NA 
HETATM   32  C   UNL     1      -6.416  16.251  69.572  1.00  0.00    -0.203 C  
HETATM   33  C   UNL     1      -7.631  15.332  69.497  1.00  0.00    -0.219 C  
HETATM   34  C   UNL     1      -7.641  14.615  68.152  1.00  0.00    -0.123 C  
HETATM   35  C   UNL     1      -7.440  15.575  66.974  1.00  0.00    -0.205 C  
HETATM   36  C   UNL     1      -6.369  16.647  67.219  1.00  0.00    -0.181 C  
ENDBRANCH  30  31
ENDBRANCH  29  30
ENDBRANCH  28  29
ENDBRANCH  23  28
ENDBRANCH  20  22
ENDBRANCH  10  20
ENDBRANCH   6   9
TORSDOF 7
ENDMDL
MODEL       25
REMARK 921   NORMALIZED FREE ENERGY PREDICTED BY IDOCK:   -6.94 KCAL/MOL
REMARK 922        TOTAL FREE ENERGY PREDICTED BY IDOCK:  -11.86 KCAL/MOL
REMARK 923 INTER-LIGAND FREE ENERGY PREDICTED BY IDOCK:  -10.01 KCAL/MOL
REMARK 924 INTRA-LIGAND FREE ENERGY PREDICTED BY IDOCK:   -1.85 KCAL/MOL
REMARK 927      BINDING AFFINITY PREDICTED BY RF-SCORE:    0.00 PKD
ROOT
HETATM    1  O   UNL     1     -13.856  14.153  72.933  1.00  0.00    -0.639 OA 
HETATM    2  H   UNL     1     -14.358  13.590  73.511  1.00  0.00     0.000 HD 
HETATM    3  C   UNL     1     -13.152  13.657  71.878  1.00  0.00    -0.387 A  
HETATM    4  C   UNL     1     -12.419  14.480  71.034  1.00  0.00    -0.412 A  
HETATM    5  C   UNL     1     -11.758  13.932  69.923  1.00  0.00    -0.358 A  
HETATM    6  C   UNL     1     -11.805  12.554  69.651  1.00  0.00    -0.382 A  
HETATM    7  C   UNL     1     -12.506  11.744  70.566  1.00  0.00    -0.317 A  
HETATM    8  C   UNL     1     -13.189  12.293  71.661  1.00  0.00    -0.356 A  
ENDROOT
BRANCH   6   9
HETATM    9  C   UNL     1     -11.207  11.968  68.412  1.00  0.00    -0.262 A  
HETATM   10  C   UNL     1     -10.244  10.973  68.184  1.00  0.00    -0.201 A  
HETATM   11  C   UNL     1      -9.253   9.689  64.670  1.00  0.00    -0.293 A  
HETATM   12  C   UNL     1     -10.053  10.709  66.758  1.00  0.00    -0.272 A  
HETATM   13  O   UNL     1      -9.923  10.525  62.577  1.00  0.00    -0.708 OA 
HETATM   14  C   UNL     1     -10.800  11.584  65.972  1.00  0.00    -0.276 A  
HETATM   15  H   UNL     1      -9.379   9.875  62.148  1.00  0.00     0.000 HD 
HETATM   16  C   UNL     1      -9.289   9.724  66.068  1.00  0.00    -0.249 A  
HETATM   17  S   UNL     1     -11.707  12.666  66.919  1.00  0.00    -0.356 SA 
HETATM   18  C   UNL     1     -10.787  11.545  64.564  1.00  0.00    -0.390 A  
HETATM   19  C   UNL     1      -9.992  10.596  63.937  1.00  0.00    -0.326 A  
BRANCH  10  20
HETATM   20  C   UNL     1      -9.633  10.194  69.263  1.00  0.00    -0.225 C  
HETATM   21  O   UNL     1      -8.488  10.452  69.638  1.00  0.00    -0.145 OA 
BRANCH  20  22
HETATM   22  C   UNL     1     -10.340   9.073  69.956  1.00  0.00    -0.226 A  
HETATM   23  C   UNL     1     -11.419   6.976  71.538  1.00  0.00    -0.271 A  
HETATM   24  C   UNL     1     -11.425   6.886  70.142  1.00  0.00    -0.354 A  
HETATM   25  C   UNL     1     -10.368   9.159  71.350  1.00  0.00    -0.409 A  
HETATM   26  C   UNL     1     -10.887   7.929  69.350  1.00  0.00    -0.114 A  
HETATM   27  C   UNL     1     -10.873   8.116  72.128  1.00  0.00    -0.370 A  
BRANCH  23  28
HETATM   28  O   UNL     1     -11.964   5.923  72.263  1.00  0.00    -0.295 OA 
BRANCH  28  29
HETATM   29  C   UNL     1     -11.038   5.423  73.243  1.00  0.00    -0.297 C  
BRANCH  29  30
HETATM   30  C   UNL     1     -10.733   3.914  73.232  1.00  0.00    -0.199 C  
BRANCH  30  31
HETATM   31  N   UNL     1      -9.296   3.668  72.922  1.00  0.00    -0.102 NA 
HETATM   32  C   UNL     1      -8.935   2.246  72.772  1.00  0.00    -0.070 C  
HETATM   33  C   UNL     1      -9.668   1.596  71.603  1.00  0.00    -0.203 C  
HETATM   34  C   UNL     1      -9.266   2.289  70.306  1.00  0.00    -0.193 C  
HETATM   35  C   UNL     1      -9.360   3.816  70.403  1.00  0.00    -0.235 C  
HETATM   36  C   UNL     1      -8.836   4.390  71.726  1.00  0.00    -0.119 C  
ENDBRANCH  30  31
ENDBRANCH  29  30
ENDBRANCH  28  29
ENDBRANCH  23  28
ENDBRANCH  20  22
ENDBRANCH  10  20
ENDBRANCH   6   9
TORSDOF 7
ENDMDL
MODEL       26
REMARK 921   NORMALIZED FREE ENERGY PREDICTED BY IDOCK:   -6.90 KCAL/MOL
REMARK 922        TOTAL FREE ENERGY PREDICTED BY IDOCK:  -11.80 KCAL/MOL
REMARK 923 INTER-LIGAND FREE ENERGY PREDICTED BY IDOCK:   -9.91 KCAL/MOL
REMARK 924 INTRA-LIGAND FREE ENERGY PREDICTED BY IDOCK:   -1.89 KCAL/MOL
REMARK 927      BINDING AFFINITY PREDICTED BY RF-SCORE:    0.00 PKD
ROOT
HETATM    1  O   UNL     1      -7.183   4.753  65.227  1.00  0.00    -0.065 OA 
HETATM    2  H   UNL     1      -7.371   4.865  64.303  1.00  0.00     0.000 HD 
HETATM    3  C   UNL     1      -7.828   5.475  66.185  1.00  0.00    -0.100 A  
HETATM    4  C   UNL     1      -7.554   5.310  67.536  1.00  0.00    -0.088 A  
HETATM    5  C   UNL     1      -8.287   6.032  68.492  1.00  0.00    -0.113 A  
HETATM    6  C   UNL     1      -9.289   6.941  68.111  1.00  0.00    -0.124 A  
HETATM    7  C   UNL     1      -9.494   7.126  66.729  1.00  0.00    -0.214 A  
HETATM    8  C   UNL     1      -8.781   6.386  65.774  1.00  0.00    -0.135 A  
ENDROOT
BRANCH   6   9
HETATM    9  C   UNL     1     -10.158   7.630  69.113  1.00  0.00    -0.194 A  
HETATM   10  C   UNL     1     -10.305   8.971  69.502  1.00  0.00    -0.211 A  
HETATM   11  C   UNL     1     -12.948  10.209  72.042  1.00  0.00    -0.508 A  
HETATM   12  C   UNL     1     -11.363   9.143  70.496  1.00  0.00    -0.300 A  
HETATM   13  O   UNL     1     -14.408   8.921  73.363  1.00  0.00    -1.192 OA 
HETATM   14  C   UNL     1     -11.898   7.918  70.890  1.00  0.00    -0.229 A  
HETATM   15  H   UNL     1     -14.748   9.717  73.754  1.00  0.00     0.000 HD 
HETATM   16  C   UNL     1     -11.939  10.308  71.079  1.00  0.00    -0.483 A  
HETATM   17  S   UNL     1     -11.162   6.617  70.079  1.00  0.00    -0.383 SA 
HETATM   18  C   UNL     1     -12.928   7.807  71.845  1.00  0.00    -0.309 A  
HETATM   19  C   UNL     1     -13.426   8.969  72.418  1.00  0.00    -0.470 A  
BRANCH  10  20
HETATM   20  C   UNL     1      -9.582  10.070  68.858  1.00  0.00    -0.181 C  
HETATM   21  O   UNL     1      -8.442  10.358  69.226  1.00  0.00    -0.153 OA 
BRANCH  20  22
HETATM   22  C   UNL     1     -10.164  10.884  67.746  1.00  0.00    -0.209 A  
HETATM   23  C   UNL     1     -11.602  12.376  65.805  1.00  0.00    -0.398 A  
HETATM   24  C   UNL     1     -10.534  11.559  65.422  1.00  0.00    -0.333 A  
HETATM   25  C   UNL     1     -11.216  11.727  68.115  1.00  0.00    -0.320 A  
HETATM   26  C   UNL     1      -9.816  10.812  66.387  1.00  0.00    -0.254 A  
HETATM   27  C   UNL     1     -11.940  12.439  67.157  1.00  0.00    -0.248 A  
BRANCH  23  28
HETATM   28  O   UNL     1     -12.269  13.088  64.815  1.00  0.00    -0.387 OA 
BRANCH  28  29
HETATM   29  C   UNL     1     -11.564  14.290  64.463  1.00  0.00    -0.387 C  
BRANCH  29  30
HETATM   30  C   UNL     1     -11.517  15.423  65.505  1.00  0.00    -0.078 C  
BRANCH  30  31
HETATM   31  N   UNL     1     -10.170  16.058  65.535  1.00  0.00    -0.458 NA 
HETATM   32  C   UNL     1     -10.143  17.413  66.115  1.00  0.00    -0.300 C  
HETATM   33  C   UNL     1     -10.567  17.411  67.581  1.00  0.00    -0.350 C  
HETATM   34  C   UNL     1      -9.587  16.568  68.390  1.00  0.00    -0.233 C  
HETATM   35  C   UNL     1      -9.328  15.197  67.754  1.00  0.00    -0.189 C  
HETATM   36  C   UNL     1      -9.164  15.239  66.228  1.00  0.00    -0.315 C  
ENDBRANCH  30  31
ENDBRANCH  29  30
ENDBRANCH  28  29
ENDBRANCH  23  28
ENDBRANCH  20  22
ENDBRANCH  10  20
ENDBRANCH   6   9
TORSDOF 7
ENDMDL
MODEL       27
REMARK 921   NORMALIZED FREE ENERGY PREDICTED BY IDOCK:   -6.87 KCAL/MOL
REMARK 922        TOTAL FREE ENERGY PREDICTED BY IDOCK:  -11.76 KCAL/MOL
REMARK 923 INTER-LIGAND FREE ENERGY PREDICTED BY IDOCK:   -9.44 KCAL/MOL
REMARK 924 INTRA-LIGAND FREE ENERGY PREDICTED BY IDOCK:   -2.32 KCAL/MOL
REMARK 927      BINDING AFFINITY PREDICTED BY RF-SCORE:    0.00 PKD
ROOT
HETATM    1  O   UNL     1      -6.607  19.351  64.995  1.00  0.00    -0.370 OA 
HETATM    2  H   UNL     1      -5.848  18.906  64.635  1.00  0.00     0.000 HD 
HETATM    3  C   UNL     1      -7.534  18.696  65.748  1.00  0.00    -0.104 A  
HETATM    4  C   UNL     1      -8.644  19.345  66.274  1.00  0.00    -0.360 A  
HETATM    5  C   UNL     1      -9.541  18.643  67.094  1.00  0.00    -0.315 A  
HETATM    6  C   UNL     1      -9.353  17.281  67.385  1.00  0.00    -0.236 A  
HETATM    7  C   UNL     1      -8.252  16.643  66.782  1.00  0.00    -0.274 A  
HETATM    8  C   UNL     1      -7.340  17.348  65.983  1.00  0.00    -0.265 A  
ENDROOT
BRANCH   6   9
HETATM    9  C   UNL     1     -10.230  16.547  68.348  1.00  0.00    -0.266 A  
HETATM   10  C   UNL     1     -11.002  15.378  68.252  1.00  0.00    -0.288 A  
HETATM   11  C   UNL     1     -12.917  13.801  71.222  1.00  0.00    -0.409 A  
HETATM   12  C   UNL     1     -11.635  15.031  69.524  1.00  0.00    -0.337 A  
HETATM   13  O   UNL     1     -13.211  14.672  73.386  1.00  0.00    -0.585 OA 
HETATM   14  C   UNL     1     -11.400  16.002  70.494  1.00  0.00    -0.401 A  
HETATM   15  H   UNL     1     -13.737  13.915  73.615  1.00  0.00     0.000 HD 
HETATM   16  C   UNL     1     -12.392  13.894  69.929  1.00  0.00    -0.358 A  
HETATM   17  S   UNL     1     -10.439  17.272  69.896  1.00  0.00     0.547 SA 
HETATM   18  C   UNL     1     -11.907  15.910  71.805  1.00  0.00    -0.579 A  
HETATM   19  C   UNL     1     -12.676  14.804  72.139  1.00  0.00    -0.326 A  
BRANCH  10  20
HETATM   20  C   UNL     1     -11.027  14.537  67.053  1.00  0.00    -0.312 C  
HETATM   21  O   UNL     1     -11.481  14.981  65.997  1.00  0.00    -0.321 OA 
BRANCH  20  22
HETATM   22  C   UNL     1     -10.516  13.132  67.037  1.00  0.00    -0.248 A  
HETATM   23  C   UNL     1      -9.872  10.369  67.169  1.00  0.00    -0.181 A  
HETATM   24  C   UNL     1      -8.888  11.338  67.391  1.00  0.00    -0.145 A  
HETATM   25  C   UNL     1     -11.480  12.151  66.790  1.00  0.00    -0.418 A  
HETATM   26  C   UNL     1      -9.206  12.716  67.328  1.00  0.00    -0.195 A  
HETATM   27  C   UNL     1     -11.169  10.794  66.882  1.00  0.00    -0.109 A  
BRANCH  23  28
HETATM   28  O   UNL     1      -9.502   9.031  67.241  1.00  0.00    -0.142 OA 
BRANCH  28  29
HETATM   29  C   UNL     1      -9.217   8.635  68.594  1.00  0.00    -0.138 C  
BRANCH  29  30
HETATM   30  C   UNL     1     -10.412   8.420  69.541  1.00  0.00    -0.224 C  
BRANCH  30  31
HETATM   31  N   UNL     1     -10.355   9.372  70.687  1.00  0.00    -0.262 NA 
HETATM   32  C   UNL     1     -11.260  10.529  70.568  1.00  0.00    -0.265 C  
HETATM   33  C   UNL     1     -12.724  10.104  70.533  1.00  0.00    -0.269 C  
HETATM   34  C   UNL     1     -13.079   9.402  71.839  1.00  0.00    -0.505 C  
HETATM   35  C   UNL     1     -12.064   8.317  72.217  1.00  0.00    -0.439 C  
HETATM   36  C   UNL     1     -10.602   8.723  71.983  1.00  0.00    -0.344 C  
ENDBRANCH  30  31
ENDBRANCH  29  30
ENDBRANCH  28  29
ENDBRANCH  23  28
ENDBRANCH  20  22
ENDBRANCH  10  20
ENDBRANCH   6   9
TORSDOF 7
ENDMDL
MODEL       28
REMARK 921   NORMALIZED FREE ENERGY PREDICTED BY IDOCK:   -6.84 KCAL/MOL
REMARK 922        TOTAL FREE ENERGY PREDICTED BY IDOCK:  -11.71 KCAL/MOL
REMARK 923 INTER-LIGAND FREE ENERGY PREDICTED BY IDOCK:   -9.88 KCAL/MOL
REMARK 924 INTRA-LIGAND FREE ENERGY PREDICTED BY IDOCK:   -1.84 KCAL/MOL
REMARK 927      BINDING AFFINITY PREDICTED BY RF-SCORE:    0.00 PKD
ROOT
HETATM    1  O   UNL     1     -12.443  16.013  63.802  1.00  0.00    -1.025 OA 
HETATM    2  H   UNL     1     -13.262  16.041  63.321  1.00  0.00     0.000 HD 
HETATM    3  C   UNL     1     -11.848  14.835  64.140  1.00  0.00    -0.214 A  
HETATM    4  C   UNL     1     -10.651  14.794  64.843  1.00  0.00    -0.431 A  
HETATM    5  C   UNL     1     -10.043  13.558  65.117  1.00  0.00    -0.278 A  
HETATM    6  C   UNL     1     -10.631  12.348  64.709  1.00  0.00    -0.331 A  
HETATM    7  C   UNL     1     -11.876  12.429  64.055  1.00  0.00    -0.521 A  
HETATM    8  C   UNL     1     -12.472  13.664  63.757  1.00  0.00    -0.262 A  
ENDROOT
BRANCH   6   9
HETATM    9  C   UNL     1      -9.943  11.032  64.888  1.00  0.00    -0.288 A  
HETATM   10  C   UNL     1      -9.816  10.151  65.972  1.00  0.00    -0.308 A  
HETATM   11  C   UNL     1      -8.076   6.701  65.761  1.00  0.00    -0.122 A  
HETATM   12  C   UNL     1      -9.089   8.935  65.610  1.00  0.00    -0.269 A  
HETATM   13  O   UNL     1      -6.872   5.790  63.958  1.00  0.00    -0.046 OA 
HETATM   14  C   UNL     1      -8.610   8.995  64.304  1.00  0.00    -0.148 A  
HETATM   15  H   UNL     1      -6.690   5.015  64.477  1.00  0.00     0.000 HD 
HETATM   16  C   UNL     1      -8.828   7.733  66.331  1.00  0.00    -0.180 A  
HETATM   17  S   UNL     1      -9.038  10.455  63.541  1.00  0.00    -0.273 SA 
HETATM   18  C   UNL     1      -7.868   7.954  63.713  1.00  0.00    -0.141 A  
HETATM   19  C   UNL     1      -7.603   6.821  64.470  1.00  0.00    -0.103 A  
BRANCH  10  20
HETATM   20  C   UNL     1     -10.479  10.371  67.260  1.00  0.00    -0.252 C  
HETATM   21  O   UNL     1     -11.009   9.430  67.850  1.00  0.00    -0.198 OA 
BRANCH  20  22
HETATM   22  C   UNL     1     -10.547  11.713  67.918  1.00  0.00    -0.225 A  
HETATM   23  C   UNL     1     -10.965  14.331  68.935  1.00  0.00    -0.257 A  
HETATM   24  C   UNL     1      -9.669  13.824  68.794  1.00  0.00    -0.069 A  
HETATM   25  C   UNL     1     -11.836  12.224  68.093  1.00  0.00    -0.372 A  
HETATM   26  C   UNL     1      -9.458  12.520  68.285  1.00  0.00    -0.201 A  
HETATM   27  C   UNL     1     -12.040  13.521  68.567  1.00  0.00    -0.303 A  
BRANCH  23  28
HETATM   28  O   UNL     1     -11.113  15.617  69.442  1.00  0.00    -0.260 OA 
BRANCH  28  29
HETATM   29  C   UNL     1      -9.996  16.452  69.097  1.00  0.00    -0.273 C  
BRANCH  29  30
HETATM   30  C   UNL     1     -10.297  17.814  68.444  1.00  0.00    -0.376 C  
BRANCH  30  31
HETATM   31  N   UNL     1      -9.974  17.786  66.990  1.00  0.00    -0.309 NA 
HETATM   32  C   UNL     1     -10.417  18.976  66.240  1.00  0.00    -0.457 C  
HETATM   33  C   UNL     1      -9.729  20.245  66.732  1.00  0.00    -0.571 C  
HETATM   34  C   UNL     1      -8.225  20.123  66.512  1.00  0.00    -0.315 C  
HETATM   35  C   UNL     1      -7.661  18.797  67.034  1.00  0.00    -0.244 C  
HETATM   36  C   UNL     1      -8.543  17.579  66.723  1.00  0.00    -0.253 C  
ENDBRANCH  30  31
ENDBRANCH  29  30
ENDBRANCH  28  29
ENDBRANCH  23  28
ENDBRANCH  20  22
ENDBRANCH  10  20
ENDBRANCH   6   9
TORSDOF 7
ENDMDL
MODEL       29
REMARK 921   NORMALIZED FREE ENERGY PREDICTED BY IDOCK:   -6.82 KCAL/MOL
REMARK 922        TOTAL FREE ENERGY PREDICTED BY IDOCK:  -11.69 KCAL/MOL
REMARK 923 INTER-LIGAND FREE ENERGY PREDICTED BY IDOCK:  -10.88 KCAL/MOL
REMARK 924 INTRA-LIGAND FREE ENERGY PREDICTED BY IDOCK:   -0.80 KCAL/MOL
REMARK 927      BINDING AFFINITY PREDICTED BY RF-SCORE:    0.00 PKD
ROOT
HETATM    1  O   UNL     1      -9.936  12.527  63.190  1.00  0.00    -0.493 OA 
HETATM    2  H   UNL     1     -10.450  12.811  62.444  1.00  0.00     0.000 HD 
HETATM    3  C   UNL     1     -10.292  12.835  64.468  1.00  0.00    -0.349 A  
HETATM    4  C   UNL     1      -9.541  12.419  65.559  1.00  0.00    -0.076 A  
HETATM    5  C   UNL     1      -9.978  12.710  66.862  1.00  0.00    -0.232 A  
HETATM    6  C   UNL     1     -11.161  13.435  67.091  1.00  0.00    -0.303 A  
HETATM    7  C   UNL     1     -11.861  13.894  65.958  1.00  0.00    -0.412 A  
HETATM    8  C   UNL     1     -11.439  13.582  64.657  1.00  0.00    -0.381 A  
ENDROOT
BRANCH   6   9
HETATM    9  C   UNL     1     -11.704  13.653  68.467  1.00  0.00    -0.357 A  
HETATM   10  C   UNL     1     -12.179  12.787  69.464  1.00  0.00    -0.161 A  
HETATM   11  C   UNL     1     -13.257  13.943  72.996  1.00  0.00    -0.245 A  
HETATM   12  C   UNL     1     -12.539  13.502  70.687  1.00  0.00    -0.345 A  
HETATM   13  O   UNL     1     -13.468  16.142  73.803  1.00  0.00    -0.913 OA 
HETATM   14  C   UNL     1     -12.420  14.881  70.528  1.00  0.00    -0.363 A  
HETATM   15  H   UNL     1     -13.763  15.802  74.639  1.00  0.00     0.000 HD 
HETATM   16  C   UNL     1     -12.943  13.042  71.974  1.00  0.00    -0.395 A  
HETATM   17  S   UNL     1     -11.877  15.291  68.968  1.00  0.00    -0.290 SA 
HETATM   18  C   UNL     1     -12.715  15.797  71.556  1.00  0.00    -0.512 A  
HETATM   19  C   UNL     1     -13.147  15.301  72.778  1.00  0.00    -0.461 A  
BRANCH  10  20
HETATM   20  C   UNL     1     -12.157  11.329  69.329  1.00  0.00    -0.303 C  
HETATM   21  O   UNL     1     -12.345  10.808  68.229  1.00  0.00    -0.296 OA 
BRANCH  20  22
HETATM   22  C   UNL     1     -11.911  10.410  70.484  1.00  0.00    -0.430 A  
HETATM   23  C   UNL     1     -11.207   8.483  72.447  1.00  0.00    -0.329 A  
HETATM   24  C   UNL     1     -12.520   8.957  72.358  1.00  0.00    -0.405 A  
HETATM   25  C   UNL     1     -10.598   9.947  70.605  1.00  0.00    -0.341 A  
HETATM   26  C   UNL     1     -12.874   9.917  71.379  1.00  0.00    -0.505 A  
HETATM   27  C   UNL     1     -10.259   8.979  71.552  1.00  0.00    -0.414 A  
BRANCH  23  28
HETATM   28  O   UNL     1     -10.916   7.543  73.429  1.00  0.00    -0.380 OA 
BRANCH  28  29
HETATM   29  C   UNL     1     -10.900   6.209  72.894  1.00  0.00    -0.260 C  
BRANCH  29  30
HETATM   30  C   UNL     1      -9.575   5.428  72.961  1.00  0.00    -0.146 C  
BRANCH  30  31
HETATM   31  N   UNL     1      -8.748   5.685  71.748  1.00  0.00    -0.135 NA 
HETATM   32  C   UNL     1      -7.475   4.944  71.705  1.00  0.00    -0.087 C  
HETATM   33  C   UNL     1      -7.697   3.436  71.670  1.00  0.00    -0.057 C  
HETATM   34  C   UNL     1      -8.462   3.066  70.404  1.00  0.00    -0.100 C  
HETATM   35  C   UNL     1      -9.702   3.942  70.191  1.00  0.00    -0.242 C  
HETATM   36  C   UNL     1      -9.474   5.429  70.495  1.00  0.00    -0.165 C  
ENDBRANCH  30  31
ENDBRANCH  29  30
ENDBRANCH  28  29
ENDBRANCH  23  28
ENDBRANCH  20  22
ENDBRANCH  10  20
ENDBRANCH   6   9
TORSDOF 7
ENDMDL
MODEL       30
REMARK 921   NORMALIZED FREE ENERGY PREDICTED BY IDOCK:   -6.80 KCAL/MOL
REMARK 922        TOTAL FREE ENERGY PREDICTED BY IDOCK:  -11.66 KCAL/MOL
REMARK 923 INTER-LIGAND FREE ENERGY PREDICTED BY IDOCK:  -10.29 KCAL/MOL
REMARK 924 INTRA-LIGAND FREE ENERGY PREDICTED BY IDOCK:   -1.37 KCAL/MOL
REMARK 927      BINDING AFFINITY PREDICTED BY RF-SCORE:    0.00 PKD
ROOT
HETATM    1  O   UNL     1      -9.455   3.385  68.807  1.00  0.00    -0.166 OA 
HETATM    2  H   UNL     1      -9.669   3.039  67.949  1.00  0.00     0.000 HD 
HETATM    3  C   UNL     1      -9.770   4.660  69.167  1.00  0.00    -0.185 A  
HETATM    4  C   UNL     1      -9.459   5.166  70.423  1.00  0.00    -0.229 A  
HETATM    5  C   UNL     1      -9.856   6.467  70.772  1.00  0.00    -0.206 A  
HETATM    6  C   UNL     1     -10.553   7.285  69.866  1.00  0.00    -0.244 A  
HETATM    7  C   UNL     1     -10.794   6.760  68.582  1.00  0.00    -0.277 A  
HETATM    8  C   UNL     1     -10.421   5.451  68.240  1.00  0.00    -0.191 A  
ENDROOT
BRANCH   6   9
HETATM    9  C   UNL     1     -11.087   8.626  70.257  1.00  0.00    -0.217 A  
HETATM   10  C   UNL     1     -10.795   9.937  69.847  1.00  0.00    -0.316 A  
HETATM   11  C   UNL     1     -12.716  13.064  71.074  1.00  0.00    -0.347 A  
HETATM   12  C   UNL     1     -11.662  10.921  70.493  1.00  0.00    -0.441 A  
HETATM   13  O   UNL     1     -14.367  13.191  72.744  1.00  0.00    -0.655 OA 
HETATM   14  C   UNL     1     -12.497  10.326  71.436  1.00  0.00    -0.424 A  
HETATM   15  H   UNL     1     -14.421  14.130  72.613  1.00  0.00     0.000 HD 
HETATM   16  C   UNL     1     -11.813  12.325  70.303  1.00  0.00    -0.324 A  
HETATM   17  S   UNL     1     -12.254   8.644  71.523  1.00  0.00    -0.332 SA 
HETATM   18  C   UNL     1     -13.424  11.057  72.205  1.00  0.00    -0.200 A  
HETATM   19  C   UNL     1     -13.503  12.429  72.014  1.00  0.00    -0.360 A  
BRANCH  10  20
HETATM   20  C   UNL     1      -9.840  10.243  68.779  1.00  0.00    -0.180 C  
HETATM   21  O   UNL     1      -8.738   9.692  68.760  1.00  0.00    -0.120 OA 
BRANCH  20  22
HETATM   22  C   UNL     1     -10.136  11.213  67.679  1.00  0.00    -0.203 A  
HETATM   23  C   UNL     1     -10.588  13.321  65.832  1.00  0.00    -0.281 A  
HETATM   24  C   UNL     1     -11.455  12.224  65.882  1.00  0.00    -0.428 A  
HETATM   25  C   UNL     1      -9.264  12.301  67.596  1.00  0.00    -0.183 A  
HETATM   26  C   UNL     1     -11.233  11.172  66.803  1.00  0.00    -0.215 A  
HETATM   27  C   UNL     1      -9.503  13.350  66.707  1.00  0.00    -0.263 A  
BRANCH  23  28
HETATM   28  O   UNL     1     -10.854  14.323  64.906  1.00  0.00    -0.373 OA 
BRANCH  28  29
HETATM   29  C   UNL     1      -9.999  15.462  65.101  1.00  0.00    -0.194 C  
BRANCH  29  30
HETATM   30  C   UNL     1     -10.606  16.702  65.783  1.00  0.00    -0.268 C  
BRANCH  30  31
HETATM   31  N   UNL     1      -9.642  17.838  65.768  1.00  0.00    -0.499 NA 
HETATM   32  C   UNL     1     -10.252  19.163  65.981  1.00  0.00    -0.424 C  
HETATM   33  C   UNL     1     -10.907  19.272  67.354  1.00  0.00    -0.554 C  
HETATM   34  C   UNL     1      -9.846  19.099  68.435  1.00  0.00    -0.473 C  
HETATM   35  C   UNL     1      -8.961  17.870  68.199  1.00  0.00    -0.268 C  
HETATM   36  C   UNL     1      -8.546  17.674  66.734  1.00  0.00    -0.255 C  
ENDBRANCH  30  31
ENDBRANCH  29  30
ENDBRANCH  28  29
ENDBRANCH  23  28
ENDBRANCH  20  22
ENDBRANCH  10  20
ENDBRANCH   6   9
TORSDOF 7
ENDMDL
MODEL       31
REMARK 921   NORMALIZED FREE ENERGY PREDICTED BY IDOCK:   -6.80 KCAL/MOL
REMARK 922        TOTAL FREE ENERGY PREDICTED BY IDOCK:  -11.66 KCAL/MOL
REMARK 923 INTER-LIGAND FREE ENERGY PREDICTED BY IDOCK:  -10.30 KCAL/MOL
REMARK 924 INTRA-LIGAND FREE ENERGY PREDICTED BY IDOCK:   -1.36 KCAL/MOL
REMARK 927      BINDING AFFINITY PREDICTED BY RF-SCORE:    0.00 PKD
ROOT
HETATM    1  O   UNL     1      -7.721   3.463  65.242  1.00  0.00    -0.080 OA 
HETATM    2  H   UNL     1      -8.129   3.275  64.405  1.00  0.00     0.000 HD 
HETATM    3  C   UNL     1      -8.257   4.358  66.118  1.00  0.00    -0.102 A  
HETATM    4  C   UNL     1      -7.661   4.633  67.342  1.00  0.00    -0.085 A  
HETATM    5  C   UNL     1      -8.280   5.517  68.239  1.00  0.00    -0.095 A  
HETATM    6  C   UNL     1      -9.493   6.153  67.919  1.00  0.00    -0.115 A  
HETATM    7  C   UNL     1     -10.033   5.897  66.643  1.00  0.00    -0.214 A  
HETATM    8  C   UNL     1      -9.429   4.994  65.756  1.00  0.00    -0.167 A  
ENDROOT
BRANCH   6   9
HETATM    9  C   UNL     1     -10.226   7.005  68.905  1.00  0.00    -0.180 A  
HETATM   10  C   UNL     1     -10.221   8.381  69.181  1.00  0.00    -0.217 A  
HETATM   11  C   UNL     1     -12.566  10.079  71.748  1.00  0.00    -0.504 A  
HETATM   12  C   UNL     1     -11.192   8.738  70.214  1.00  0.00    -0.212 A  
HETATM   13  O   UNL     1     -14.050   9.056  73.258  1.00  0.00    -1.218 OA 
HETATM   14  C   UNL     1     -11.812   7.609  70.745  1.00  0.00    -0.205 A  
HETATM   15  H   UNL     1     -14.289   9.911  73.596  1.00  0.00     0.000 HD 
HETATM   16  C   UNL     1     -11.617   9.999  70.725  1.00  0.00    -0.444 A  
HETATM   17  S   UNL     1     -11.255   6.179  70.011  1.00  0.00    -0.362 SA 
HETATM   18  C   UNL     1     -12.783   7.679  71.763  1.00  0.00    -0.356 A  
HETATM   19  C   UNL     1     -13.132   8.928  72.258  1.00  0.00    -0.436 A  
BRANCH  10  20
HETATM   20  C   UNL     1      -9.442   9.347  68.403  1.00  0.00    -0.141 C  
HETATM   21  O   UNL     1      -8.305   9.060  68.023  1.00  0.00    -0.116 OA 
BRANCH  20  22
HETATM   22  C   UNL     1      -9.963  10.699  68.030  1.00  0.00    -0.180 A  
HETATM   23  C   UNL     1     -10.783  13.388  67.635  1.00  0.00    -0.247 A  
HETATM   24  C   UNL     1     -11.641  12.331  67.314  1.00  0.00    -0.427 A  
HETATM   25  C   UNL     1      -9.108  11.765  68.318  1.00  0.00    -0.187 A  
HETATM   26  C   UNL     1     -11.236  10.989  67.512  1.00  0.00    -0.372 A  
HETATM   27  C   UNL     1      -9.522  13.088  68.150  1.00  0.00    -0.218 A  
BRANCH  23  28
HETATM   28  O   UNL     1     -11.234  14.685  67.419  1.00  0.00    -0.317 OA 
BRANCH  28  29
HETATM   29  C   UNL     1     -12.257  15.053  68.359  1.00  0.00     0.026 C  
BRANCH  29  30
HETATM   30  C   UNL     1     -11.809  15.676  69.694  1.00  0.00    -0.362 C  
BRANCH  30  31
HETATM   31  N   UNL     1     -11.836  14.662  70.786  1.00  0.00    -0.302 NA 
HETATM   32  C   UNL     1     -11.293  15.133  72.074  1.00  0.00    -0.271 C  
HETATM   33  C   UNL     1     -12.108  16.290  72.643  1.00  0.00    -0.628 C  
HETATM   34  C   UNL     1     -13.533  15.822  72.914  1.00  0.00    -0.666 C  
HETATM   35  C   UNL     1     -14.145  15.083  71.718  1.00  0.00    -0.621 C  
HETATM   36  C   UNL     1     -13.179  14.112  71.024  1.00  0.00    -0.272 C  
ENDBRANCH  30  31
ENDBRANCH  29  30
ENDBRANCH  28  29
ENDBRANCH  23  28
ENDBRANCH  20  22
ENDBRANCH  10  20
ENDBRANCH   6   9
TORSDOF 7
ENDMDL
MODEL       32
REMARK 921   NORMALIZED FREE ENERGY PREDICTED BY IDOCK:   -6.79 KCAL/MOL
REMARK 922        TOTAL FREE ENERGY PREDICTED BY IDOCK:  -11.65 KCAL/MOL
REMARK 923 INTER-LIGAND FREE ENERGY PREDICTED BY IDOCK:   -9.93 KCAL/MOL
REMARK 924 INTRA-LIGAND FREE ENERGY PREDICTED BY IDOCK:   -1.72 KCAL/MOL
REMARK 927      BINDING AFFINITY PREDICTED BY RF-SCORE:    0.00 PKD
ROOT
HETATM    1  O   UNL     1     -13.511  15.803  72.365  1.00  0.00    -0.477 OA 
HETATM    2  H   UNL     1     -13.357  16.728  72.209  1.00  0.00     0.000 HD 
HETATM    3  C   UNL     1     -13.046  14.844  71.516  1.00  0.00    -0.356 A  
HETATM    4  C   UNL     1     -13.271  13.493  71.744  1.00  0.00    -0.490 A  
HETATM    5  C   UNL     1     -12.722  12.536  70.875  1.00  0.00    -0.270 A  
HETATM    6  C   UNL     1     -11.957  12.917  69.758  1.00  0.00    -0.365 A  
HETATM    7  C   UNL     1     -11.805  14.298  69.526  1.00  0.00    -0.378 A  
HETATM    8  C   UNL     1     -12.331  15.254  70.408  1.00  0.00    -0.422 A  
ENDROOT
BRANCH   6   9
HETATM    9  C   UNL     1     -11.268  11.914  68.890  1.00  0.00    -0.254 A  
HETATM   10  C   UNL     1     -11.089  11.802  67.502  1.00  0.00    -0.330 A  
HETATM   11  C   UNL     1      -8.959   9.048  65.813  1.00  0.00    -0.242 A  
HETATM   12  C   UNL     1     -10.260  10.651  67.146  1.00  0.00    -0.261 A  
HETATM   13  O   UNL     1      -7.942   7.179  66.816  1.00  0.00    -0.104 OA 
HETATM   14  C   UNL     1      -9.936   9.888  68.266  1.00  0.00    -0.151 A  
HETATM   15  H   UNL     1      -7.624   6.901  65.965  1.00  0.00     0.000 HD 
HETATM   16  C   UNL     1      -9.722  10.216  65.900  1.00  0.00    -0.292 A  
HETATM   17  S   UNL     1     -10.593  10.547  69.690  1.00  0.00    -0.218 SA 
HETATM   18  C   UNL     1      -9.153   8.719  68.193  1.00  0.00    -0.142 A  
HETATM   19  C   UNL     1      -8.688   8.313  66.950  1.00  0.00    -0.134 A  
BRANCH  10  20
HETATM   20  C   UNL     1     -11.553  12.817  66.555  1.00  0.00    -0.376 C  
HETATM   21  O   UNL     1     -12.645  12.690  65.999  1.00  0.00    -0.468 OA 
BRANCH  20  22
HETATM   22  C   UNL     1     -10.755  14.037  66.216  1.00  0.00    -0.289 A  
HETATM   23  C   UNL     1      -9.104  16.328  65.923  1.00  0.00    -0.211 A  
HETATM   24  C   UNL     1     -10.375  16.291  65.341  1.00  0.00    -0.320 A  
HETATM   25  C   UNL     1      -9.472  14.079  66.766  1.00  0.00    -0.292 A  
HETATM   26  C   UNL     1     -11.202  15.151  65.487  1.00  0.00    -0.320 A  
HETATM   27  C   UNL     1      -8.672  15.216  66.645  1.00  0.00    -0.308 A  
BRANCH  23  28
HETATM   28  O   UNL     1      -8.336  17.473  65.745  1.00  0.00    -0.538 OA 
BRANCH  28  29
HETATM   29  C   UNL     1      -6.988  17.282  66.207  1.00  0.00    -0.264 C  
BRANCH  29  30
HETATM   30  C   UNL     1      -6.417  18.319  67.192  1.00  0.00    -0.174 C  
BRANCH  30  31
HETATM   31  N   UNL     1      -7.245  18.385  68.429  1.00  0.00    -0.259 NA 
HETATM   32  C   UNL     1      -7.193  17.173  69.267  1.00  0.00    -0.135 C  
HETATM   33  C   UNL     1      -5.787  16.909  69.795  1.00  0.00    -0.217 C  
HETATM   34  C   UNL     1      -5.351  18.072  70.679  1.00  0.00    -0.261 C  
HETATM   35  C   UNL     1      -5.583  19.434  70.014  1.00  0.00    -0.263 C  
HETATM   36  C   UNL     1      -6.923  19.545  69.273  1.00  0.00    -0.350 C  
ENDBRANCH  30  31
ENDBRANCH  29  30
ENDBRANCH  28  29
ENDBRANCH  23  28
ENDBRANCH  20  22
ENDBRANCH  10  20
ENDBRANCH   6   9
TORSDOF 7
ENDMDL
MODEL       33
REMARK 921   NORMALIZED FREE ENERGY PREDICTED BY IDOCK:   -6.74 KCAL/MOL
REMARK 922        TOTAL FREE ENERGY PREDICTED BY IDOCK:  -11.58 KCAL/MOL
REMARK 923 INTER-LIGAND FREE ENERGY PREDICTED BY IDOCK:  -10.24 KCAL/MOL
REMARK 924 INTRA-LIGAND FREE ENERGY PREDICTED BY IDOCK:   -1.35 KCAL/MOL
REMARK 927      BINDING AFFINITY PREDICTED BY RF-SCORE:    0.00 PKD
ROOT
HETATM    1  O   UNL     1      -9.272  21.137  67.659  1.00  0.00    -0.265 OA 
HETATM    2  H   UNL     1      -9.896  21.634  68.175  1.00  0.00     0.000 HD 
HETATM    3  C   UNL     1      -9.507  19.846  67.295  1.00  0.00    -0.365 A  
HETATM    4  C   UNL     1      -8.595  19.119  66.541  1.00  0.00    -0.330 A  
HETATM    5  C   UNL     1      -8.905  17.811  66.138  1.00  0.00    -0.122 A  
HETATM    6  C   UNL     1     -10.122  17.205  66.497  1.00  0.00    -0.313 A  
HETATM    7  C   UNL     1     -10.993  17.951  67.315  1.00  0.00    -0.053 A  
HETATM    8  C   UNL     1     -10.695  19.268  67.697  1.00  0.00    -0.533 A  
ENDROOT
BRANCH   6   9
HETATM    9  C   UNL     1     -10.521  15.859  65.981  1.00  0.00    -0.345 A  
HETATM   10  C   UNL     1     -10.389  14.556  66.485  1.00  0.00    -0.283 A  
HETATM   11  C   UNL     1     -11.864  11.416  64.769  1.00  0.00     0.221 A  
HETATM   12  C   UNL     1     -11.021  13.564  65.615  1.00  0.00    -0.296 A  
HETATM   13  O   UNL     1     -12.905  11.265  62.665  1.00  0.00    -0.742 OA 
HETATM   14  C   UNL     1     -11.508  14.145  64.446  1.00  0.00    -0.332 A  
HETATM   15  H   UNL     1     -13.009  10.329  62.789  1.00  0.00     0.000 HD 
HETATM   16  C   UNL     1     -11.241  12.165  65.772  1.00  0.00    -0.384 A  
HETATM   17  S   UNL     1     -11.230  15.823  64.412  1.00  0.00    -0.053 SA 
HETATM   18  C   UNL     1     -12.154  13.404  63.437  1.00  0.00    -0.437 A  
HETATM   19  C   UNL     1     -12.306  12.036  63.617  1.00  0.00    -0.539 A  
BRANCH  10  20
HETATM   20  C   UNL     1      -9.824  14.265  67.804  1.00  0.00    -0.223 C  
HETATM   21  O   UNL     1      -8.654  14.559  68.052  1.00  0.00    -0.149 OA 
BRANCH  20  22
HETATM   22  C   UNL     1     -10.609  13.616  68.899  1.00  0.00    -0.211 A  
HETATM   23  C   UNL     1     -12.172  12.109  70.729  1.00  0.00    -0.271 A  
HETATM   24  C   UNL     1     -12.240  13.506  70.722  1.00  0.00    -0.417 A  
HETATM   25  C   UNL     1     -10.533  12.221  68.939  1.00  0.00    -0.131 A  
HETATM   26  C   UNL     1     -11.463  14.260  69.810  1.00  0.00    -0.317 A  
HETATM   27  C   UNL     1     -11.322  11.480  69.820  1.00  0.00    -0.303 A  
BRANCH  23  28
HETATM   28  O   UNL     1     -12.955  11.421  71.649  1.00  0.00    -0.448 OA 
BRANCH  28  29
HETATM   29  C   UNL     1     -13.067  10.028  71.309  1.00  0.00    -0.402 C  
BRANCH  29  30
HETATM   30  C   UNL     1     -12.446   9.005  72.277  1.00  0.00    -0.357 C  
BRANCH  30  31
HETATM   31  N   UNL     1     -11.066   8.642  71.849  1.00  0.00    -0.321 NA 
HETATM   32  C   UNL     1     -10.229   8.052  72.909  1.00  0.00    -0.314 C  
HETATM   33  C   UNL     1     -10.803   6.731  73.415  1.00  0.00    -0.282 C  
HETATM   34  C   UNL     1     -10.837   5.724  72.272  1.00  0.00    -0.298 C  
HETATM   35  C   UNL     1     -11.472   6.299  71.001  1.00  0.00    -0.370 C  
HETATM   36  C   UNL     1     -11.045   7.740  70.687  1.00  0.00    -0.256 C  
ENDBRANCH  30  31
ENDBRANCH  29  30
ENDBRANCH  28  29
ENDBRANCH  23  28
ENDBRANCH  20  22
ENDBRANCH  10  20
ENDBRANCH   6   9
TORSDOF 7
ENDMDL
MODEL       34
REMARK 921   NORMALIZED FREE ENERGY PREDICTED BY IDOCK:   -6.70 KCAL/MOL
REMARK 922        TOTAL FREE ENERGY PREDICTED BY IDOCK:  -11.53 KCAL/MOL
REMARK 923 INTER-LIGAND FREE ENERGY PREDICTED BY IDOCK:  -10.08 KCAL/MOL
REMARK 924 INTRA-LIGAND FREE ENERGY PREDICTED BY IDOCK:   -1.45 KCAL/MOL
REMARK 927      BINDING AFFINITY PREDICTED BY RF-SCORE:    0.00 PKD
ROOT
HETATM    1  O   UNL     1     -13.912   8.938  73.363  1.00  0.00    -1.236 OA 
HETATM    2  H   UNL     1     -14.268   8.202  73.847  1.00  0.00     0.000 HD 
HETATM    3  C   UNL     1     -13.056   8.765  72.318  1.00  0.00    -0.409 A  
HETATM    4  C   UNL     1     -12.535   9.840  71.610  1.00  0.00    -0.500 A  
HETATM    5  C   UNL     1     -11.703   9.612  70.502  1.00  0.00    -0.312 A  
HETATM    6  C   UNL     1     -11.366   8.308  70.097  1.00  0.00    -0.060 A  
HETATM    7  C   UNL     1     -11.863   7.246  70.879  1.00  0.00    -0.351 A  
HETATM    8  C   UNL     1     -12.715   7.472  71.970  1.00  0.00    -0.246 A  
ENDROOT
BRANCH   6   9
HETATM    9  C   UNL     1     -10.580   8.042  68.854  1.00  0.00    -0.140 A  
HETATM   10  C   UNL     1      -9.746   8.836  68.052  1.00  0.00    -0.183 A  
HETATM   11  C   UNL     1      -7.748   7.497  65.020  1.00  0.00    -0.116 A  
HETATM   12  C   UNL     1      -9.141   8.072  66.962  1.00  0.00    -0.170 A  
HETATM   13  O   UNL     1      -7.849   5.360  64.044  1.00  0.00    -0.087 OA 
HETATM   14  C   UNL     1      -9.622   6.765  66.925  1.00  0.00    -0.160 A  
HETATM   15  H   UNL     1      -7.213   5.632  63.393  1.00  0.00     0.000 HD 
HETATM   16  C   UNL     1      -8.157   8.417  65.991  1.00  0.00    -0.104 A  
HETATM   17  S   UNL     1     -10.745   6.470  68.168  1.00  0.00    -0.296 SA 
HETATM   18  C   UNL     1      -9.204   5.824  65.964  1.00  0.00    -0.155 A  
HETATM   19  C   UNL     1      -8.275   6.221  65.012  1.00  0.00    -0.132 A  
BRANCH  10  20
HETATM   20  C   UNL     1      -9.412  10.224  68.380  1.00  0.00    -0.146 C  
HETATM   21  O   UNL     1      -8.598  10.468  69.272  1.00  0.00    -0.161 OA 
BRANCH  20  22
HETATM   22  C   UNL     1     -10.018  11.394  67.672  1.00  0.00    -0.196 A  
HETATM   23  C   UNL     1     -10.911  13.824  66.506  1.00  0.00    -0.299 A  
HETATM   24  C   UNL     1     -11.830  12.839  66.882  1.00  0.00    -0.440 A  
HETATM   25  C   UNL     1      -9.112  12.377  67.265  1.00  0.00    -0.187 A  
HETATM   26  C   UNL     1     -11.388  11.627  67.465  1.00  0.00    -0.364 A  
HETATM   27  C   UNL     1      -9.554  13.582  66.718  1.00  0.00    -0.268 A  
BRANCH  23  28
HETATM   28  O   UNL     1     -11.402  14.993  65.936  1.00  0.00    -0.338 OA 
BRANCH  28  29
HETATM   29  C   UNL     1     -10.344  15.802  65.396  1.00  0.00    -0.389 C  
BRANCH  29  30
HETATM   30  C   UNL     1     -10.364  17.309  65.713  1.00  0.00    -0.234 C  
BRANCH  30  31
HETATM   31  N   UNL     1      -9.109  17.721  66.402  1.00  0.00    -0.377 NA 
HETATM   32  C   UNL     1      -8.872  19.176  66.425  1.00  0.00    -0.338 C  
HETATM   33  C   UNL     1      -9.960  19.916  67.197  1.00  0.00    -0.557 C  
HETATM   34  C   UNL     1      -9.959  19.448  68.648  1.00  0.00    -0.527 C  
HETATM   35  C   UNL     1      -9.956  17.920  68.772  1.00  0.00    -0.377 C  
HETATM   36  C   UNL     1      -9.020  17.216  67.780  1.00  0.00    -0.226 C  
ENDBRANCH  30  31
ENDBRANCH  29  30
ENDBRANCH  28  29
ENDBRANCH  23  28
ENDBRANCH  20  22
ENDBRANCH  10  20
ENDBRANCH   6   9
TORSDOF 7
ENDMDL
MODEL       35
REMARK 921   NORMALIZED FREE ENERGY PREDICTED BY IDOCK:   -6.70 KCAL/MOL
REMARK 922        TOTAL FREE ENERGY PREDICTED BY IDOCK:  -11.52 KCAL/MOL
REMARK 923 INTER-LIGAND FREE ENERGY PREDICTED BY IDOCK:  -10.23 KCAL/MOL
REMARK 924 INTRA-LIGAND FREE ENERGY PREDICTED BY IDOCK:   -1.28 KCAL/MOL
REMARK 927      BINDING AFFINITY PREDICTED BY RF-SCORE:    0.00 PKD
ROOT
HETATM    1  O   UNL     1     -10.557   6.858  73.443  1.00  0.00    -0.291 OA 
HETATM    2  H   UNL     1     -11.017   6.033  73.549  1.00  0.00     0.000 HD 
HETATM    3  C   UNL     1     -10.451   7.471  72.231  1.00  0.00    -0.230 A  
HETATM    4  C   UNL     1      -9.779   8.677  72.076  1.00  0.00    -0.391 A  
HETATM    5  C   UNL     1      -9.746   9.303  70.820  1.00  0.00    -0.348 A  
HETATM    6  C   UNL     1     -10.366   8.724  69.699  1.00  0.00    -0.213 A  
HETATM    7  C   UNL     1     -10.982   7.471  69.882  1.00  0.00    -0.223 A  
HETATM    8  C   UNL     1     -11.039   6.857  71.143  1.00  0.00    -0.297 A  
ENDROOT
BRANCH   6   9
HETATM    9  C   UNL     1     -10.443   9.429  68.382  1.00  0.00    -0.218 A  
HETATM   10  C   UNL     1     -11.081  10.604  67.953  1.00  0.00    -0.371 A  
HETATM   11  C   UNL     1     -10.712  12.088  64.399  1.00  0.00    -0.369 A  
HETATM   12  C   UNL     1     -10.783  10.911  66.555  1.00  0.00    -0.270 A  
HETATM   13  O   UNL     1      -9.626  11.147  62.537  1.00  0.00    -0.548 OA 
HETATM   14  C   UNL     1     -10.023   9.907  65.961  1.00  0.00    -0.268 A  
HETATM   15  H   UNL     1      -9.880  11.898  62.014  1.00  0.00     0.000 HD 
HETATM   16  C   UNL     1     -11.101  12.037  65.741  1.00  0.00    -0.371 A  
HETATM   17  S   UNL     1      -9.668   8.653  67.055  1.00  0.00    -0.224 SA 
HETATM   18  C   UNL     1      -9.609   9.957  64.615  1.00  0.00    -0.320 A  
HETATM   19  C   UNL     1      -9.980  11.054  63.851  1.00  0.00    -0.341 A  
BRANCH  10  20
HETATM   20  C   UNL     1     -11.821  11.484  68.859  1.00  0.00    -0.341 C  
HETATM   21  O   UNL     1     -12.820  11.067  69.447  1.00  0.00    -0.190 OA 
BRANCH  20  22
HETATM   22  C   UNL     1     -11.420  12.902  69.121  1.00  0.00    -0.360 A  
HETATM   23  C   UNL     1     -11.018  15.680  69.546  1.00  0.00    -0.281 A  
HETATM   24  C   UNL     1     -10.035  14.910  68.916  1.00  0.00    -0.233 A  
HETATM   25  C   UNL     1     -12.379  13.680  69.774  1.00  0.00    -0.285 A  
HETATM   26  C   UNL     1     -10.233  13.525  68.701  1.00  0.00    -0.193 A  
HETATM   27  C   UNL     1     -12.193  15.051  69.958  1.00  0.00    -0.373 A  
BRANCH  23  28
HETATM   28  O   UNL     1     -10.768  17.035  69.733  1.00  0.00    -0.243 OA 
BRANCH  28  29
HETATM   29  C   UNL     1     -10.573  17.714  68.481  1.00  0.00    -0.280 C  
BRANCH  29  30
HETATM   30  C   UNL     1      -9.755  19.018  68.495  1.00  0.00    -0.400 C  
BRANCH  30  31
HETATM   31  N   UNL     1      -8.301  18.727  68.646  1.00  0.00    -0.337 NA 
HETATM   32  C   UNL     1      -7.777  17.717  67.708  1.00  0.00    -0.214 C  
HETATM   33  C   UNL     1      -7.899  18.173  66.258  1.00  0.00    -0.280 C  
HETATM   34  C   UNL     1      -7.070  19.435  66.051  1.00  0.00    -0.291 C  
HETATM   35  C   UNL     1      -7.340  20.497  67.123  1.00  0.00    -0.374 C  
HETATM   36  C   UNL     1      -7.462  19.931  68.545  1.00  0.00    -0.265 C  
ENDBRANCH  30  31
ENDBRANCH  29  30
ENDBRANCH  28  29
ENDBRANCH  23  28
ENDBRANCH  20  22
ENDBRANCH  10  20
ENDBRANCH   6   9
TORSDOF 7
ENDMDL
MODEL       36
REMARK 921   NORMALIZED FREE ENERGY PREDICTED BY IDOCK:   -6.69 KCAL/MOL
REMARK 922        TOTAL FREE ENERGY PREDICTED BY IDOCK:  -11.50 KCAL/MOL
REMARK 923 INTER-LIGAND FREE ENERGY PREDICTED BY IDOCK:   -9.38 KCAL/MOL
REMARK 924 INTRA-LIGAND FREE ENERGY PREDICTED BY IDOCK:   -2.12 KCAL/MOL
REMARK 927      BINDING AFFINITY PREDICTED BY RF-SCORE:    0.00 PKD
ROOT
HETATM    1  O   UNL     1      -6.286  15.336  67.309  1.00  0.00    -0.310 OA 
HETATM    2  H   UNL     1      -6.785  16.142  67.365  1.00  0.00     0.000 HD 
HETATM    3  C   UNL     1      -6.830  14.129  67.629  1.00  0.00    -0.179 A  
HETATM    4  C   UNL     1      -6.101  12.950  67.546  1.00  0.00    -0.143 A  
HETATM    5  C   UNL     1      -6.721  11.722  67.828  1.00  0.00    -0.082 A  
HETATM    6  C   UNL     1      -8.071  11.657  68.214  1.00  0.00    -0.150 A  
HETATM    7  C   UNL     1      -8.759  12.879  68.348  1.00  0.00    -0.119 A  
HETATM    8  C   UNL     1      -8.149  14.104  68.041  1.00  0.00    -0.149 A  
ENDROOT
BRANCH   6   9
HETATM    9  C   UNL     1      -8.779  10.354  68.405  1.00  0.00    -0.129 A  
HETATM   10  C   UNL     1      -9.631   9.592  67.591  1.00  0.00    -0.163 A  
HETATM   11  C   UNL     1     -10.998   6.104  68.561  1.00  0.00    -0.404 A  
HETATM   12  C   UNL     1     -10.011   8.329  68.223  1.00  0.00    -0.217 A  
HETATM   13  O   UNL     1     -10.785   4.981  70.616  1.00  0.00    -0.147 OA 
HETATM   14  C   UNL     1      -9.519   8.240  69.523  1.00  0.00    -0.162 A  
HETATM   15  H   UNL     1     -11.303   4.263  70.273  1.00  0.00     0.000 HD 
HETATM   16  C   UNL     1     -10.744   7.207  67.740  1.00  0.00    -0.282 A  
HETATM   17  S   UNL     1      -8.618   9.617  69.953  1.00  0.00    -0.213 SA 
HETATM   18  C   UNL     1      -9.752   7.126  70.353  1.00  0.00    -0.176 A  
HETATM   19  C   UNL     1     -10.509   6.076  69.852  1.00  0.00    -0.249 A  
BRANCH  10  20
HETATM   20  C   UNL     1      -9.956   9.963  66.212  1.00  0.00    -0.256 C  
HETATM   21  O   UNL     1      -9.680   9.199  65.286  1.00  0.00    -0.157 OA 
BRANCH  20  22
HETATM   22  C   UNL     1     -10.626  11.252  65.854  1.00  0.00    -0.309 A  
HETATM   23  C   UNL     1     -11.557  13.817  65.071  1.00  0.00    -0.341 A  
HETATM   24  C   UNL     1     -12.091  13.183  66.198  1.00  0.00    -0.479 A  
HETATM   25  C   UNL     1     -10.125  11.886  64.716  1.00  0.00    -0.295 A  
HETATM   26  C   UNL     1     -11.628  11.905  66.592  1.00  0.00    -0.337 A  
HETATM   27  C   UNL     1     -10.563  13.159  64.347  1.00  0.00    -0.441 A  
BRANCH  23  28
HETATM   28  O   UNL     1     -12.052  15.071  64.730  1.00  0.00    -0.352 OA 
BRANCH  28  29
HETATM   29  C   UNL     1     -11.012  16.063  64.717  1.00  0.00    -0.356 C  
BRANCH  29  30
HETATM   30  C   UNL     1     -10.506  16.585  66.075  1.00  0.00    -0.310 C  
BRANCH  30  31
HETATM   31  N   UNL     1      -9.638  17.783  65.890  1.00  0.00    -0.527 NA 
HETATM   32  C   UNL     1     -10.350  19.072  65.958  1.00  0.00    -0.446 C  
HETATM   33  C   UNL     1     -10.982  19.300  67.327  1.00  0.00    -0.443 C  
HETATM   34  C   UNL     1      -9.889  19.347  68.388  1.00  0.00    -0.513 C  
HETATM   35  C   UNL     1      -8.912  18.170  68.277  1.00  0.00    -0.306 C  
HETATM   36  C   UNL     1      -8.512  17.826  66.835  1.00  0.00    -0.243 C  
ENDBRANCH  30  31
ENDBRANCH  29  30
ENDBRANCH  28  29
ENDBRANCH  23  28
ENDBRANCH  20  22
ENDBRANCH  10  20
ENDBRANCH   6   9
TORSDOF 7
ENDMDL
MODEL       37
REMARK 921   NORMALIZED FREE ENERGY PREDICTED BY IDOCK:   -6.65 KCAL/MOL
REMARK 922        TOTAL FREE ENERGY PREDICTED BY IDOCK:  -11.46 KCAL/MOL
REMARK 923 INTER-LIGAND FREE ENERGY PREDICTED BY IDOCK:   -9.10 KCAL/MOL
REMARK 924 INTRA-LIGAND FREE ENERGY PREDICTED BY IDOCK:   -2.36 KCAL/MOL
REMARK 927      BINDING AFFINITY PREDICTED BY RF-SCORE:    0.00 PKD
ROOT
HETATM    1  O   UNL     1     -11.552  16.383  63.808  1.00  0.00    -1.605 OA 
HETATM    2  H   UNL     1     -11.133  17.224  63.942  1.00  0.00     0.000 HD 
HETATM    3  C   UNL     1     -11.362  15.340  64.663  1.00  0.00    -0.358 A  
HETATM    4  C   UNL     1     -11.975  14.109  64.467  1.00  0.00    -0.476 A  
HETATM    5  C   UNL     1     -11.797  13.081  65.407  1.00  0.00    -0.428 A  
HETATM    6  C   UNL     1     -10.991  13.262  66.544  1.00  0.00    -0.299 A  
HETATM    7  C   UNL     1     -10.335  14.502  66.674  1.00  0.00    -0.274 A  
HETATM    8  C   UNL     1     -10.532  15.539  65.750  1.00  0.00    -0.378 A  
ENDROOT
BRANCH   6   9
HETATM    9  C   UNL     1     -10.882  12.223  67.614  1.00  0.00    -0.225 A  
HETATM   10  C   UNL     1      -9.964  11.193  67.867  1.00  0.00    -0.189 A  
HETATM   11  C   UNL     1     -10.073   8.921  70.998  1.00  0.00    -0.324 A  
HETATM   12  C   UNL     1     -10.264  10.481  69.109  1.00  0.00    -0.241 A  
HETATM   13  O   UNL     1     -11.730   8.823  72.663  1.00  0.00    -0.267 OA 
HETATM   14  C   UNL     1     -11.450  10.934  69.683  1.00  0.00    -0.305 A  
HETATM   15  H   UNL     1     -11.250   8.127  73.095  1.00  0.00     0.000 HD 
HETATM   16  C   UNL     1      -9.558   9.467  69.818  1.00  0.00    -0.216 A  
HETATM   17  S   UNL     1     -12.160  12.180  68.768  1.00  0.00     0.039 SA 
HETATM   18  C   UNL     1     -11.969  10.405  70.881  1.00  0.00    -0.478 A  
HETATM   19  C   UNL     1     -11.266   9.387  71.512  1.00  0.00    -0.386 A  
BRANCH  10  20
HETATM   20  C   UNL     1      -8.764  10.978  67.055  1.00  0.00    -0.141 C  
HETATM   21  O   UNL     1      -8.001  11.917  66.821  1.00  0.00    -0.153 OA 
BRANCH  20  22
HETATM   22  C   UNL     1      -8.401   9.646  66.479  1.00  0.00    -0.120 A  
HETATM   23  C   UNL     1      -7.355   7.213  65.454  1.00  0.00    -0.080 A  
HETATM   24  C   UNL     1      -8.458   7.823  64.846  1.00  0.00    -0.019 A  
HETATM   25  C   UNL     1      -7.318   9.009  67.091  1.00  0.00    -0.087 A  
HETATM   26  C   UNL     1      -8.981   9.037  65.354  1.00  0.00    -0.249 A  
HETATM   27  C   UNL     1      -6.788   7.828  66.570  1.00  0.00    -0.066 A  
BRANCH  23  28
HETATM   28  O   UNL     1      -6.886   6.022  64.914  1.00  0.00    -0.045 OA 
BRANCH  28  29
HETATM   29  C   UNL     1      -7.739   4.916  65.254  1.00  0.00    -0.086 C  
BRANCH  29  30
HETATM   30  C   UNL     1      -8.054   4.689  66.745  1.00  0.00    -0.103 C  
BRANCH  30  31
HETATM   31  N   UNL     1      -9.436   4.160  66.918  1.00  0.00    -0.179 NA 
HETATM   32  C   UNL     1      -9.765   3.743  68.294  1.00  0.00    -0.030 C  
HETATM   33  C   UNL     1      -9.708   4.914  69.270  1.00  0.00    -0.258 C  
HETATM   34  C   UNL     1     -10.742   5.959  68.869  1.00  0.00    -0.370 C  
HETATM   35  C   UNL     1     -10.674   6.312  67.379  1.00  0.00    -0.409 C  
HETATM   36  C   UNL     1     -10.471   5.099  66.460  1.00  0.00    -0.294 C  
ENDBRANCH  30  31
ENDBRANCH  29  30
ENDBRANCH  28  29
ENDBRANCH  23  28
ENDBRANCH  20  22
ENDBRANCH  10  20
ENDBRANCH   6   9
TORSDOF 7
ENDMDL
MODEL       38
REMARK 921   NORMALIZED FREE ENERGY PREDICTED BY IDOCK:   -6.65 KCAL/MOL
REMARK 922        TOTAL FREE ENERGY PREDICTED BY IDOCK:  -11.45 KCAL/MOL
REMARK 923 INTER-LIGAND FREE ENERGY PREDICTED BY IDOCK:  -10.65 KCAL/MOL
REMARK 924 INTRA-LIGAND FREE ENERGY PREDICTED BY IDOCK:   -0.80 KCAL/MOL
REMARK 927      BINDING AFFINITY PREDICTED BY RF-SCORE:    0.00 PKD
ROOT
HETATM    1  O   UNL     1      -5.278  19.146  70.264  1.00  0.00    -0.191 OA 
HETATM    2  H   UNL     1      -5.294  20.093  70.192  1.00  0.00     0.000 HD 
HETATM    3  C   UNL     1      -6.262  18.368  69.733  1.00  0.00    -0.182 A  
HETATM    4  C   UNL     1      -6.239  16.983  69.838  1.00  0.00    -0.132 A  
HETATM    5  C   UNL     1      -7.243  16.218  69.222  1.00  0.00    -0.221 A  
HETATM    6  C   UNL     1      -8.292  16.826  68.511  1.00  0.00    -0.243 A  
HETATM    7  C   UNL     1      -8.315  18.234  68.481  1.00  0.00    -0.327 A  
HETATM    8  C   UNL     1      -7.298  18.999  69.072  1.00  0.00    -0.341 A  
ENDROOT
BRANCH   6   9
HETATM    9  C   UNL     1      -9.302  16.027  67.752  1.00  0.00    -0.211 A  
HETATM   10  C   UNL     1     -10.523  15.431  68.105  1.00  0.00    -0.247 A  
HETATM   11  C   UNL     1     -12.869  13.653  65.593  1.00  0.00    -0.425 A  
HETATM   12  C   UNL     1     -11.184  14.809  66.959  1.00  0.00    -0.347 A  
HETATM   13  O   UNL     1     -12.467  13.164  63.328  1.00  0.00    -0.720 OA 
HETATM   14  C   UNL     1     -10.390  14.871  65.815  1.00  0.00    -0.332 A  
HETATM   15  H   UNL     1     -13.316  12.741  63.273  1.00  0.00     0.000 HD 
HETATM   16  C   UNL     1     -12.466  14.205  66.813  1.00  0.00    -0.200 A  
HETATM   17  S   UNL     1      -8.915  15.664  66.113  1.00  0.00    -0.257 SA 
HETATM   18  C   UNL     1     -10.793  14.336  64.576  1.00  0.00    -0.305 A  
HETATM   19  C   UNL     1     -12.033  13.718  64.496  1.00  0.00    -0.427 A  
BRANCH  10  20
HETATM   20  C   UNL     1     -11.119  15.566  69.436  1.00  0.00    -0.291 C  
HETATM   21  O   UNL     1     -11.156  16.668  69.987  1.00  0.00    -0.312 OA 
BRANCH  20  22
HETATM   22  C   UNL     1     -11.704  14.411  70.185  1.00  0.00    -0.361 A  
HETATM   23  C   UNL     1     -12.847  12.049  71.272  1.00  0.00    -0.265 A  
HETATM   24  C   UNL     1     -13.176  13.303  71.798  1.00  0.00    -0.495 A  
HETATM   25  C   UNL     1     -11.364  13.149  69.691  1.00  0.00    -0.182 A  
HETATM   26  C   UNL     1     -12.609  14.482  71.257  1.00  0.00    -0.415 A  
HETATM   27  C   UNL     1     -11.948  11.991  70.207  1.00  0.00    -0.398 A  
BRANCH  23  28
HETATM   28  O   UNL     1     -13.432  10.926  71.844  1.00  0.00    -0.345 OA 
BRANCH  28  29
HETATM   29  C   UNL     1     -12.776   9.717  71.424  1.00  0.00    -0.387 C  
BRANCH  29  30
HETATM   30  C   UNL     1     -12.332   8.729  72.519  1.00  0.00    -0.287 C  
BRANCH  30  31
HETATM   31  N   UNL     1     -10.902   8.350  72.339  1.00  0.00    -0.352 NA 
HETATM   32  C   UNL     1     -10.511   7.097  73.009  1.00  0.00    -0.292 C  
HETATM   33  C   UNL     1     -11.269   5.896  72.452  1.00  0.00    -0.340 C  
HETATM   34  C   UNL     1     -10.934   5.726  70.975  1.00  0.00    -0.300 C  
HETATM   35  C   UNL     1     -11.063   7.036  70.189  1.00  0.00    -0.323 C  
HETATM   36  C   UNL     1     -10.505   8.262  70.926  1.00  0.00    -0.196 C  
ENDBRANCH  30  31
ENDBRANCH  29  30
ENDBRANCH  28  29
ENDBRANCH  23  28
ENDBRANCH  20  22
ENDBRANCH  10  20
ENDBRANCH   6   9
TORSDOF 7
ENDMDL
MODEL       39
REMARK 921   NORMALIZED FREE ENERGY PREDICTED BY IDOCK:   -6.55 KCAL/MOL
REMARK 922        TOTAL FREE ENERGY PREDICTED BY IDOCK:  -11.31 KCAL/MOL
REMARK 923 INTER-LIGAND FREE ENERGY PREDICTED BY IDOCK:   -9.02 KCAL/MOL
REMARK 924 INTRA-LIGAND FREE ENERGY PREDICTED BY IDOCK:   -2.29 KCAL/MOL
REMARK 927      BINDING AFFINITY PREDICTED BY RF-SCORE:    0.00 PKD
ROOT
HETATM    1  O   UNL     1      -5.748  10.060  69.658  1.00  0.00    -0.037 OA 
HETATM    2  H   UNL     1      -5.157   9.887  70.382  1.00  0.00     0.000 HD 
HETATM    3  C   UNL     1      -6.233  11.308  69.408  1.00  0.00    -0.083 A  
HETATM    4  C   UNL     1      -7.096  11.561  68.350  1.00  0.00    -0.081 A  
HETATM    5  C   UNL     1      -7.523  12.874  68.094  1.00  0.00    -0.126 A  
HETATM    6  C   UNL     1      -7.109  13.948  68.901  1.00  0.00    -0.110 A  
HETATM    7  C   UNL     1      -6.285  13.641  70.002  1.00  0.00    -0.109 A  
HETATM    8  C   UNL     1      -5.836  12.334  70.244  1.00  0.00    -0.166 A  
ENDROOT
BRANCH   6   9
HETATM    9  C   UNL     1      -7.457  15.365  68.577  1.00  0.00    -0.117 A  
HETATM   10  C   UNL     1      -8.673  16.058  68.467  1.00  0.00    -0.195 A  
HETATM   11  C   UNL     1      -8.940  19.863  67.818  1.00  0.00    -0.402 A  
HETATM   12  C   UNL     1      -8.472  17.480  68.193  1.00  0.00    -0.254 A  
HETATM   13  O   UNL     1      -7.210  21.376  67.319  1.00  0.00    -0.751 OA 
HETATM   14  C   UNL     1      -7.124  17.779  68.004  1.00  0.00    -0.209 A  
HETATM   15  H   UNL     1      -7.849  22.076  67.249  1.00  0.00     0.000 HD 
HETATM   16  C   UNL     1      -9.384  18.572  68.122  1.00  0.00    -0.336 A  
HETATM   17  S   UNL     1      -6.142  16.400  68.171  1.00  0.00    -0.126 SA 
HETATM   18  C   UNL     1      -6.664  19.079  67.717  1.00  0.00    -0.222 A  
HETATM   19  C   UNL     1      -7.596  20.102  67.615  1.00  0.00    -0.304 A  
BRANCH  10  20
HETATM   20  C   UNL     1      -9.970  15.441  68.755  1.00  0.00    -0.208 C  
HETATM   21  O   UNL     1     -10.473  15.556  69.874  1.00  0.00    -0.279 OA 
BRANCH  20  22
HETATM   22  C   UNL     1     -10.741  14.660  67.739  1.00  0.00    -0.265 A  
HETATM   23  C   UNL     1     -12.329  13.510  65.685  1.00  0.00    -0.476 A  
HETATM   24  C   UNL     1     -12.221  12.885  66.932  1.00  0.00    -0.175 A  
HETATM   25  C   UNL     1     -10.837  15.256  66.479  1.00  0.00    -0.311 A  
HETATM   26  C   UNL     1     -11.431  13.457  67.959  1.00  0.00    -0.339 A  
HETATM   27  C   UNL     1     -11.640  14.705  65.479  1.00  0.00    -0.335 A  
BRANCH  23  28
HETATM   28  O   UNL     1     -13.116  12.901  64.715  1.00  0.00    -0.754 OA 
BRANCH  28  29
HETATM   29  C   UNL     1     -12.375  12.662  63.507  1.00  0.00    -0.496 C  
BRANCH  29  30
HETATM   30  C   UNL     1     -11.499  11.396  63.445  1.00  0.00    -0.023 C  
BRANCH  30  31
HETATM   31  N   UNL     1     -10.064  11.736  63.662  1.00  0.00    -0.381 NA 
HETATM   32  C   UNL     1      -9.550  11.395  65.001  1.00  0.00    -0.221 C  
HETATM   33  C   UNL     1      -9.603   9.894  65.265  1.00  0.00    -0.361 C  
HETATM   34  C   UNL     1      -8.717   9.171  64.258  1.00  0.00    -0.180 C  
HETATM   35  C   UNL     1      -8.981   9.618  62.815  1.00  0.00    -0.264 C  
HETATM   36  C   UNL     1      -9.174  11.133  62.658  1.00  0.00    -0.323 C  
ENDBRANCH  30  31
ENDBRANCH  29  30
ENDBRANCH  28  29
ENDBRANCH  23  28
ENDBRANCH  20  22
ENDBRANCH  10  20
ENDBRANCH   6   9
TORSDOF 7
ENDMDL
MODEL       40
REMARK 921   NORMALIZED FREE ENERGY PREDICTED BY IDOCK:   -6.54 KCAL/MOL
REMARK 922        TOTAL FREE ENERGY PREDICTED BY IDOCK:  -11.29 KCAL/MOL
REMARK 923 INTER-LIGAND FREE ENERGY PREDICTED BY IDOCK:   -9.79 KCAL/MOL
REMARK 924 INTRA-LIGAND FREE ENERGY PREDICTED BY IDOCK:   -1.50 KCAL/MOL
REMARK 927      BINDING AFFINITY PREDICTED BY RF-SCORE:    0.00 PKD
ROOT
HETATM    1  O   UNL     1     -12.442  13.835  62.522  1.00  0.00    -0.606 OA 
HETATM    2  H   UNL     1     -13.050  14.560  62.607  1.00  0.00     0.000 HD 
HETATM    3  C   UNL     1     -11.976  13.156  63.607  1.00  0.00    -0.514 A  
HETATM    4  C   UNL     1     -11.089  12.095  63.482  1.00  0.00    -0.525 A  
HETATM    5  C   UNL     1     -10.681  11.386  64.624  1.00  0.00    -0.378 A  
HETATM    6  C   UNL     1     -11.140  11.738  65.905  1.00  0.00    -0.355 A  
HETATM    7  C   UNL     1     -11.988  12.858  65.997  1.00  0.00    -0.505 A  
HETATM    8  C   UNL     1     -12.417  13.552  64.855  1.00  0.00    -0.429 A  
ENDROOT
BRANCH   6   9
HETATM    9  C   UNL     1     -10.812  10.925  67.116  1.00  0.00    -0.280 A  
HETATM   10  C   UNL     1     -10.555  11.253  68.457  1.00  0.00    -0.227 A  
HETATM   11  C   UNL     1      -9.986   8.637  71.251  1.00  0.00    -0.315 A  
HETATM   12  C   UNL     1     -10.352  10.064  69.284  1.00  0.00    -0.237 A  
HETATM   13  O   UNL     1      -9.775   6.305  71.036  1.00  0.00    -0.174 OA 
HETATM   14  C   UNL     1     -10.361   8.901  68.519  1.00  0.00    -0.198 A  
HETATM   15  H   UNL     1      -9.638   6.235  71.973  1.00  0.00     0.000 HD 
HETATM   16  C   UNL     1     -10.187   9.902  70.691  1.00  0.00    -0.203 A  
HETATM   17  S   UNL     1     -10.621   9.231  66.871  1.00  0.00    -0.102 SA 
HETATM   18  C   UNL     1     -10.178   7.619  69.075  1.00  0.00    -0.211 A  
HETATM   19  C   UNL     1      -9.978   7.517  70.445  1.00  0.00    -0.184 A  
BRANCH  10  20
HETATM   20  C   UNL     1     -10.643  12.621  68.973  1.00  0.00    -0.041 C  
HETATM   21  O   UNL     1     -11.640  12.981  69.601  1.00  0.00    -0.286 OA 
BRANCH  20  22
HETATM   22  C   UNL     1      -9.559  13.634  68.777  1.00  0.00    -0.017 A  
HETATM   23  C   UNL     1      -7.774  15.784  68.279  1.00  0.00    -0.132 A  
HETATM   24  C   UNL     1      -7.382  14.465  68.027  1.00  0.00    -0.148 A  
HETATM   25  C   UNL     1      -9.924  14.954  69.049  1.00  0.00    -0.235 A  
HETATM   26  C   UNL     1      -8.271  13.391  68.273  1.00  0.00    -0.160 A  
HETATM   27  C   UNL     1      -9.056  16.013  68.778  1.00  0.00    -0.222 A  
BRANCH  23  28
HETATM   28  O   UNL     1      -6.859  16.799  68.021  1.00  0.00    -0.138 OA 
BRANCH  28  29
HETATM   29  C   UNL     1      -6.949  17.258  66.662  1.00  0.00    -0.237 C  
BRANCH  29  30
HETATM   30  C   UNL     1      -8.344  17.624  66.122  1.00  0.00    -0.148 C  
BRANCH  30  31
HETATM   31  N   UNL     1      -8.524  19.103  66.084  1.00  0.00    -0.435 NA 
HETATM   32  C   UNL     1      -9.926  19.547  65.980  1.00  0.00    -0.398 C  
HETATM   33  C   UNL     1     -10.747  19.121  67.193  1.00  0.00    -0.567 C  
HETATM   34  C   UNL     1     -10.173  19.770  68.447  1.00  0.00    -0.568 C  
HETATM   35  C   UNL     1      -8.654  19.593  68.557  1.00  0.00    -0.338 C  
HETATM   36  C   UNL     1      -7.906  19.786  67.230  1.00  0.00    -0.274 C  
ENDBRANCH  30  31
ENDBRANCH  29  30
ENDBRANCH  28  29
ENDBRANCH  23  28
ENDBRANCH  20  22
ENDBRANCH  10  20
ENDBRANCH   6   9
TORSDOF 7
ENDMDL
MODEL       41
REMARK 921   NORMALIZED FREE ENERGY PREDICTED BY IDOCK:   -6.45 KCAL/MOL
REMARK 922        TOTAL FREE ENERGY PREDICTED BY IDOCK:  -11.17 KCAL/MOL
REMARK 923 INTER-LIGAND FREE ENERGY PREDICTED BY IDOCK:   -9.19 KCAL/MOL
REMARK 924 INTRA-LIGAND FREE ENERGY PREDICTED BY IDOCK:   -1.98 KCAL/MOL
REMARK 927      BINDING AFFINITY PREDICTED BY RF-SCORE:    0.00 PKD
ROOT
HETATM    1  O   UNL     1      -5.134  11.194  64.629  1.00  0.00    -0.463 OA 
HETATM    2  H   UNL     1      -4.802  12.083  64.600  1.00  0.00     0.000 HD 
HETATM    3  C   UNL     1      -5.842  10.725  65.693  1.00  0.00    -0.121 A  
HETATM    4  C   UNL     1      -6.329   9.425  65.735  1.00  0.00    -0.068 A  
HETATM    5  C   UNL     1      -7.105   9.003  66.826  1.00  0.00    -0.082 A  
HETATM    6  C   UNL     1      -7.390   9.866  67.898  1.00  0.00    -0.088 A  
HETATM    7  C   UNL     1      -6.825  11.156  67.849  1.00  0.00    -0.068 A  
HETATM    8  C   UNL     1      -6.072  11.588  66.747  1.00  0.00    -0.147 A  
ENDROOT
BRANCH   6   9
HETATM    9  C   UNL     1      -8.309   9.475  69.010  1.00  0.00    -0.126 A  
HETATM   10  C   UNL     1      -9.706   9.446  69.142  1.00  0.00    -0.165 A  
HETATM   11  C   UNL     1     -11.558   8.078  72.252  1.00  0.00    -0.424 A  
HETATM   12  C   UNL     1     -10.126   8.903  70.433  1.00  0.00    -0.232 A  
HETATM   13  O   UNL     1     -10.636   7.376  74.298  1.00  0.00    -0.473 OA 
HETATM   14  C   UNL     1      -9.034   8.642  71.257  1.00  0.00    -0.210 A  
HETATM   15  H   UNL     1     -11.510   7.198  74.626  1.00  0.00     0.000 HD 
HETATM   16  C   UNL     1     -11.412   8.577  70.954  1.00  0.00    -0.302 A  
HETATM   17  S   UNL     1      -7.562   9.022  70.495  1.00  0.00    -0.126 SA 
HETATM   18  C   UNL     1      -9.168   8.121  72.559  1.00  0.00    -0.319 A  
HETATM   19  C   UNL     1     -10.444   7.861  73.038  1.00  0.00    -0.343 A  
BRANCH  10  20
HETATM   20  C   UNL     1     -10.616   9.778  68.043  1.00  0.00    -0.243 C  
HETATM   21  O   UNL     1     -11.158   8.879  67.398  1.00  0.00    -0.008 OA 
BRANCH  20  22
HETATM   22  C   UNL     1     -10.935  11.185  67.649  1.00  0.00    -0.323 A  
HETATM   23  C   UNL     1     -11.183  13.879  66.787  1.00  0.00    -0.318 A  
HETATM   24  C   UNL     1     -11.834  13.443  67.945  1.00  0.00    -0.392 A  
HETATM   25  C   UNL     1     -10.315  11.630  66.479  1.00  0.00    -0.259 A  
HETATM   26  C   UNL     1     -11.711  12.101  68.379  1.00  0.00    -0.388 A  
HETATM   27  C   UNL     1     -10.415  12.961  66.071  1.00  0.00    -0.290 A  
BRANCH  23  28
HETATM   28  O   UNL     1     -11.342  15.207  66.408  1.00  0.00    -0.320 OA 
BRANCH  28  29
HETATM   29  C   UNL     1     -10.302  15.627  65.509  1.00  0.00    -0.396 C  
BRANCH  29  30
HETATM   30  C   UNL     1      -9.156  16.477  66.089  1.00  0.00    -0.306 C  
BRANCH  30  31
HETATM   31  N   UNL     1      -9.475  17.930  65.993  1.00  0.00    -0.525 NA 
HETATM   32  C   UNL     1     -10.580  18.374  66.862  1.00  0.00    -0.347 C  
HETATM   33  C   UNL     1     -10.252  18.180  68.339  1.00  0.00    -0.401 C  
HETATM   34  C   UNL     1      -9.039  19.027  68.704  1.00  0.00    -0.401 C  
HETATM   35  C   UNL     1      -7.878  18.845  67.720  1.00  0.00    -0.267 C  
HETATM   36  C   UNL     1      -8.311  18.791  66.249  1.00  0.00    -0.246 C  
ENDBRANCH  30  31
ENDBRANCH  29  30
ENDBRANCH  28  29
ENDBRANCH  23  28
ENDBRANCH  20  22
ENDBRANCH  10  20
ENDBRANCH   6   9
TORSDOF 7
ENDMDL
MODEL       42
REMARK 921   NORMALIZED FREE ENERGY PREDICTED BY IDOCK:   -6.45 KCAL/MOL
REMARK 922        TOTAL FREE ENERGY PREDICTED BY IDOCK:  -11.17 KCAL/MOL
REMARK 923 INTER-LIGAND FREE ENERGY PREDICTED BY IDOCK:  -10.31 KCAL/MOL
REMARK 924 INTRA-LIGAND FREE ENERGY PREDICTED BY IDOCK:   -0.86 KCAL/MOL
REMARK 927      BINDING AFFINITY PREDICTED BY RF-SCORE:    0.00 PKD
ROOT
HETATM    1  O   UNL     1     -11.737   7.887  73.261  1.00  0.00    -0.632 OA 
HETATM    2  H   UNL     1     -12.394   7.233  73.468  1.00  0.00     0.000 HD 
HETATM    3  C   UNL     1     -11.237   8.031  72.003  1.00  0.00    -0.298 A  
HETATM    4  C   UNL     1     -10.277   8.988  71.700  1.00  0.00    -0.418 A  
HETATM    5  C   UNL     1      -9.834   9.141  70.376  1.00  0.00    -0.263 A  
HETATM    6  C   UNL     1     -10.330   8.330  69.341  1.00  0.00    -0.223 A  
HETATM    7  C   UNL     1     -11.256   7.330  69.699  1.00  0.00    -0.109 A  
HETATM    8  C   UNL     1     -11.718   7.192  71.016  1.00  0.00    -0.358 A  
ENDROOT
BRANCH   6   9
HETATM    9  C   UNL     1      -9.960   8.554  67.910  1.00  0.00    -0.181 A  
HETATM   10  C   UNL     1     -10.303   9.537  66.969  1.00  0.00    -0.319 A  
HETATM   11  C   UNL     1      -8.808   9.730  63.405  1.00  0.00    -0.258 A  
HETATM   12  C   UNL     1      -9.605   9.347  65.697  1.00  0.00    -0.345 A  
HETATM   13  O   UNL     1      -7.395   8.182  62.337  1.00  0.00    -0.093 OA 
HETATM   14  C   UNL     1      -8.849   8.177  65.699  1.00  0.00    -0.120 A  
HETATM   15  H   UNL     1      -7.400   8.723  61.556  1.00  0.00     0.000 HD 
HETATM   16  C   UNL     1      -9.545  10.145  64.518  1.00  0.00    -0.376 A  
HETATM   17  S   UNL     1      -8.965   7.352  67.182  1.00  0.00    -0.130 SA 
HETATM   18  C   UNL     1      -8.088   7.759  64.590  1.00  0.00    -0.123 A  
HETATM   19  C   UNL     1      -8.096   8.548  63.448  1.00  0.00    -0.160 A  
BRANCH  10  20
HETATM   20  C   UNL     1     -11.138  10.695  67.294  1.00  0.00    -0.243 C  
HETATM   21  O   UNL     1     -12.029  10.595  68.140  1.00  0.00    -0.460 OA 
BRANCH  20  22
HETATM   22  C   UNL     1     -10.966  12.030  66.641  1.00  0.00    -0.330 A  
HETATM   23  C   UNL     1     -10.500  14.679  65.732  1.00  0.00    -0.325 A  
HETATM   24  C   UNL     1     -11.634  13.975  65.313  1.00  0.00    -0.339 A  
HETATM   25  C   UNL     1      -9.824  12.736  67.026  1.00  0.00    -0.231 A  
HETATM   26  C   UNL     1     -11.870  12.655  65.766  1.00  0.00    -0.497 A  
HETATM   27  C   UNL     1      -9.610  14.049  66.601  1.00  0.00    -0.299 A  
BRANCH  23  28
HETATM   28  O   UNL     1     -10.319  15.971  65.253  1.00  0.00    -0.471 OA 
BRANCH  28  29
HETATM   29  C   UNL     1     -10.904  16.947  66.132  1.00  0.00     0.009 C  
BRANCH  29  30
HETATM   30  C   UNL     1     -10.456  18.412  65.973  1.00  0.00    -0.374 C  
BRANCH  30  31
HETATM   31  N   UNL     1     -10.596  19.150  67.260  1.00  0.00    -0.455 NA 
HETATM   32  C   UNL     1     -10.140  18.404  68.447  1.00  0.00    -0.390 C  
HETATM   33  C   UNL     1      -8.649  18.089  68.380  1.00  0.00    -0.298 C  
HETATM   34  C   UNL     1      -7.857  19.391  68.348  1.00  0.00    -0.377 C  
HETATM   35  C   UNL     1      -8.391  20.378  67.304  1.00  0.00    -0.398 C  
HETATM   36  C   UNL     1      -9.923  20.457  67.248  1.00  0.00    -0.424 C  
ENDBRANCH  30  31
ENDBRANCH  29  30
ENDBRANCH  28  29
ENDBRANCH  23  28
ENDBRANCH  20  22
ENDBRANCH  10  20
ENDBRANCH   6   9
TORSDOF 7
ENDMDL
MODEL       43
REMARK 921   NORMALIZED FREE ENERGY PREDICTED BY IDOCK:   -6.44 KCAL/MOL
REMARK 922        TOTAL FREE ENERGY PREDICTED BY IDOCK:  -11.15 KCAL/MOL
REMARK 923 INTER-LIGAND FREE ENERGY PREDICTED BY IDOCK:   -9.98 KCAL/MOL
REMARK 924 INTRA-LIGAND FREE ENERGY PREDICTED BY IDOCK:   -1.17 KCAL/MOL
REMARK 927      BINDING AFFINITY PREDICTED BY RF-SCORE:    0.00 PKD
ROOT
HETATM    1  O   UNL     1      -9.108  11.673  62.827  1.00  0.00    -0.571 OA 
HETATM    2  H   UNL     1      -9.776  11.932  62.203  1.00  0.00     0.000 HD 
HETATM    3  C   UNL     1      -9.416  11.317  64.105  1.00  0.00    -0.177 A  
HETATM    4  C   UNL     1      -8.440  10.938  65.016  1.00  0.00    -0.009 A  
HETATM    5  C   UNL     1      -8.809  10.520  66.305  1.00  0.00    -0.172 A  
HETATM    6  C   UNL     1     -10.156  10.494  66.706  1.00  0.00    -0.270 A  
HETATM    7  C   UNL     1     -11.111  10.947  65.775  1.00  0.00     0.052 A  
HETATM    8  C   UNL     1     -10.746  11.339  64.478  1.00  0.00    -0.390 A  
ENDROOT
BRANCH   6   9
HETATM    9  C   UNL     1     -10.579   9.944  68.031  1.00  0.00    -0.242 A  
HETATM   10  C   UNL     1     -11.135  10.523  69.182  1.00  0.00    -0.302 A  
HETATM   11  C   UNL     1     -12.265   8.507  72.286  1.00  0.00    -0.454 A  
HETATM   12  C   UNL     1     -11.442   9.525  70.206  1.00  0.00    -0.256 A  
HETATM   13  O   UNL     1     -11.967   6.214  72.715  1.00  0.00    -0.509 OA 
HETATM   14  C   UNL     1     -11.010   8.256  69.829  1.00  0.00    -0.129 A  
HETATM   15  H   UNL     1     -12.391   6.321  73.558  1.00  0.00     0.000 HD 
HETATM   16  C   UNL     1     -12.111   9.625  71.460  1.00  0.00    -0.482 A  
HETATM   17  S   UNL     1     -10.281   8.268  68.292  1.00  0.00    -0.203 SA 
HETATM   18  C   UNL     1     -11.177   7.119  70.643  1.00  0.00    -0.311 A  
HETATM   19  C   UNL     1     -11.796   7.275  71.876  1.00  0.00    -0.297 A  
BRANCH  10  20
HETATM   20  C   UNL     1     -11.504  11.938  69.263  1.00  0.00    -0.306 C  
HETATM   21  O   UNL     1     -12.386  12.303  70.042  1.00  0.00    -0.200 OA 
BRANCH  20  22
HETATM   22  C   UNL     1     -10.850  12.996  68.432  1.00  0.00    -0.280 A  
HETATM   23  C   UNL     1      -9.852  14.908  66.584  1.00  0.00    -0.260 A  
HETATM   24  C   UNL     1      -8.979  14.221  67.434  1.00  0.00    -0.205 A  
HETATM   25  C   UNL     1     -11.710  13.712  67.596  1.00  0.00    -0.398 A  
HETATM   26  C   UNL     1      -9.473  13.266  68.355  1.00  0.00    -0.172 A  
HETATM   27  C   UNL     1     -11.217  14.631  66.669  1.00  0.00    -0.349 A  
BRANCH  23  28
HETATM   28  O   UNL     1      -9.311  15.836  65.702  1.00  0.00    -0.304 OA 
BRANCH  28  29
HETATM   29  C   UNL     1      -8.088  16.395  66.208  1.00  0.00    -0.276 C  
BRANCH  29  30
HETATM   30  C   UNL     1      -7.870  17.910  66.036  1.00  0.00    -0.154 C  
BRANCH  30  31
HETATM   31  N   UNL     1      -7.871  18.598  67.358  1.00  0.00    -0.231 NA 
HETATM   32  C   UNL     1      -8.257  20.020  67.308  1.00  0.00    -0.326 C  
HETATM   33  C   UNL     1      -9.687  20.202  66.811  1.00  0.00    -0.577 C  
HETATM   34  C   UNL     1     -10.650  19.520  67.777  1.00  0.00    -0.542 C  
HETATM   35  C   UNL     1     -10.225  18.087  68.115  1.00  0.00    -0.392 C  
HETATM   36  C   UNL     1      -8.718  17.924  68.354  1.00  0.00    -0.293 C  
ENDBRANCH  30  31
ENDBRANCH  29  30
ENDBRANCH  28  29
ENDBRANCH  23  28
ENDBRANCH  20  22
ENDBRANCH  10  20
ENDBRANCH   6   9
TORSDOF 7
ENDMDL
MODEL       44
REMARK 921   NORMALIZED FREE ENERGY PREDICTED BY IDOCK:   -6.42 KCAL/MOL
REMARK 922        TOTAL FREE ENERGY PREDICTED BY IDOCK:  -11.13 KCAL/MOL
REMARK 923 INTER-LIGAND FREE ENERGY PREDICTED BY IDOCK:   -9.39 KCAL/MOL
REMARK 924 INTRA-LIGAND FREE ENERGY PREDICTED BY IDOCK:   -1.74 KCAL/MOL
REMARK 927      BINDING AFFINITY PREDICTED BY RF-SCORE:    0.00 PKD
ROOT
HETATM    1  O   UNL     1      -6.437   5.874  64.778  1.00  0.00    -0.036 OA 
HETATM    2  H   UNL     1      -5.515   6.102  64.814  1.00  0.00     0.000 HD 
HETATM    3  C   UNL     1      -7.319   6.295  65.727  1.00  0.00    -0.080 A  
HETATM    4  C   UNL     1      -8.666   5.962  65.675  1.00  0.00    -0.149 A  
HETATM    5  C   UNL     1      -9.550   6.469  66.642  1.00  0.00    -0.201 A  
HETATM    6  C   UNL     1      -9.097   7.299  67.682  1.00  0.00    -0.124 A  
HETATM    7  C   UNL     1      -7.714   7.561  67.737  1.00  0.00    -0.115 A  
HETATM    8  C   UNL     1      -6.834   7.078  66.757  1.00  0.00    -0.068 A  
ENDROOT
BRANCH   6   9
HETATM    9  C   UNL     1     -10.038   7.941  68.651  1.00  0.00    -0.197 A  
HETATM   10  C   UNL     1     -10.659   9.199  68.701  1.00  0.00    -0.207 A  
HETATM   11  C   UNL     1     -13.239  10.229  71.395  1.00  0.00    -0.464 A  
HETATM   12  C   UNL     1     -11.566   9.319  69.842  1.00  0.00     0.076 A  
HETATM   13  O   UNL     1     -13.883   9.039  73.318  1.00  0.00    -1.159 OA 
HETATM   14  C   UNL     1     -11.511   8.192  70.659  1.00  0.00    -0.231 A  
HETATM   15  H   UNL     1     -14.463   9.752  73.560  1.00  0.00     0.000 HD 
HETATM   16  C   UNL     1     -12.482  10.341  70.224  1.00  0.00    -0.239 A  
HETATM   17  S   UNL     1     -10.423   7.030  70.060  1.00  0.00    -0.222 SA 
HETATM   18  C   UNL     1     -12.282   8.060  71.831  1.00  0.00    -0.359 A  
HETATM   19  C   UNL     1     -13.129   9.102  72.184  1.00  0.00    -0.446 A  
BRANCH  10  20
HETATM   20  C   UNL     1     -10.524  10.197  67.638  1.00  0.00    -0.245 C  
HETATM   21  O   UNL     1     -10.584   9.853  66.456  1.00  0.00    -0.176 OA 
BRANCH  20  22
HETATM   22  C   UNL     1     -10.312  11.652  67.913  1.00  0.00    -0.206 A  
HETATM   23  C   UNL     1     -10.158  14.477  68.160  1.00  0.00    -0.227 A  
HETATM   24  C   UNL     1      -9.012  13.688  68.313  1.00  0.00    -0.187 A  
HETATM   25  C   UNL     1     -11.451  12.452  67.792  1.00  0.00    -0.383 A  
HETATM   26  C   UNL     1      -9.085  12.280  68.188  1.00  0.00    -0.196 A  
HETATM   27  C   UNL     1     -11.369  13.842  67.886  1.00  0.00    -0.320 A  
BRANCH  23  28
HETATM   28  O   UNL     1     -10.027  15.854  68.295  1.00  0.00    -0.218 OA 
BRANCH  28  29
HETATM   29  C   UNL     1     -10.997  16.389  69.210  1.00  0.00    -0.322 C  
BRANCH  29  30
HETATM   30  C   UNL     1     -11.006  15.835  70.647  1.00  0.00    -0.320 C  
BRANCH  30  31
HETATM   31  N   UNL     1     -12.239  16.260  71.369  1.00  0.00    -0.248 NA 
HETATM   32  C   UNL     1     -13.460  15.533  70.977  1.00  0.00    -0.368 C  
HETATM   33  C   UNL     1     -13.360  14.044  71.291  1.00  0.00    -0.342 C  
HETATM   34  C   UNL     1     -13.201  13.853  72.795  1.00  0.00    -0.543 C  
HETATM   35  C   UNL     1     -12.107  14.748  73.388  1.00  0.00    -0.328 C  
HETATM   36  C   UNL     1     -12.103  16.179  72.832  1.00  0.00    -0.541 C  
ENDBRANCH  30  31
ENDBRANCH  29  30
ENDBRANCH  28  29
ENDBRANCH  23  28
ENDBRANCH  20  22
ENDBRANCH  10  20
ENDBRANCH   6   9
TORSDOF 7
ENDMDL
MODEL       45
REMARK 921   NORMALIZED FREE ENERGY PREDICTED BY IDOCK:   -6.40 KCAL/MOL
REMARK 922        TOTAL FREE ENERGY PREDICTED BY IDOCK:  -11.10 KCAL/MOL
REMARK 923 INTER-LIGAND FREE ENERGY PREDICTED BY IDOCK:   -9.41 KCAL/MOL
REMARK 924 INTRA-LIGAND FREE ENERGY PREDICTED BY IDOCK:   -1.69 KCAL/MOL
REMARK 927      BINDING AFFINITY PREDICTED BY RF-SCORE:    0.00 PKD
ROOT
HETATM    1  O   UNL     1     -11.052   7.220  73.550  1.00  0.00    -0.569 OA 
HETATM    2  H   UNL     1     -10.642   7.714  74.251  1.00  0.00     0.000 HD 
HETATM    3  C   UNL     1     -10.898   7.565  72.242  1.00  0.00    -0.258 A  
HETATM    4  C   UNL     1     -11.496   6.843  71.218  1.00  0.00    -0.337 A  
HETATM    5  C   UNL     1     -11.260   7.199  69.880  1.00  0.00    -0.241 A  
HETATM    6  C   UNL     1     -10.441   8.292  69.548  1.00  0.00    -0.228 A  
HETATM    7  C   UNL     1      -9.904   9.038  70.616  1.00  0.00    -0.284 A  
HETATM    8  C   UNL     1     -10.117   8.667  71.952  1.00  0.00    -0.398 A  
ENDROOT
BRANCH   6   9
HETATM    9  C   UNL     1     -10.084   8.615  68.133  1.00  0.00    -0.197 A  
HETATM   10  C   UNL     1     -10.294   9.740  67.319  1.00  0.00    -0.308 A  
HETATM   11  C   UNL     1      -8.901  10.097  63.726  1.00  0.00    -0.245 A  
HETATM   12  C   UNL     1      -9.676   9.588  66.002  1.00  0.00    -0.341 A  
HETATM   13  O   UNL     1      -7.790   8.478  62.432  1.00  0.00    -0.125 OA 
HETATM   14  C   UNL     1      -9.119   8.321  65.841  1.00  0.00    -0.149 A  
HETATM   15  H   UNL     1      -7.733   9.097  61.714  1.00  0.00     0.000 HD 
HETATM   16  C   UNL     1      -9.526  10.494  64.913  1.00  0.00    -0.304 A  
HETATM   17  S   UNL     1      -9.320   7.363  67.232  1.00  0.00    -0.138 SA 
HETATM   18  C   UNL     1      -8.471   7.917  64.658  1.00  0.00     0.029 A  
HETATM   19  C   UNL     1      -8.388   8.821  63.609  1.00  0.00    -0.143 A  
BRANCH  10  20
HETATM   20  C   UNL     1     -10.921  10.970  67.807  1.00  0.00    -0.269 C  
HETATM   21  O   UNL     1     -12.145  11.030  67.935  1.00  0.00    -0.600 OA 
BRANCH  20  22
HETATM   22  C   UNL     1     -10.138  12.192  68.170  1.00  0.00    -0.206 A  
HETATM   23  C   UNL     1      -8.930  14.706  68.701  1.00  0.00    -0.184 A  
HETATM   24  C   UNL     1      -8.147  13.607  68.334  1.00  0.00    -0.146 A  
HETATM   25  C   UNL     1     -10.902  13.292  68.565  1.00  0.00    -0.286 A  
HETATM   26  C   UNL     1      -8.746  12.353  68.067  1.00  0.00    -0.186 A  
HETATM   27  C   UNL     1     -10.311  14.535  68.799  1.00  0.00    -0.243 A  
BRANCH  23  28
HETATM   28  O   UNL     1      -8.288  15.913  68.953  1.00  0.00    -0.194 OA 
BRANCH  28  29
HETATM   29  C   UNL     1      -7.655  16.432  67.771  1.00  0.00    -0.145 C  
BRANCH  29  30
HETATM   30  C   UNL     1      -7.679  17.957  67.559  1.00  0.00    -0.211 C  
BRANCH  30  31
HETATM   31  N   UNL     1      -8.437  18.306  66.324  1.00  0.00    -0.440 NA 
HETATM   32  C   UNL     1      -9.775  17.695  66.232  1.00  0.00    -0.263 C  
HETATM   33  C   UNL     1     -10.692  18.165  67.356  1.00  0.00    -0.355 C  
HETATM   34  C   UNL     1     -10.891  19.673  67.250  1.00  0.00    -0.519 C  
HETATM   35  C   UNL     1      -9.568  20.430  67.090  1.00  0.00    -0.587 C  
HETATM   36  C   UNL     1      -8.578  19.757  66.129  1.00  0.00    -0.338 C  
ENDBRANCH  30  31
ENDBRANCH  29  30
ENDBRANCH  28  29
ENDBRANCH  23  28
ENDBRANCH  20  22
ENDBRANCH  10  20
ENDBRANCH   6   9
TORSDOF 7
ENDMDL
MODEL       46
REMARK 921   NORMALIZED FREE ENERGY PREDICTED BY IDOCK:   -6.35 KCAL/MOL
REMARK 922        TOTAL FREE ENERGY PREDICTED BY IDOCK:  -11.03 KCAL/MOL
REMARK 923 INTER-LIGAND FREE ENERGY PREDICTED BY IDOCK:   -9.59 KCAL/MOL
REMARK 924 INTRA-LIGAND FREE ENERGY PREDICTED BY IDOCK:   -1.45 KCAL/MOL
REMARK 927      BINDING AFFINITY PREDICTED BY RF-SCORE:    0.00 PKD
ROOT
HETATM    1  O   UNL     1     -13.378  10.321  72.435  1.00  0.00    -0.601 OA 
HETATM    2  H   UNL     1     -13.842  10.486  73.247  1.00  0.00     0.000 HD 
HETATM    3  C   UNL     1     -12.988  11.332  71.609  1.00  0.00    -0.432 A  
HETATM    4  C   UNL     1     -12.309  11.090  70.422  1.00  0.00    -0.442 A  
HETATM    5  C   UNL     1     -11.875  12.167  69.632  1.00  0.00    -0.391 A  
HETATM    6  C   UNL     1     -12.129  13.497  70.008  1.00  0.00    -0.411 A  
HETATM    7  C   UNL     1     -12.875  13.700  71.185  1.00  0.00    -0.399 A  
HETATM    8  C   UNL     1     -13.287  12.626  71.989  1.00  0.00    -0.555 A  
ENDROOT
BRANCH   6   9
HETATM    9  C   UNL     1     -11.574  14.657  69.243  1.00  0.00    -0.302 A  
HETATM   10  C   UNL     1     -11.329  14.884  67.880  1.00  0.00    -0.340 A  
HETATM   11  C   UNL     1     -10.076  18.250  66.441  1.00  0.00    -0.406 A  
HETATM   12  C   UNL     1     -10.836  16.237  67.628  1.00  0.00    -0.293 A  
HETATM   13  O   UNL     1      -9.380  20.163  67.618  1.00  0.00    -0.351 OA 
HETATM   14  C   UNL     1     -10.632  16.936  68.816  1.00  0.00    -0.355 A  
HETATM   15  H   UNL     1      -9.185  20.594  66.794  1.00  0.00     0.000 HD 
HETATM   16  C   UNL     1     -10.572  16.943  66.419  1.00  0.00    -0.183 A  
HETATM   17  S   UNL     1     -11.037  16.000  70.177  1.00  0.00    -0.378 SA 
HETATM   18  C   UNL     1     -10.151  18.260  68.850  1.00  0.00    -0.358 A  
HETATM   19  C   UNL     1      -9.867  18.890  67.646  1.00  0.00    -0.331 A  
BRANCH  10  20
HETATM   20  C   UNL     1     -11.683  13.920  66.836  1.00  0.00    -0.399 C  
HETATM   21  O   UNL     1     -12.785  13.980  66.288  1.00  0.00    -0.414 OA 
BRANCH  20  22
HETATM   22  C   UNL     1     -10.756  12.837  66.382  1.00  0.00    -0.282 A  
HETATM   23  C   UNL     1      -9.294  10.554  65.539  1.00  0.00    -0.202 A  
HETATM   24  C   UNL     1      -8.707  11.497  66.388  1.00  0.00    -0.179 A  
HETATM   25  C   UNL     1     -11.318  11.900  65.512  1.00  0.00    -0.334 A  
HETATM   26  C   UNL     1      -9.434  12.636  66.812  1.00  0.00    -0.237 A  
HETATM   27  C   UNL     1     -10.608  10.764  65.120  1.00  0.00    -0.239 A  
BRANCH  23  28
HETATM   28  O   UNL     1      -8.533   9.457  65.153  1.00  0.00    -0.136 OA 
BRANCH  28  29
HETATM   29  C   UNL     1      -8.033   8.735  66.291  1.00  0.00    -0.106 C  
BRANCH  29  30
HETATM   30  C   UNL     1      -8.446   7.258  66.438  1.00  0.00    -0.129 C  
BRANCH  30  31
HETATM   31  N   UNL     1      -7.250   6.369  66.400  1.00  0.00    -0.071 NA 
HETATM   32  C   UNL     1      -6.245   6.648  67.441  1.00  0.00    -0.033 C  
HETATM   33  C   UNL     1      -6.805   6.428  68.843  1.00  0.00    -0.066 C  
HETATM   34  C   UNL     1      -7.210   4.968  69.004  1.00  0.00    -0.054 C  
HETATM   35  C   UNL     1      -8.073   4.466  67.840  1.00  0.00    -0.094 C  
HETATM   36  C   UNL     1      -7.596   4.941  66.461  1.00  0.00    -0.088 C  
ENDBRANCH  30  31
ENDBRANCH  29  30
ENDBRANCH  28  29
ENDBRANCH  23  28
ENDBRANCH  20  22
ENDBRANCH  10  20
ENDBRANCH   6   9
TORSDOF 7
ENDMDL
MODEL       47
REMARK 921   NORMALIZED FREE ENERGY PREDICTED BY IDOCK:   -6.33 KCAL/MOL
REMARK 922        TOTAL FREE ENERGY PREDICTED BY IDOCK:  -11.00 KCAL/MOL
REMARK 923 INTER-LIGAND FREE ENERGY PREDICTED BY IDOCK:   -9.16 KCAL/MOL
REMARK 924 INTRA-LIGAND FREE ENERGY PREDICTED BY IDOCK:   -1.84 KCAL/MOL
REMARK 927      BINDING AFFINITY PREDICTED BY RF-SCORE:    0.00 PKD
ROOT
HETATM    1  O   UNL     1     -13.498  16.029  71.331  1.00  0.00    -0.457 OA 
HETATM    2  H   UNL     1     -13.225  16.686  70.702  1.00  0.00     0.000 HD 
HETATM    3  C   UNL     1     -13.213  14.708  71.162  1.00  0.00    -0.372 A  
HETATM    4  C   UNL     1     -13.613  13.748  72.082  1.00  0.00    -0.613 A  
HETATM    5  C   UNL     1     -13.245  12.405  71.897  1.00  0.00    -0.486 A  
HETATM    6  C   UNL     1     -12.490  12.002  70.783  1.00  0.00    -0.372 A  
HETATM    7  C   UNL     1     -12.159  12.994  69.839  1.00  0.00    -0.347 A  
HETATM    8  C   UNL     1     -12.503  14.340  70.036  1.00  0.00    -0.355 A  
ENDROOT
BRANCH   6   9
HETATM    9  C   UNL     1     -11.990  10.601  70.628  1.00  0.00    -0.367 A  
HETATM   10  C   UNL     1     -11.340   9.919  69.588  1.00  0.00    -0.212 A  
HETATM   11  C   UNL     1     -10.047   6.282  69.864  1.00  0.00    -0.216 A  
HETATM   12  C   UNL     1     -10.988   8.550  69.964  1.00  0.00    -0.197 A  
HETATM   13  O   UNL     1     -10.373   4.755  71.623  1.00  0.00    -0.196 OA 
HETATM   14  C   UNL     1     -11.477   8.225  71.227  1.00  0.00    -0.274 A  
HETATM   15  H   UNL     1      -9.889   4.098  71.137  1.00  0.00     0.000 HD 
HETATM   16  C   UNL     1     -10.231   7.546  69.294  1.00  0.00    -0.201 A  
HETATM   17  S   UNL     1     -12.311   9.527  71.935  1.00  0.00    -0.349 SA 
HETATM   18  C   UNL     1     -11.282   6.962  71.819  1.00  0.00    -0.284 A  
HETATM   19  C   UNL     1     -10.575   6.002  71.109  1.00  0.00    -0.246 A  
BRANCH  10  20
HETATM   20  C   UNL     1     -10.931  10.571  68.342  1.00  0.00    -0.261 C  
HETATM   21  O   UNL     1     -11.660  10.519  67.350  1.00  0.00    -0.383 OA 
BRANCH  20  22
HETATM   22  C   UNL     1      -9.643  11.318  68.201  1.00  0.00    -0.186 A  
HETATM   23  C   UNL     1      -7.257  12.720  67.564  1.00  0.00    -0.154 A  
HETATM   24  C   UNL     1      -7.281  11.809  68.624  1.00  0.00    -0.112 A  
HETATM   25  C   UNL     1      -9.608  12.253  67.164  1.00  0.00    -0.200 A  
HETATM   26  C   UNL     1      -8.469  11.107  68.944  1.00  0.00    -0.095 A  
HETATM   27  C   UNL     1      -8.428  12.921  66.834  1.00  0.00    -0.093 A  
BRANCH  23  28
HETATM   28  O   UNL     1      -6.064  13.382  67.298  1.00  0.00    -0.330 OA 
BRANCH  28  29
HETATM   29  C   UNL     1      -5.986  14.633  68.001  1.00  0.00    -0.150 C  
BRANCH  29  30
HETATM   30  C   UNL     1      -6.782  15.823  67.433  1.00  0.00    -0.194 C  
BRANCH  30  31
HETATM   31  N   UNL     1      -7.358  16.647  68.533  1.00  0.00    -0.190 NA 
HETATM   32  C   UNL     1      -7.886  17.955  68.107  1.00  0.00    -0.266 C  
HETATM   33  C   UNL     1      -9.048  17.807  67.129  1.00  0.00    -0.247 C  
HETATM   34  C   UNL     1     -10.195  17.073  67.813  1.00  0.00    -0.312 C  
HETATM   35  C   UNL     1      -9.734  15.794  68.521  1.00  0.00    -0.206 C  
HETATM   36  C   UNL     1      -8.411  15.946  69.284  1.00  0.00    -0.238 C  
ENDBRANCH  30  31
ENDBRANCH  29  30
ENDBRANCH  28  29
ENDBRANCH  23  28
ENDBRANCH  20  22
ENDBRANCH  10  20
ENDBRANCH   6   9
TORSDOF 7
ENDMDL
MODEL       48
REMARK 921   NORMALIZED FREE ENERGY PREDICTED BY IDOCK:   -6.33 KCAL/MOL
REMARK 922        TOTAL FREE ENERGY PREDICTED BY IDOCK:  -10.99 KCAL/MOL
REMARK 923 INTER-LIGAND FREE ENERGY PREDICTED BY IDOCK:   -9.21 KCAL/MOL
REMARK 924 INTRA-LIGAND FREE ENERGY PREDICTED BY IDOCK:   -1.79 KCAL/MOL
REMARK 927      BINDING AFFINITY PREDICTED BY RF-SCORE:    0.00 PKD
ROOT
HETATM    1  O   UNL     1      -5.155  13.071  67.007  1.00  0.00    -0.318 OA 
HETATM    2  H   UNL     1      -4.911  13.879  67.443  1.00  0.00     0.000 HD 
HETATM    3  C   UNL     1      -5.934  12.133  67.614  1.00  0.00    -0.106 A  
HETATM    4  C   UNL     1      -6.291  10.952  66.977  1.00  0.00    -0.080 A  
HETATM    5  C   UNL     1      -7.146  10.041  67.619  1.00  0.00    -0.087 A  
HETATM    6  C   UNL     1      -7.638  10.289  68.912  1.00  0.00    -0.094 A  
HETATM    7  C   UNL     1      -7.202  11.466  69.550  1.00  0.00     0.022 A  
HETATM    8  C   UNL     1      -6.370  12.390  68.900  1.00  0.00    -0.085 A  
ENDROOT
BRANCH   6   9
HETATM    9  C   UNL     1      -8.639   9.390  69.565  1.00  0.00    -0.158 A  
HETATM   10  C   UNL     1      -9.901   8.911  69.179  1.00  0.00    -0.180 A  
HETATM   11  C   UNL     1     -11.966   6.363  71.233  1.00  0.00    -0.288 A  
HETATM   12  C   UNL     1     -10.459   7.981  70.160  1.00  0.00    -0.225 A  
HETATM   13  O   UNL     1     -11.509   5.518  73.380  1.00  0.00    -0.490 OA 
HETATM   14  C   UNL     1      -9.648   7.879  71.288  1.00  0.00    -0.157 A  
HETATM   15  H   UNL     1     -12.313   5.013  73.347  1.00  0.00     0.000 HD 
HETATM   16  C   UNL     1     -11.631   7.170  70.142  1.00  0.00    -0.211 A  
HETATM   17  S   UNL     1      -8.259   8.853  71.157  1.00  0.00    -0.154 SA 
HETATM   18  C   UNL     1      -9.965   7.055  72.385  1.00  0.00    -0.184 A  
HETATM   19  C   UNL     1     -11.139   6.317  72.338  1.00  0.00    -0.270 A  
BRANCH  10  20
HETATM   20  C   UNL     1     -10.496   9.197  67.872  1.00  0.00    -0.237 C  
HETATM   21  O   UNL     1     -10.639   8.293  67.048  1.00  0.00    -0.321 OA 
BRANCH  20  22
HETATM   22  C   UNL     1     -10.954  10.563  67.470  1.00  0.00    -0.365 A  
HETATM   23  C   UNL     1     -11.501  13.181  66.516  1.00  0.00    -0.338 A  
HETATM   24  C   UNL     1     -11.865  12.810  67.814  1.00  0.00    -0.387 A  
HETATM   25  C   UNL     1     -10.623  10.942  66.167  1.00  0.00    -0.270 A  
HETATM   26  C   UNL     1     -11.592  11.506  68.294  1.00  0.00    -0.378 A  
HETATM   27  C   UNL     1     -10.868  12.237  65.707  1.00  0.00    -0.313 A  
BRANCH  23  28
HETATM   28  O   UNL     1     -11.797  14.473  66.098  1.00  0.00    -0.374 OA 
BRANCH  28  29
HETATM   29  C   UNL     1     -10.603  15.225  65.821  1.00  0.00    -0.347 C  
BRANCH  29  30
HETATM   30  C   UNL     1     -10.229  16.356  66.797  1.00  0.00    -0.285 C  
BRANCH  30  31
HETATM   31  N   UNL     1      -9.624  17.505  66.066  1.00  0.00    -0.509 NA 
HETATM   32  C   UNL     1     -10.480  18.703  65.988  1.00  0.00    -0.414 C  
HETATM   33  C   UNL     1     -10.777  19.278  67.369  1.00  0.00    -0.594 C  
HETATM   34  C   UNL     1      -9.474  19.713  68.028  1.00  0.00    -0.446 C  
HETATM   35  C   UNL     1      -8.391  18.630  67.961  1.00  0.00    -0.299 C  
HETATM   36  C   UNL     1      -8.317  17.906  66.609  1.00  0.00    -0.261 C  
ENDBRANCH  30  31
ENDBRANCH  29  30
ENDBRANCH  28  29
ENDBRANCH  23  28
ENDBRANCH  20  22
ENDBRANCH  10  20
ENDBRANCH   6   9
TORSDOF 7
ENDMDL
MODEL       49
REMARK 921   NORMALIZED FREE ENERGY PREDICTED BY IDOCK:   -6.23 KCAL/MOL
REMARK 922        TOTAL FREE ENERGY PREDICTED BY IDOCK:  -10.86 KCAL/MOL
REMARK 923 INTER-LIGAND FREE ENERGY PREDICTED BY IDOCK:   -9.10 KCAL/MOL
REMARK 924 INTRA-LIGAND FREE ENERGY PREDICTED BY IDOCK:   -1.76 KCAL/MOL
REMARK 927      BINDING AFFINITY PREDICTED BY RF-SCORE:    0.00 PKD
ROOT
HETATM    1  O   UNL     1     -12.372  16.211  63.709  1.00  0.00    -1.147 OA 
HETATM    2  H   UNL     1     -13.150  16.158  63.166  1.00  0.00     0.000 HD 
HETATM    3  C   UNL     1     -11.792  15.102  64.246  1.00  0.00    -0.251 A  
HETATM    4  C   UNL     1     -10.655  15.179  65.039  1.00  0.00    -0.439 A  
HETATM    5  C   UNL     1     -10.057  14.004  65.521  1.00  0.00    -0.343 A  
HETATM    6  C   UNL     1     -10.596  12.738  65.233  1.00  0.00    -0.312 A  
HETATM    7  C   UNL     1     -11.785  12.705  64.479  1.00  0.00    -0.416 A  
HETATM    8  C   UNL     1     -12.370  13.876  63.974  1.00  0.00    -0.355 A  
ENDROOT
BRANCH   6   9
HETATM    9  C   UNL     1      -9.910  11.473  65.638  1.00  0.00    -0.236 A  
HETATM   10  C   UNL     1      -9.473  10.965  66.871  1.00  0.00    -0.198 A  
HETATM   11  C   UNL     1      -7.942   7.442  67.338  1.00  0.00    -0.112 A  
HETATM   12  C   UNL     1      -8.913   9.620  66.745  1.00  0.00    -0.156 A  
HETATM   13  O   UNL     1      -7.362   5.879  65.679  1.00  0.00    -0.073 OA 
HETATM   14  C   UNL     1      -8.855   9.213  65.414  1.00  0.00    -0.196 A  
HETATM   15  H   UNL     1      -7.044   5.289  66.352  1.00  0.00     0.000 HD 
HETATM   16  C   UNL     1      -8.465   8.682  67.719  1.00  0.00    -0.125 A  
HETATM   17  S   UNL     1      -9.470  10.402  64.363  1.00  0.00    -0.311 SA 
HETATM   18  C   UNL     1      -8.348   7.960  65.020  1.00  0.00    -0.111 A  
HETATM   19  C   UNL     1      -7.883   7.097  66.003  1.00  0.00    -0.107 A  
BRANCH  10  20
HETATM   20  C   UNL     1      -9.707  11.653  68.143  1.00  0.00    -0.189 C  
HETATM   21  O   UNL     1     -10.375  11.110  69.024  1.00  0.00    -0.210 OA 
BRANCH  20  22
HETATM   22  C   UNL     1      -9.163  13.014  68.442  1.00  0.00    -0.136 A  
HETATM   23  C   UNL     1      -7.825  15.420  69.137  1.00  0.00    -0.212 A  
HETATM   24  C   UNL     1      -9.206  15.297  69.324  1.00  0.00    -0.233 A  
HETATM   25  C   UNL     1      -7.790  13.164  68.234  1.00  0.00    -0.143 A  
HETATM   26  C   UNL     1      -9.876  14.098  68.980  1.00  0.00    -0.034 A  
HETATM   27  C   UNL     1      -7.128  14.337  68.602  1.00  0.00    -0.111 A  
BRANCH  23  28
HETATM   28  O   UNL     1      -7.222  16.621  69.490  1.00  0.00    -0.196 OA 
BRANCH  28  29
HETATM   29  C   UNL     1      -6.608  17.258  68.357  1.00  0.00    -0.174 C  
BRANCH  29  30
HETATM   30  C   UNL     1      -7.533  17.770  67.237  1.00  0.00    -0.196 C  
BRANCH  30  31
HETATM   31  N   UNL     1      -7.850  19.213  67.432  1.00  0.00    -0.242 NA 
HETATM   32  C   UNL     1      -8.601  19.831  66.324  1.00  0.00    -0.364 C  
HETATM   33  C   UNL     1      -9.972  19.188  66.141  1.00  0.00    -0.441 C  
HETATM   34  C   UNL     1     -10.802  19.396  67.403  1.00  0.00    -0.555 C  
HETATM   35  C   UNL     1     -10.038  19.017  68.677  1.00  0.00    -0.449 C  
HETATM   36  C   UNL     1      -8.574  19.477  68.685  1.00  0.00    -0.325 C  
ENDBRANCH  30  31
ENDBRANCH  29  30
ENDBRANCH  28  29
ENDBRANCH  23  28
ENDBRANCH  20  22
ENDBRANCH  10  20
ENDBRANCH   6   9
TORSDOF 7
ENDMDL
MODEL       50
REMARK 921   NORMALIZED FREE ENERGY PREDICTED BY IDOCK:   -6.23 KCAL/MOL
REMARK 922        TOTAL FREE ENERGY PREDICTED BY IDOCK:  -10.85 KCAL/MOL
REMARK 923 INTER-LIGAND FREE ENERGY PREDICTED BY IDOCK:   -9.14 KCAL/MOL
REMARK 924 INTRA-LIGAND FREE ENERGY PREDICTED BY IDOCK:   -1.71 KCAL/MOL
REMARK 927      BINDING AFFINITY PREDICTED BY RF-SCORE:    0.00 PKD
ROOT
HETATM    1  O   UNL     1      -6.891   6.122  69.409  1.00  0.00    -0.057 OA 
HETATM    2  H   UNL     1      -7.304   5.298  69.635  1.00  0.00     0.000 HD 
HETATM    3  C   UNL     1      -7.547   7.087  68.706  1.00  0.00    -0.105 A  
HETATM    4  C   UNL     1      -6.944   8.293  68.375  1.00  0.00    -0.073 A  
HETATM    5  C   UNL     1      -7.679   9.282  67.701  1.00  0.00    -0.092 A  
HETATM    6  C   UNL     1      -9.019   9.072  67.333  1.00  0.00    -0.135 A  
HETATM    7  C   UNL     1      -9.576   7.813  67.630  1.00  0.00    -0.177 A  
HETATM    8  C   UNL     1      -8.851   6.834  68.326  1.00  0.00    -0.125 A  
ENDROOT
BRANCH   6   9
HETATM    9  C   UNL     1      -9.852  10.153  66.721  1.00  0.00    -0.196 A  
HETATM   10  C   UNL     1     -10.600  11.213  67.256  1.00  0.00    -0.279 A  
HETATM   11  C   UNL     1     -12.394  13.889  65.113  1.00  0.00    -0.471 A  
HETATM   12  C   UNL     1     -11.188  12.052  66.213  1.00  0.00    -0.394 A  
HETATM   13  O   UNL     1     -12.645  13.949  62.775  1.00  0.00    -0.846 OA 
HETATM   14  C   UNL     1     -10.947  11.533  64.942  1.00  0.00    -0.254 A  
HETATM   15  H   UNL     1     -13.148  14.751  62.854  1.00  0.00     0.000 HD 
HETATM   16  C   UNL     1     -11.908  13.280  66.274  1.00  0.00    -0.444 A  
HETATM   17  S   UNL     1     -10.032  10.100  65.009  1.00  0.00    -0.224 SA 
HETATM   18  C   UNL     1     -11.415  12.148  63.765  1.00  0.00    -0.548 A  
HETATM   19  C   UNL     1     -12.149  13.320  63.879  1.00  0.00    -0.468 A  
BRANCH  10  20
HETATM   20  C   UNL     1     -10.640  11.516  68.688  1.00  0.00    -0.208 C  
HETATM   21  O   UNL     1     -10.548  12.682  69.075  1.00  0.00    -0.164 OA 
BRANCH  20  22
HETATM   22  C   UNL     1     -10.794  10.460  69.737  1.00  0.00    -0.342 A  
HETATM   23  C   UNL     1     -11.379   8.657  71.851  1.00  0.00    -0.347 A  
HETATM   24  C   UNL     1     -10.053   8.937  71.505  1.00  0.00    -0.394 A  
HETATM   25  C   UNL     1     -12.112  10.147  70.077  1.00  0.00    -0.166 A  
HETATM   26  C   UNL     1      -9.758   9.837  70.453  1.00  0.00    -0.244 A  
HETATM   27  C   UNL     1     -12.399   9.282  71.134  1.00  0.00    -0.363 A  
BRANCH  23  28
HETATM   28  O   UNL     1     -11.609   7.763  72.890  1.00  0.00    -0.355 OA 
BRANCH  28  29
HETATM   29  C   UNL     1     -10.380   7.344  73.508  1.00  0.00    -0.353 C  
BRANCH  29  30
HETATM   30  C   UNL     1     -10.283   5.883  73.985  1.00  0.00    -0.274 C  
BRANCH  30  31
HETATM   31  N   UNL     1     -11.124   4.993  73.137  1.00  0.00    -0.303 NA 
HETATM   32  C   UNL     1     -10.741   4.960  71.714  1.00  0.00    -0.026 C  
HETATM   33  C   UNL     1      -9.332   4.409  71.519  1.00  0.00    -0.203 C  
HETATM   34  C   UNL     1      -9.277   2.971  72.020  1.00  0.00    -0.167 C  
HETATM   35  C   UNL     1      -9.881   2.814  73.420  1.00  0.00    -0.160 C  
HETATM   36  C   UNL     1     -11.177   3.609  73.633  1.00  0.00    -0.185 C  
ENDBRANCH  30  31
ENDBRANCH  29  30
ENDBRANCH  28  29
ENDBRANCH  23  28
ENDBRANCH  20  22
ENDBRANCH  10  20
ENDBRANCH   6   9
TORSDOF 7
ENDMDL
MODEL       51
REMARK 921   NORMALIZED FREE ENERGY PREDICTED BY IDOCK:   -6.22 KCAL/MOL
REMARK 922        TOTAL FREE ENERGY PREDICTED BY IDOCK:  -10.85 KCAL/MOL
REMARK 923 INTER-LIGAND FREE ENERGY PREDICTED BY IDOCK:   -9.21 KCAL/MOL
REMARK 924 INTRA-LIGAND FREE ENERGY PREDICTED BY IDOCK:   -1.63 KCAL/MOL
REMARK 927      BINDING AFFINITY PREDICTED BY RF-SCORE:    0.00 PKD
ROOT
HETATM    1  O   UNL     1      -6.215  13.257  67.013  1.00  0.00    -0.449 OA 
HETATM    2  H   UNL     1      -6.764  13.875  66.543  1.00  0.00     0.000 HD 
HETATM    3  C   UNL     1      -6.627  11.986  67.277  1.00  0.00    -0.145 A  
HETATM    4  C   UNL     1      -5.826  11.082  67.962  1.00  0.00    -0.042 A  
HETATM    5  C   UNL     1      -6.268   9.764  68.159  1.00  0.00    -0.055 A  
HETATM    6  C   UNL     1      -7.522   9.336  67.691  1.00  0.00    -0.088 A  
HETATM    7  C   UNL     1      -8.332  10.299  67.057  1.00  0.00    -0.126 A  
HETATM    8  C   UNL     1      -7.881  11.609  66.836  1.00  0.00    -0.156 A  
ENDROOT
BRANCH   6   9
HETATM    9  C   UNL     1      -7.961   7.910  67.788  1.00  0.00    -0.124 A  
HETATM   10  C   UNL     1      -8.380   7.100  68.855  1.00  0.00    -0.126 A  
HETATM   11  C   UNL     1      -9.647   3.468  68.444  1.00  0.00    -0.154 A  
HETATM   12  C   UNL     1      -8.779   5.766  68.409  1.00  0.00    -0.111 A  
HETATM   13  O   UNL     1      -9.657   2.144  66.500  1.00  0.00    -0.360 OA 
HETATM   14  C   UNL     1      -8.547   5.592  67.047  1.00  0.00    -0.109 A  
HETATM   15  H   UNL     1     -10.025   1.423  66.998  1.00  0.00     0.000 HD 
HETATM   16  C   UNL     1      -9.372   4.671  69.101  1.00  0.00    -0.206 A  
HETATM   17  S   UNL     1      -7.891   6.990  66.334  1.00  0.00    -0.109 SA 
HETATM   18  C   UNL     1      -8.838   4.391  66.370  1.00  0.00    -0.114 A  
HETATM   19  C   UNL     1      -9.375   3.337  67.097  1.00  0.00    -0.181 A  
BRANCH  10  20
HETATM   20  C   UNL     1      -8.541   7.604  70.221  1.00  0.00    -0.143 C  
HETATM   21  O   UNL     1      -7.626   7.481  71.036  1.00  0.00    -0.082 OA 
BRANCH  20  22
HETATM   22  C   UNL     1      -9.789   8.280  70.695  1.00  0.00    -0.203 A  
HETATM   23  C   UNL     1     -11.968   9.885  71.554  1.00  0.00    -0.390 A  
HETATM   24  C   UNL     1     -11.718   8.648  72.157  1.00  0.00    -0.442 A  
HETATM   25  C   UNL     1     -10.070   9.504  70.084  1.00  0.00    -0.293 A  
HETATM   26  C   UNL     1     -10.631   7.846  71.732  1.00  0.00    -0.276 A  
HETATM   27  C   UNL     1     -11.124  10.305  70.525  1.00  0.00    -0.381 A  
BRANCH  23  28
HETATM   28  O   UNL     1     -13.050  10.629  72.010  1.00  0.00    -0.481 OA 
BRANCH  28  29
HETATM   29  C   UNL     1     -13.047  11.957  71.461  1.00  0.00    -0.275 C  
BRANCH  29  30
HETATM   30  C   UNL     1     -13.601  13.094  72.340  1.00  0.00    -0.567 C  
BRANCH  30  31
HETATM   31  N   UNL     1     -13.801  14.333  71.536  1.00  0.00    -0.372 NA 
HETATM   32  C   UNL     1     -14.240  15.505  72.315  1.00  0.00    -0.524 C  
HETATM   33  C   UNL     1     -13.201  15.919  73.352  1.00  0.00    -0.668 C  
HETATM   34  C   UNL     1     -11.912  16.321  72.645  1.00  0.00    -0.644 C  
HETATM   35  C   UNL     1     -11.464  15.284  71.608  1.00  0.00    -0.471 C  
HETATM   36  C   UNL     1     -12.610  14.713  70.762  1.00  0.00    -0.350 C  
ENDBRANCH  30  31
ENDBRANCH  29  30
ENDBRANCH  28  29
ENDBRANCH  23  28
ENDBRANCH  20  22
ENDBRANCH  10  20
ENDBRANCH   6   9
TORSDOF 7
ENDMDL
MODEL       52
REMARK 921   NORMALIZED FREE ENERGY PREDICTED BY IDOCK:   -6.19 KCAL/MOL
REMARK 922        TOTAL FREE ENERGY PREDICTED BY IDOCK:  -10.80 KCAL/MOL
REMARK 923 INTER-LIGAND FREE ENERGY PREDICTED BY IDOCK:   -8.86 KCAL/MOL
REMARK 924 INTRA-LIGAND FREE ENERGY PREDICTED BY IDOCK:   -1.93 KCAL/MOL
REMARK 927      BINDING AFFINITY PREDICTED BY RF-SCORE:    0.00 PKD
ROOT
HETATM    1  O   UNL     1     -13.822  13.568  72.751  1.00  0.00    -0.730 OA 
HETATM    2  H   UNL     1     -14.024  14.494  72.811  1.00  0.00     0.000 HD 
HETATM    3  C   UNL     1     -13.131  13.049  71.698  1.00  0.00    -0.347 A  
HETATM    4  C   UNL     1     -12.835  11.695  71.611  1.00  0.00    -0.454 A  
HETATM    5  C   UNL     1     -12.070  11.214  70.537  1.00  0.00    -0.474 A  
HETATM    6  C   UNL     1     -11.606  12.074  69.527  1.00  0.00    -0.389 A  
HETATM    7  C   UNL     1     -11.981  13.429  69.617  1.00  0.00    -0.386 A  
HETATM    8  C   UNL     1     -12.723  13.916  70.703  1.00  0.00    -0.351 A  
ENDROOT
BRANCH   6   9
HETATM    9  C   UNL     1     -10.693  11.603  68.440  1.00  0.00    -0.217 A  
HETATM   10  C   UNL     1      -9.533  12.136  67.856  1.00  0.00    -0.195 A  
HETATM   11  C   UNL     1      -7.421  10.303  65.182  1.00  0.00    -0.130 A  
HETATM   12  C   UNL     1      -8.958  11.237  66.857  1.00  0.00    -0.163 A  
HETATM   13  O   UNL     1      -7.908   8.282  64.082  1.00  0.00    -0.131 OA 
HETATM   14  C   UNL     1      -9.760  10.117  66.654  1.00  0.00    -0.192 A  
HETATM   15  H   UNL     1      -7.107   8.368  63.578  1.00  0.00     0.000 HD 
HETATM   16  C   UNL     1      -7.745  11.297  66.110  1.00  0.00     0.004 A  
HETATM   17  S   UNL     1     -11.143  10.143  67.645  1.00  0.00    -0.086 SA 
HETATM   18  C   UNL     1      -9.434   9.100  65.736  1.00  0.00    -0.322 A  
HETATM   19  C   UNL     1      -8.264   9.225  65.000  1.00  0.00    -0.145 A  
BRANCH  10  20
HETATM   20  C   UNL     1      -8.904  13.374  68.322  1.00  0.00    -0.172 C  
HETATM   21  O   UNL     1      -7.944  13.327  69.093  1.00  0.00     0.176 OA 
BRANCH  20  22
HETATM   22  C   UNL     1      -9.374  14.731  67.902  1.00  0.00    -0.193 A  
HETATM   23  C   UNL     1     -10.371  17.353  67.461  1.00  0.00    -0.351 A  
HETATM   24  C   UNL     1     -10.536  16.360  66.491  1.00  0.00    -0.282 A  
HETATM   25  C   UNL     1      -9.192  15.742  68.848  1.00  0.00    -0.227 A  
HETATM   26  C   UNL     1     -10.041  15.051  66.708  1.00  0.00    -0.257 A  
HETATM   27  C   UNL     1      -9.707  17.023  68.643  1.00  0.00    -0.282 A  
BRANCH  23  28
HETATM   28  O   UNL     1     -10.874  18.620  67.193  1.00  0.00    -0.408 OA 
BRANCH  28  29
HETATM   29  C   UNL     1      -9.892  19.455  66.556  1.00  0.00    -0.386 C  
BRANCH  29  30
HETATM   30  C   UNL     1      -8.827  20.115  67.450  1.00  0.00    -0.349 C  
BRANCH  30  31
HETATM   31  N   UNL     1      -7.544  20.280  66.710  1.00  0.00    -0.293 NA 
HETATM   32  C   UNL     1      -6.352  20.405  67.569  1.00  0.00    -0.232 C  
HETATM   33  C   UNL     1      -6.121  19.150  68.405  1.00  0.00    -0.239 C  
HETATM   34  C   UNL     1      -5.872  17.964  67.479  1.00  0.00    -0.158 C  
HETATM   35  C   UNL     1      -6.922  17.858  66.367  1.00  0.00    -0.284 C  
HETATM   36  C   UNL     1      -7.301  19.205  65.737  1.00  0.00    -0.218 C  
ENDBRANCH  30  31
ENDBRANCH  29  30
ENDBRANCH  28  29
ENDBRANCH  23  28
ENDBRANCH  20  22
ENDBRANCH  10  20
ENDBRANCH   6   9
TORSDOF 7
ENDMDL
MODEL       53
REMARK 921   NORMALIZED FREE ENERGY PREDICTED BY IDOCK:   -6.18 KCAL/MOL
REMARK 922        TOTAL FREE ENERGY PREDICTED BY IDOCK:  -10.79 KCAL/MOL
REMARK 923 INTER-LIGAND FREE ENERGY PREDICTED BY IDOCK:   -8.98 KCAL/MOL
REMARK 924 INTRA-LIGAND FREE ENERGY PREDICTED BY IDOCK:   -1.81 KCAL/MOL
REMARK 927      BINDING AFFINITY PREDICTED BY RF-SCORE:    0.00 PKD
ROOT
HETATM    1  O   UNL     1      -8.267  10.848  64.560  1.00  0.00    -0.369 OA 
HETATM    2  H   UNL     1      -8.693  10.600  63.748  1.00  0.00     0.000 HD 
HETATM    3  C   UNL     1      -8.957  11.400  65.596  1.00  0.00    -0.123 A  
HETATM    4  C   UNL     1      -8.333  11.763  66.783  1.00  0.00    -0.165 A  
HETATM    5  C   UNL     1      -9.095  12.272  67.846  1.00  0.00    -0.190 A  
HETATM    6  C   UNL     1     -10.486  12.443  67.733  1.00  0.00    -0.231 A  
HETATM    7  C   UNL     1     -11.072  12.123  66.493  1.00  0.00    -0.352 A  
HETATM    8  C   UNL     1     -10.317  11.589  65.438  1.00  0.00    -0.322 A  
ENDROOT
BRANCH   6   9
HETATM    9  C   UNL     1     -11.330  12.872  68.891  1.00  0.00    -0.288 A  
HETATM   10  C   UNL     1     -12.029  12.172  69.886  1.00  0.00    -0.380 A  
HETATM   11  C   UNL     1     -13.883  13.871  72.827  1.00  0.00    -0.320 A  
HETATM   12  C   UNL     1     -12.655  13.071  70.854  1.00  0.00    -0.364 A  
HETATM   13  O   UNL     1     -14.254  16.167  73.176  1.00  0.00    -0.580 OA 
HETATM   14  C   UNL     1     -12.491  14.407  70.492  1.00  0.00    -0.350 A  
HETATM   15  H   UNL     1     -14.738  15.964  73.969  1.00  0.00     0.000 HD 
HETATM   16  C   UNL     1     -13.349  12.822  72.073  1.00  0.00    -0.565 A  
HETATM   17  S   UNL     1     -11.600  14.565  69.052  1.00  0.00    -0.318 SA 
HETATM   18  C   UNL     1     -13.008  15.473  71.253  1.00  0.00    -0.565 A  
HETATM   19  C   UNL     1     -13.713  15.177  72.411  1.00  0.00    -0.496 A  
BRANCH  10  20
HETATM   20  C   UNL     1     -11.989  10.713  70.011  1.00  0.00    -0.329 C  
HETATM   21  O   UNL     1     -12.963  10.105  70.456  1.00  0.00    -0.285 OA 
BRANCH  20  22
HETATM   22  C   UNL     1     -10.800   9.897  69.614  1.00  0.00    -0.281 A  
HETATM   23  C   UNL     1      -8.790   8.098  68.727  1.00  0.00    -0.138 A  
HETATM   24  C   UNL     1      -8.632   8.802  69.926  1.00  0.00    -0.133 A  
HETATM   25  C   UNL     1     -10.928   9.208  68.406  1.00  0.00    -0.001 A  
HETATM   26  C   UNL     1      -9.634   9.698  70.372  1.00  0.00    -0.292 A  
HETATM   27  C   UNL     1      -9.953   8.303  67.984  1.00  0.00    -0.224 A  
BRANCH  23  28
HETATM   28  O   UNL     1      -7.774   7.233  68.338  1.00  0.00    -0.115 OA 
BRANCH  28  29
HETATM   29  C   UNL     1      -8.255   6.228  67.430  1.00  0.00    -0.109 C  
BRANCH  29  30
HETATM   30  C   UNL     1      -8.086   4.754  67.841  1.00  0.00    -0.092 C  
BRANCH  30  31
HETATM   31  N   UNL     1      -9.408   4.136  68.147  1.00  0.00    -0.148 NA 
HETATM   32  C   UNL     1      -9.362   2.685  68.404  1.00  0.00    -0.197 C  
HETATM   33  C   UNL     1      -8.522   2.354  69.634  1.00  0.00    -0.087 C  
HETATM   34  C   UNL     1      -9.150   2.998  70.865  1.00  0.00    -0.184 C  
HETATM   35  C   UNL     1      -9.483   4.478  70.647  1.00  0.00    -0.240 C  
HETATM   36  C   UNL     1     -10.096   4.784  69.274  1.00  0.00    -0.147 C  
ENDBRANCH  30  31
ENDBRANCH  29  30
ENDBRANCH  28  29
ENDBRANCH  23  28
ENDBRANCH  20  22
ENDBRANCH  10  20
ENDBRANCH   6   9
TORSDOF 7
ENDMDL
MODEL       54
REMARK 921   NORMALIZED FREE ENERGY PREDICTED BY IDOCK:   -6.15 KCAL/MOL
REMARK 922        TOTAL FREE ENERGY PREDICTED BY IDOCK:  -10.75 KCAL/MOL
REMARK 923 INTER-LIGAND FREE ENERGY PREDICTED BY IDOCK:   -8.54 KCAL/MOL
REMARK 924 INTRA-LIGAND FREE ENERGY PREDICTED BY IDOCK:   -2.21 KCAL/MOL
REMARK 927      BINDING AFFINITY PREDICTED BY RF-SCORE:    0.00 PKD
ROOT
HETATM    1  O   UNL     1      -6.960   8.724  67.748  1.00  0.00    -0.073 OA 
HETATM    2  H   UNL     1      -6.628   8.355  68.558  1.00  0.00     0.000 HD 
HETATM    3  C   UNL     1      -7.437   9.998  67.681  1.00  0.00    -0.090 A  
HETATM    4  C   UNL     1      -7.921  10.538  66.497  1.00  0.00    -0.132 A  
HETATM    5  C   UNL     1      -8.346  11.876  66.460  1.00  0.00    -0.062 A  
HETATM    6  C   UNL     1      -8.311  12.685  67.609  1.00  0.00    -0.174 A  
HETATM    7  C   UNL     1      -7.874  12.083  68.804  1.00  0.00    -0.033 A  
HETATM    8  C   UNL     1      -7.423  10.754  68.837  1.00  0.00    -0.116 A  
ENDROOT
BRANCH   6   9
HETATM    9  C   UNL     1      -8.649  14.141  67.564  1.00  0.00    -0.191 A  
HETATM   10  C   UNL     1      -9.853  14.847  67.417  1.00  0.00    -0.221 A  
HETATM   11  C   UNL     1     -10.137  18.701  67.621  1.00  0.00    -0.404 A  
HETATM   12  C   UNL     1      -9.657  16.294  67.512  1.00  0.00    -0.230 A  
HETATM   13  O   UNL     1      -8.400  20.279  67.772  1.00  0.00    -0.292 OA 
HETATM   14  C   UNL     1      -8.308  16.621  67.621  1.00  0.00    -0.173 A  
HETATM   15  H   UNL     1      -9.041  20.980  67.760  1.00  0.00     0.000 HD 
HETATM   16  C   UNL     1     -10.581  17.378  67.543  1.00  0.00    -0.330 A  
HETATM   17  S   UNL     1      -7.321  15.235  67.627  1.00  0.00    -0.195 SA 
HETATM   18  C   UNL     1      -7.849  17.949  67.719  1.00  0.00    -0.221 A  
HETATM   19  C   UNL     1      -8.786  18.973  67.702  1.00  0.00    -0.289 A  
BRANCH  10  20
HETATM   20  C   UNL     1     -11.159  14.188  67.339  1.00  0.00    -0.306 C  
HETATM   21  O   UNL     1     -11.945  14.482  66.438  1.00  0.00    -0.392 OA 
BRANCH  20  22
HETATM   22  C   UNL     1     -11.602  13.148  68.318  1.00  0.00    -0.370 A  
HETATM   23  C   UNL     1     -12.248  11.366  70.433  1.00  0.00    -0.362 A  
HETATM   24  C   UNL     1     -12.002  10.878  69.145  1.00  0.00    -0.359 A  
HETATM   25  C   UNL     1     -11.880  13.621  69.603  1.00  0.00    -0.396 A  
HETATM   26  C   UNL     1     -11.677  11.764  68.089  1.00  0.00    -0.377 A  
HETATM   27  C   UNL     1     -12.170  12.742  70.648  1.00  0.00    -0.374 A  
BRANCH  23  28
HETATM   28  O   UNL     1     -12.564  10.451  71.430  1.00  0.00    -0.362 OA 
BRANCH  28  29
HETATM   29  C   UNL     1     -11.468   9.558  71.694  1.00  0.00    -0.363 C  
BRANCH  29  30
HETATM   30  C   UNL     1     -11.763   8.047  71.699  1.00  0.00    -0.283 C  
BRANCH  30  31
HETATM   31  N   UNL     1     -10.517   7.265  71.463  1.00  0.00    -0.203 NA 
HETATM   32  C   UNL     1     -10.733   5.931  70.874  1.00  0.00    -0.273 C  
HETATM   33  C   UNL     1     -11.365   6.019  69.488  1.00  0.00    -0.306 C  
HETATM   34  C   UNL     1     -10.425   6.766  68.549  1.00  0.00    -0.234 C  
HETATM   35  C   UNL     1      -9.918   8.082  69.151  1.00  0.00    -0.188 C  
HETATM   36  C   UNL     1      -9.537   7.983  70.634  1.00  0.00    -0.166 C  
ENDBRANCH  30  31
ENDBRANCH  29  30
ENDBRANCH  28  29
ENDBRANCH  23  28
ENDBRANCH  20  22
ENDBRANCH  10  20
ENDBRANCH   6   9
TORSDOF 7
ENDMDL
MODEL       55
REMARK 921   NORMALIZED FREE ENERGY PREDICTED BY IDOCK:   -6.10 KCAL/MOL
REMARK 922        TOTAL FREE ENERGY PREDICTED BY IDOCK:  -10.67 KCAL/MOL
REMARK 923 INTER-LIGAND FREE ENERGY PREDICTED BY IDOCK:   -9.01 KCAL/MOL
REMARK 924 INTRA-LIGAND FREE ENERGY PREDICTED BY IDOCK:   -1.66 KCAL/MOL
REMARK 927      BINDING AFFINITY PREDICTED BY RF-SCORE:    0.00 PKD
ROOT
HETATM    1  O   UNL     1     -14.270   9.002  73.239  1.00  0.00    -1.192 OA 
HETATM    2  H   UNL     1     -14.214   9.863  73.636  1.00  0.00     0.000 HD 
HETATM    3  C   UNL     1     -13.402   8.599  72.270  1.00  0.00    -0.375 A  
HETATM    4  C   UNL     1     -13.483   7.340  71.690  1.00  0.00    -0.428 A  
HETATM    5  C   UNL     1     -12.530   6.946  70.737  1.00  0.00    -0.251 A  
HETATM    6  C   UNL     1     -11.494   7.809  70.340  1.00  0.00    -0.171 A  
HETATM    7  C   UNL     1     -11.483   9.099  70.904  1.00  0.00    -0.357 A  
HETATM    8  C   UNL     1     -12.419   9.486  71.875  1.00  0.00    -0.465 A  
ENDROOT
BRANCH   6   9
HETATM    9  C   UNL     1     -10.404   7.367  69.417  1.00  0.00    -0.210 A  
HETATM   10  C   UNL     1      -9.431   8.055  68.675  1.00  0.00    -0.147 A  
HETATM   11  C   UNL     1      -6.661   6.317  66.605  1.00  0.00    -0.060 A  
HETATM   12  C   UNL     1      -8.531   7.143  67.969  1.00  0.00    -0.122 A  
HETATM   13  O   UNL     1      -6.407   4.022  66.157  1.00  0.00    -0.031 OA 
HETATM   14  C   UNL     1      -8.924   5.815  68.124  1.00  0.00    -0.114 A  
HETATM   15  H   UNL     1      -5.640   4.214  65.632  1.00  0.00     0.000 HD 
HETATM   16  C   UNL     1      -7.348   7.374  67.209  1.00  0.00    -0.098 A  
HETATM   17  S   UNL     1     -10.312   5.677  69.096  1.00  0.00    -0.266 SA 
HETATM   18  C   UNL     1      -8.229   4.740  67.536  1.00  0.00    -0.105 A  
HETATM   19  C   UNL     1      -7.107   5.020  66.768  1.00  0.00    -0.069 A  
BRANCH  10  20
HETATM   20  C   UNL     1      -9.258   9.508  68.742  1.00  0.00    -0.140 C  
HETATM   21  O   UNL     1      -8.747  10.023  69.738  1.00  0.00    -0.196 OA 
BRANCH  20  22
HETATM   22  C   UNL     1      -9.676  10.427  67.638  1.00  0.00    -0.191 A  
HETATM   23  C   UNL     1     -10.821  12.054  65.612  1.00  0.00    -0.282 A  
HETATM   24  C   UNL     1      -9.582  11.437  65.410  1.00  0.00    -0.255 A  
HETATM   25  C   UNL     1     -10.899  11.074  67.835  1.00  0.00    -0.285 A  
HETATM   26  C   UNL     1      -9.010  10.623  66.418  1.00  0.00    -0.176 A  
HETATM   27  C   UNL     1     -11.474  11.851  66.828  1.00  0.00    -0.384 A  
BRANCH  23  28
HETATM   28  O   UNL     1     -11.333  12.843  64.589  1.00  0.00    -0.301 OA 
BRANCH  28  29
HETATM   29  C   UNL     1     -10.683  14.124  64.534  1.00  0.00    -0.303 C  
BRANCH  29  30
HETATM   30  C   UNL     1     -11.136  15.199  65.540  1.00  0.00    -0.345 C  
BRANCH  30  31
HETATM   31  N   UNL     1      -9.968  15.975  66.044  1.00  0.00    -0.316 NA 
HETATM   32  C   UNL     1     -10.310  17.044  67.001  1.00  0.00    -0.304 C  
HETATM   33  C   UNL     1     -10.941  16.485  68.273  1.00  0.00    -0.346 C  
HETATM   34  C   UNL     1      -9.943  15.571  68.974  1.00  0.00    -0.233 C  
HETATM   35  C   UNL     1      -9.314  14.548  68.021  1.00  0.00    -0.201 C  
HETATM   36  C   UNL     1      -8.933  15.125  66.651  1.00  0.00    -0.287 C  
ENDBRANCH  30  31
ENDBRANCH  29  30
ENDBRANCH  28  29
ENDBRANCH  23  28
ENDBRANCH  20  22
ENDBRANCH  10  20
ENDBRANCH   6   9
TORSDOF 7
ENDMDL
MODEL       56
REMARK 921   NORMALIZED FREE ENERGY PREDICTED BY IDOCK:   -6.09 KCAL/MOL
REMARK 922        TOTAL FREE ENERGY PREDICTED BY IDOCK:  -10.67 KCAL/MOL
REMARK 923 INTER-LIGAND FREE ENERGY PREDICTED BY IDOCK:   -8.57 KCAL/MOL
REMARK 924 INTRA-LIGAND FREE ENERGY PREDICTED BY IDOCK:   -2.10 KCAL/MOL
REMARK 927      BINDING AFFINITY PREDICTED BY RF-SCORE:    0.00 PKD
ROOT
HETATM    1  O   UNL     1     -10.473  16.683  65.993  1.00  0.00    -0.327 OA 
HETATM    2  H   UNL     1     -10.022  17.238  66.619  1.00  0.00     0.000 HD 
HETATM    3  C   UNL     1     -10.249  15.341  65.931  1.00  0.00    -0.332 A  
HETATM    4  C   UNL     1     -10.908  14.529  65.017  1.00  0.00    -0.425 A  
HETATM    5  C   UNL     1     -10.690  13.142  65.028  1.00  0.00    -0.338 A  
HETATM    6  C   UNL     1      -9.798  12.550  65.940  1.00  0.00    -0.257 A  
HETATM    7  C   UNL     1      -9.102  13.413  66.808  1.00  0.00    -0.221 A  
HETATM    8  C   UNL     1      -9.338  14.796  66.815  1.00  0.00    -0.268 A  
ENDROOT
BRANCH   6   9
HETATM    9  C   UNL     1      -9.641  11.067  66.046  1.00  0.00    -0.215 A  
HETATM   10  C   UNL     1     -10.115  10.110  66.956  1.00  0.00    -0.277 A  
HETATM   11  C   UNL     1      -9.562   6.299  66.571  1.00  0.00    -0.183 A  
HETATM   12  C   UNL     1      -9.734   8.751  66.574  1.00  0.00    -0.328 A  
HETATM   13  O   UNL     1      -8.238   5.177  64.985  1.00  0.00    -0.117 OA 
HETATM   14  C   UNL     1      -8.905   8.748  65.455  1.00  0.00    -0.178 A  
HETATM   15  H   UNL     1      -8.466   4.347  65.387  1.00  0.00     0.000 HD 
HETATM   16  C   UNL     1     -10.082   7.479  67.114  1.00  0.00    -0.317 A  
HETATM   17  S   UNL     1      -8.615  10.322  64.880  1.00  0.00    -0.189 SA 
HETATM   18  C   UNL     1      -8.390   7.565  64.888  1.00  0.00    -0.045 A  
HETATM   19  C   UNL     1      -8.723   6.353  65.476  1.00  0.00    -0.066 A  
BRANCH  10  20
HETATM   20  C   UNL     1     -11.017  10.441  68.062  1.00  0.00    -0.291 C  
HETATM   21  O   UNL     1     -12.010  11.140  67.860  1.00  0.00    -0.624 OA 
BRANCH  20  22
HETATM   22  C   UNL     1     -10.794   9.963  69.462  1.00  0.00    -0.274 A  
HETATM   23  C   UNL     1     -10.101   8.836  71.975  1.00  0.00    -0.327 A  
HETATM   24  C   UNL     1     -11.437   9.113  71.667  1.00  0.00    -0.451 A  
HETATM   25  C   UNL     1      -9.462   9.707  69.798  1.00  0.00    -0.242 A  
HETATM   26  C   UNL     1     -11.786   9.673  70.414  1.00  0.00    -0.266 A  
HETATM   27  C   UNL     1      -9.125   9.127  71.022  1.00  0.00    -0.305 A  
BRANCH  23  28
HETATM   28  O   UNL     1      -9.817   8.289  73.221  1.00  0.00    -0.220 OA 
BRANCH  28  29
HETATM   29  C   UNL     1     -10.588   7.099  73.463  1.00  0.00    -0.374 C  
BRANCH  29  30
HETATM   30  C   UNL     1      -9.930   5.744  73.142  1.00  0.00    -0.176 C  
BRANCH  30  31
HETATM   31  N   UNL     1     -10.780   4.952  72.209  1.00  0.00    -0.186 NA 
HETATM   32  C   UNL     1     -10.903   5.524  70.856  1.00  0.00    -0.176 C  
HETATM   33  C   UNL     1      -9.556   5.586  70.142  1.00  0.00    -0.223 C  
HETATM   34  C   UNL     1      -9.006   4.175  69.974  1.00  0.00    -0.158 C  
HETATM   35  C   UNL     1      -9.050   3.368  71.277  1.00  0.00    -0.175 C  
HETATM   36  C   UNL     1     -10.343   3.554  72.082  1.00  0.00    -0.020 C  
ENDBRANCH  30  31
ENDBRANCH  29  30
ENDBRANCH  28  29
ENDBRANCH  23  28
ENDBRANCH  20  22
ENDBRANCH  10  20
ENDBRANCH   6   9
TORSDOF 7
ENDMDL
MODEL       57
REMARK 921   NORMALIZED FREE ENERGY PREDICTED BY IDOCK:   -6.06 KCAL/MOL
REMARK 922        TOTAL FREE ENERGY PREDICTED BY IDOCK:  -10.63 KCAL/MOL
REMARK 923 INTER-LIGAND FREE ENERGY PREDICTED BY IDOCK:   -8.51 KCAL/MOL
REMARK 924 INTRA-LIGAND FREE ENERGY PREDICTED BY IDOCK:   -2.11 KCAL/MOL
REMARK 927      BINDING AFFINITY PREDICTED BY RF-SCORE:    0.00 PKD
ROOT
HETATM    1  O   UNL     1      -8.146   8.580  72.788  1.00  0.00    -0.328 OA 
HETATM    2  H   UNL     1      -8.797   8.293  73.417  1.00  0.00     0.000 HD 
HETATM    3  C   UNL     1      -8.491   9.035  71.552  1.00  0.00    -0.022 A  
HETATM    4  C   UNL     1      -7.539   9.455  70.632  1.00  0.00    -0.163 A  
HETATM    5  C   UNL     1      -7.945   9.974  69.392  1.00  0.00    -0.145 A  
HETATM    6  C   UNL     1      -9.305  10.062  69.046  1.00  0.00    -0.183 A  
HETATM    7  C   UNL     1     -10.237   9.567  69.980  1.00  0.00    -0.281 A  
HETATM    8  C   UNL     1      -9.834   9.073  71.230  1.00  0.00    -0.376 A  
ENDROOT
BRANCH   6   9
HETATM    9  C   UNL     1      -9.761  10.716  67.782  1.00  0.00    -0.161 A  
HETATM   10  C   UNL     1      -9.646  10.377  66.425  1.00  0.00    -0.225 A  
HETATM   11  C   UNL     1     -11.275  12.389  63.549  1.00  0.00    -0.540 A  
HETATM   12  C   UNL     1     -10.339  11.331  65.559  1.00  0.00    -0.321 A  
HETATM   13  O   UNL     1     -12.403  14.449  63.674  1.00  0.00    -1.051 OA 
HETATM   14  C   UNL     1     -10.856  12.400  66.287  1.00  0.00    -0.266 A  
HETATM   15  H   UNL     1     -12.528  14.433  62.733  1.00  0.00     0.000 HD 
HETATM   16  C   UNL     1     -10.592  11.331  64.157  1.00  0.00    -0.437 A  
HETATM   17  S   UNL     1     -10.533  12.247  67.950  1.00  0.00    -0.219 SA 
HETATM   18  C   UNL     1     -11.562  13.461  65.688  1.00  0.00    -0.350 A  
HETATM   19  C   UNL     1     -11.745  13.439  64.312  1.00  0.00    -0.412 A  
BRANCH  10  20
HETATM   20  C   UNL     1      -9.037   9.127  65.965  1.00  0.00    -0.197 C  
HETATM   21  O   UNL     1      -8.330   9.120  64.957  1.00  0.00    -0.139 OA 
BRANCH  20  22
HETATM   22  C   UNL     1      -9.228   7.823  66.673  1.00  0.00    -0.220 A  
HETATM   23  C   UNL     1      -9.888   5.508  68.179  1.00  0.00    -0.143 A  
HETATM   24  C   UNL     1      -8.551   5.859  67.969  1.00  0.00    -0.113 A  
HETATM   25  C   UNL     1     -10.558   7.442  66.868  1.00  0.00    -0.375 A  
HETATM   26  C   UNL     1      -8.218   7.014  67.220  1.00  0.00    -0.119 A  
HETATM   27  C   UNL     1     -10.882   6.320  67.632  1.00  0.00    -0.433 A  
BRANCH  23  28
HETATM   28  O   UNL     1     -10.155   4.363  68.921  1.00  0.00    -0.086 OA 
BRANCH  28  29
HETATM   29  C   UNL     1      -8.992   3.914  69.636  1.00  0.00    -0.105 C  
BRANCH  29  30
HETATM   30  C   UNL     1      -8.973   4.108  71.163  1.00  0.00    -0.117 C  
BRANCH  30  31
HETATM   31  N   UNL     1     -10.359   4.196  71.702  1.00  0.00    -0.056 NA 
HETATM   32  C   UNL     1     -10.648   3.265  72.808  1.00  0.00    -0.081 C  
HETATM   33  C   UNL     1      -9.775   3.544  74.027  1.00  0.00    -0.142 C  
HETATM   34  C   UNL     1     -10.067   4.947  74.548  1.00  0.00    -0.273 C  
HETATM   35  C   UNL     1     -10.042   6.003  73.436  1.00  0.00    -0.205 C  
HETATM   36  C   UNL     1     -10.721   5.554  72.135  1.00  0.00    -0.231 C  
ENDBRANCH  30  31
ENDBRANCH  29  30
ENDBRANCH  28  29
ENDBRANCH  23  28
ENDBRANCH  20  22
ENDBRANCH  10  20
ENDBRANCH   6   9
TORSDOF 7
ENDMDL
MODEL       58
REMARK 921   NORMALIZED FREE ENERGY PREDICTED BY IDOCK:   -6.06 KCAL/MOL
REMARK 922        TOTAL FREE ENERGY PREDICTED BY IDOCK:  -10.61 KCAL/MOL
REMARK 923 INTER-LIGAND FREE ENERGY PREDICTED BY IDOCK:   -8.11 KCAL/MOL
REMARK 924 INTRA-LIGAND FREE ENERGY PREDICTED BY IDOCK:   -2.50 KCAL/MOL
REMARK 927      BINDING AFFINITY PREDICTED BY RF-SCORE:    0.00 PKD
ROOT
HETATM    1  O   UNL     1      -8.905  19.425  67.741  1.00  0.00    -0.299 OA 
HETATM    2  H   UNL     1      -8.003  19.630  67.958  1.00  0.00     0.000 HD 
HETATM    3  C   UNL     1      -9.456  18.213  68.032  1.00  0.00    -0.285 A  
HETATM    4  C   UNL     1     -10.775  17.914  67.716  1.00  0.00    -0.339 A  
HETATM    5  C   UNL     1     -11.319  16.674  68.088  1.00  0.00    -0.095 A  
HETATM    6  C   UNL     1     -10.549  15.711  68.763  1.00  0.00    -0.238 A  
HETATM    7  C   UNL     1      -9.199  16.028  69.009  1.00  0.00    -0.244 A  
HETATM    8  C   UNL     1      -8.661  17.276  68.662  1.00  0.00    -0.268 A  
ENDROOT
BRANCH   6   9
HETATM    9  C   UNL     1     -11.141  14.435  69.270  1.00  0.00    -0.271 A  
HETATM   10  C   UNL     1     -11.114  13.109  68.810  1.00  0.00    -0.309 A  
HETATM   11  C   UNL     1     -12.669  10.125  70.719  1.00  0.00    -0.397 A  
HETATM   12  C   UNL     1     -11.803  12.196  69.720  1.00  0.00    -0.397 A  
HETATM   13  O   UNL     1     -13.989  10.175  72.664  1.00  0.00    -0.498 OA 
HETATM   14  C   UNL     1     -12.408  12.882  70.771  1.00  0.00    -0.299 A  
HETATM   15  H   UNL     1     -14.076   9.230  72.625  1.00  0.00     0.000 HD 
HETATM   16  C   UNL     1     -11.926  10.777  69.730  1.00  0.00    -0.397 A  
HETATM   17  S   UNL     1     -12.138  14.558  70.669  1.00  0.00    -0.344 SA 
HETATM   18  C   UNL     1     -13.144  12.234  71.783  1.00  0.00    -0.449 A  
HETATM   19  C   UNL     1     -13.271  10.853  71.725  1.00  0.00    -0.408 A  
BRANCH  10  20
HETATM   20  C   UNL     1     -10.344  12.690  67.636  1.00  0.00    -0.220 C  
HETATM   21  O   UNL     1     -10.674  13.071  66.513  1.00  0.00    -0.274 OA 
BRANCH  20  22
HETATM   22  C   UNL     1      -9.143  11.802  67.728  1.00  0.00    -0.178 A  
HETATM   23  C   UNL     1      -7.107   9.830  67.898  1.00  0.00    -0.083 A  
HETATM   24  C   UNL     1      -6.992  11.030  68.608  1.00  0.00    -0.075 A  
HETATM   25  C   UNL     1      -9.228  10.611  67.003  1.00  0.00    -0.167 A  
HETATM   26  C   UNL     1      -8.007  12.014  68.527  1.00  0.00    -0.132 A  
HETATM   27  C   UNL     1      -8.240   9.631  67.109  1.00  0.00    -0.120 A  
BRANCH  23  28
HETATM   28  O   UNL     1      -6.080   8.901  68.013  1.00  0.00    -0.049 OA 
BRANCH  28  29
HETATM   29  C   UNL     1      -6.563   7.637  68.499  1.00  0.00    -0.053 C  
BRANCH  29  30
HETATM   30  C   UNL     1      -6.888   7.526  70.000  1.00  0.00    -0.051 C  
BRANCH  30  31
HETATM   31  N   UNL     1      -8.282   7.039  70.203  1.00  0.00    -0.130 NA 
HETATM   32  C   UNL     1      -8.468   6.194  71.397  1.00  0.00    -0.128 C  
HETATM   33  C   UNL     1      -8.167   6.956  72.684  1.00  0.00    -0.115 C  
HETATM   34  C   UNL     1      -9.135   8.125  72.819  1.00  0.00    -0.328 C  
HETATM   35  C   UNL     1      -9.227   8.963  71.538  1.00  0.00    -0.322 C  
HETATM   36  C   UNL     1      -9.269   8.129  70.250  1.00  0.00    -0.151 C  
ENDBRANCH  30  31
ENDBRANCH  29  30
ENDBRANCH  28  29
ENDBRANCH  23  28
ENDBRANCH  20  22
ENDBRANCH  10  20
ENDBRANCH   6   9
TORSDOF 7
ENDMDL
MODEL       59
REMARK 921   NORMALIZED FREE ENERGY PREDICTED BY IDOCK:   -6.05 KCAL/MOL
REMARK 922        TOTAL FREE ENERGY PREDICTED BY IDOCK:  -10.60 KCAL/MOL
REMARK 923 INTER-LIGAND FREE ENERGY PREDICTED BY IDOCK:   -9.65 KCAL/MOL
REMARK 924 INTRA-LIGAND FREE ENERGY PREDICTED BY IDOCK:   -0.95 KCAL/MOL
REMARK 927      BINDING AFFINITY PREDICTED BY RF-SCORE:    0.00 PKD
ROOT
HETATM    1  O   UNL     1     -12.653  13.550  62.715  1.00  0.00    -0.740 OA 
HETATM    2  H   UNL     1     -13.468  14.024  62.829  1.00  0.00     0.000 HD 
HETATM    3  C   UNL     1     -12.022  12.943  63.759  1.00  0.00    -0.512 A  
HETATM    4  C   UNL     1     -10.831  12.249  63.592  1.00  0.00    -0.522 A  
HETATM    5  C   UNL     1     -10.247  11.588  64.685  1.00  0.00    -0.334 A  
HETATM    6  C   UNL     1     -10.836  11.626  65.961  1.00  0.00    -0.339 A  
HETATM    7  C   UNL     1     -12.009  12.393  66.103  1.00  0.00    -0.397 A  
HETATM    8  C   UNL     1     -12.607  13.032  65.007  1.00  0.00    -0.515 A  
ENDROOT
BRANCH   6   9
HETATM    9  C   UNL     1     -10.295  10.835  67.109  1.00  0.00    -0.224 A  
HETATM   10  C   UNL     1     -10.516  10.871  68.494  1.00  0.00    -0.209 A  
HETATM   11  C   UNL     1      -8.971   8.355  70.996  1.00  0.00    -0.199 A  
HETATM   12  C   UNL     1      -9.783   9.817  69.195  1.00  0.00    -0.188 A  
HETATM   13  O   UNL     1      -7.371   6.684  70.574  1.00  0.00    -0.077 OA 
HETATM   14  C   UNL     1      -8.963   9.100  68.328  1.00  0.00    -0.129 A  
HETATM   15  H   UNL     1      -7.379   6.450  71.494  1.00  0.00     0.000 HD 
HETATM   16  C   UNL     1      -9.794   9.397  70.557  1.00  0.00    -0.331 A  
HETATM   17  S   UNL     1      -9.089   9.666  66.728  1.00  0.00    -0.149 SA 
HETATM   18  C   UNL     1      -8.145   8.035  68.755  1.00  0.00    -0.125 A  
HETATM   19  C   UNL     1      -8.157   7.692  70.099  1.00  0.00    -0.118 A  
BRANCH  10  20
HETATM   20  C   UNL     1     -11.492  11.764  69.122  1.00  0.00    -0.297 C  
HETATM   21  O   UNL     1     -12.516  11.303  69.626  1.00  0.00    -0.221 OA 
BRANCH  20  22
HETATM   22  C   UNL     1     -11.309  13.248  69.188  1.00  0.00    -0.336 A  
HETATM   23  C   UNL     1     -10.604  15.990  69.401  1.00  0.00    -0.275 A  
HETATM   24  C   UNL     1     -11.853  15.543  69.844  1.00  0.00    -0.380 A  
HETATM   25  C   UNL     1     -10.077  13.716  68.724  1.00  0.00    -0.129 A  
HETATM   26  C   UNL     1     -12.207  14.176  69.741  1.00  0.00    -0.397 A  
HETATM   27  C   UNL     1      -9.721  15.059  68.855  1.00  0.00    -0.224 A  
BRANCH  23  28
HETATM   28  O   UNL     1     -10.312  17.343  69.526  1.00  0.00    -0.232 OA 
BRANCH  28  29
HETATM   29  C   UNL     1     -10.456  18.032  68.272  1.00  0.00    -0.343 C  
BRANCH  29  30
HETATM   30  C   UNL     1      -9.642  19.324  68.070  1.00  0.00    -0.340 C  
BRANCH  30  31
HETATM   31  N   UNL     1      -9.131  19.413  66.673  1.00  0.00    -0.329 NA 
HETATM   32  C   UNL     1      -7.951  20.281  66.506  1.00  0.00    -0.228 C  
HETATM   33  C   UNL     1      -6.750  19.763  67.291  1.00  0.00    -0.234 C  
HETATM   34  C   UNL     1      -6.359  18.386  66.768  1.00  0.00    -0.203 C  
HETATM   35  C   UNL     1      -7.558  17.438  66.656  1.00  0.00    -0.291 C  
HETATM   36  C   UNL     1      -8.823  18.098  66.090  1.00  0.00    -0.083 C  
ENDBRANCH  30  31
ENDBRANCH  29  30
ENDBRANCH  28  29
ENDBRANCH  23  28
ENDBRANCH  20  22
ENDBRANCH  10  20
ENDBRANCH   6   9
TORSDOF 7
ENDMDL
MODEL       60
REMARK 921   NORMALIZED FREE ENERGY PREDICTED BY IDOCK:   -6.04 KCAL/MOL
REMARK 922        TOTAL FREE ENERGY PREDICTED BY IDOCK:  -10.59 KCAL/MOL
REMARK 923 INTER-LIGAND FREE ENERGY PREDICTED BY IDOCK:   -7.75 KCAL/MOL
REMARK 924 INTRA-LIGAND FREE ENERGY PREDICTED BY IDOCK:   -2.84 KCAL/MOL
REMARK 927      BINDING AFFINITY PREDICTED BY RF-SCORE:    0.00 PKD
ROOT
HETATM    1  O   UNL     1     -12.213  15.024  66.802  1.00  0.00    -0.185 OA 
HETATM    2  H   UNL     1     -12.209  14.955  65.855  1.00  0.00     0.000 HD 
HETATM    3  C   UNL     1     -12.014  13.941  67.604  1.00  0.00    -0.368 A  
HETATM    4  C   UNL     1     -12.019  14.043  68.989  1.00  0.00    -0.392 A  
HETATM    5  C   UNL     1     -11.750  12.910  69.775  1.00  0.00    -0.351 A  
HETATM    6  C   UNL     1     -11.492  11.659  69.189  1.00  0.00    -0.364 A  
HETATM    7  C   UNL     1     -11.558  11.583  67.784  1.00  0.00    -0.338 A  
HETATM    8  C   UNL     1     -11.801  12.719  66.996  1.00  0.00    -0.428 A  
ENDROOT
BRANCH   6   9
HETATM    9  C   UNL     1     -11.089  10.470  70.001  1.00  0.00    -0.308 A  
HETATM   10  C   UNL     1      -9.936   9.671  70.035  1.00  0.00    -0.288 A  
HETATM   11  C   UNL     1      -9.360   6.811  72.578  1.00  0.00    -0.151 A  
HETATM   12  C   UNL     1     -10.003   8.651  71.081  1.00  0.00    -0.289 A  
HETATM   13  O   UNL     1     -10.876   5.940  74.150  1.00  0.00    -0.359 OA 
HETATM   14  C   UNL     1     -11.241   8.657  71.721  1.00  0.00    -0.326 A  
HETATM   15  H   UNL     1     -10.222   5.307  74.424  1.00  0.00     0.000 HD 
HETATM   16  C   UNL     1      -9.042   7.714  71.558  1.00  0.00    -0.150 A  
HETATM   17  S   UNL     1     -12.270   9.857  71.094  1.00  0.00    -0.401 SA 
HETATM   18  C   UNL     1     -11.566   7.765  72.762  1.00  0.00    -0.368 A  
HETATM   19  C   UNL     1     -10.611   6.841  73.162  1.00  0.00    -0.287 A  
BRANCH  10  20
HETATM   20  C   UNL     1      -8.753   9.946  69.216  1.00  0.00    -0.169 C  
HETATM   21  O   UNL     1      -8.064  10.942  69.441  1.00  0.00    -0.103 OA 
BRANCH  20  22
HETATM   22  C   UNL     1      -8.319   9.059  68.092  1.00  0.00    -0.121 A  
HETATM   23  C   UNL     1      -7.854   7.255  65.949  1.00  0.00    -0.106 A  
HETATM   24  C   UNL     1      -6.887   7.439  66.943  1.00  0.00    -0.070 A  
HETATM   25  C   UNL     1      -9.262   8.885  67.075  1.00  0.00    -0.171 A  
HETATM   26  C   UNL     1      -7.117   8.336  68.014  1.00  0.00    -0.086 A  
HETATM   27  C   UNL     1      -9.044   7.978  66.037  1.00  0.00    -0.193 A  
BRANCH  23  28
HETATM   28  O   UNL     1      -7.573   6.364  64.920  1.00  0.00    -0.080 OA 
BRANCH  28  29
HETATM   29  C   UNL     1      -8.422   5.206  64.978  1.00  0.00    -0.148 C  
BRANCH  29  30
HETATM   30  C   UNL     1      -8.204   4.217  66.139  1.00  0.00    -0.105 C  
BRANCH  30  31
HETATM   31  N   UNL     1      -9.508   3.783  66.715  1.00  0.00    -0.195 NA 
HETATM   32  C   UNL     1      -9.407   2.709  67.720  1.00  0.00    -0.181 C  
HETATM   33  C   UNL     1      -8.608   3.149  68.942  1.00  0.00    -0.112 C  
HETATM   34  C   UNL     1      -9.319   4.316  69.618  1.00  0.00    -0.235 C  
HETATM   35  C   UNL     1      -9.709   5.419  68.627  1.00  0.00    -0.187 C  
HETATM   36  C   UNL     1     -10.275   4.893  67.301  1.00  0.00    -0.137 C  
ENDBRANCH  30  31
ENDBRANCH  29  30
ENDBRANCH  28  29
ENDBRANCH  23  28
ENDBRANCH  20  22
ENDBRANCH  10  20
ENDBRANCH   6   9
TORSDOF 7
ENDMDL
MODEL       61
REMARK 921   NORMALIZED FREE ENERGY PREDICTED BY IDOCK:   -6.03 KCAL/MOL
REMARK 922        TOTAL FREE ENERGY PREDICTED BY IDOCK:  -10.58 KCAL/MOL
REMARK 923 INTER-LIGAND FREE ENERGY PREDICTED BY IDOCK:   -8.56 KCAL/MOL
REMARK 924 INTRA-LIGAND FREE ENERGY PREDICTED BY IDOCK:   -2.02 KCAL/MOL
REMARK 927      BINDING AFFINITY PREDICTED BY RF-SCORE:    0.00 PKD
ROOT
HETATM    1  O   UNL     1      -9.866  17.298  66.279  1.00  0.00    -0.282 OA 
HETATM    2  H   UNL     1      -9.249  17.903  66.674  1.00  0.00     0.000 HD 
HETATM    3  C   UNL     1     -10.219  16.131  66.887  1.00  0.00    -0.283 A  
HETATM    4  C   UNL     1     -11.121  15.247  66.309  1.00  0.00    -0.273 A  
HETATM    5  C   UNL     1     -11.501  14.084  67.000  1.00  0.00    -0.370 A  
HETATM    6  C   UNL     1     -10.971  13.781  68.266  1.00  0.00    -0.269 A  
HETATM    7  C   UNL     1     -10.011  14.669  68.789  1.00  0.00    -0.235 A  
HETATM    8  C   UNL     1      -9.651  15.844  68.113  1.00  0.00    -0.208 A  
ENDROOT
BRANCH   6   9
HETATM    9  C   UNL     1     -11.449  12.612  69.066  1.00  0.00    -0.303 A  
HETATM   10  C   UNL     1     -11.292  11.223  68.933  1.00  0.00    -0.340 A  
HETATM   11  C   UNL     1     -12.590   8.644  71.508  1.00  0.00    -0.360 A  
HETATM   12  C   UNL     1     -11.906  10.491  70.040  1.00  0.00    -0.388 A  
HETATM   13  O   UNL     1     -13.936   9.030  73.398  1.00  0.00    -1.220 OA 
HETATM   14  C   UNL     1     -12.587  11.347  70.903  1.00  0.00    -0.356 A  
HETATM   15  H   UNL     1     -13.934   8.098  73.584  1.00  0.00     0.000 HD 
HETATM   16  C   UNL     1     -11.897   9.110  70.387  1.00  0.00    -0.057 A  
HETATM   17  S   UNL     1     -12.472  12.969  70.404  1.00  0.00    -0.127 SA 
HETATM   18  C   UNL     1     -13.273  10.891  72.046  1.00  0.00    -0.456 A  
HETATM   19  C   UNL     1     -13.271   9.530  72.318  1.00  0.00    -0.421 A  
BRANCH  10  20
HETATM   20  C   UNL     1     -10.470  10.612  67.886  1.00  0.00    -0.208 C  
HETATM   21  O   UNL     1     -10.640  10.924  66.706  1.00  0.00    -0.244 OA 
BRANCH  20  22
HETATM   22  C   UNL     1      -9.405   9.602  68.176  1.00  0.00    -0.140 A  
HETATM   23  C   UNL     1      -7.651   7.427  68.681  1.00  0.00    -0.110 A  
HETATM   24  C   UNL     1      -7.527   8.619  69.402  1.00  0.00    -0.080 A  
HETATM   25  C   UNL     1      -9.496   8.415  67.445  1.00  0.00    -0.185 A  
HETATM   26  C   UNL     1      -8.401   9.705  69.154  1.00  0.00    -0.130 A  
HETATM   27  C   UNL     1      -8.651   7.337  67.713  1.00  0.00    -0.120 A  
BRANCH  23  28
HETATM   28  O   UNL     1      -6.764   6.395  68.965  1.00  0.00    -0.049 OA 
BRANCH  28  29
HETATM   29  C   UNL     1      -7.404   5.111  68.884  1.00  0.00    -0.065 C  
BRANCH  29  30
HETATM   30  C   UNL     1      -7.722   4.386  70.205  1.00  0.00    -0.052 C  
BRANCH  30  31
HETATM   31  N   UNL     1      -9.053   3.720  70.136  1.00  0.00    -0.110 NA 
HETATM   32  C   UNL     1      -9.499   3.108  71.401  1.00  0.00    -0.149 C  
HETATM   33  C   UNL     1      -9.679   4.149  72.502  1.00  0.00    -0.203 C  
HETATM   34  C   UNL     1     -10.761   5.140  72.089  1.00  0.00    -0.252 C  
HETATM   35  C   UNL     1     -10.552   5.680  70.670  1.00  0.00    -0.347 C  
HETATM   36  C   UNL     1     -10.117   4.614  69.655  1.00  0.00    -0.162 C  
ENDBRANCH  30  31
ENDBRANCH  29  30
ENDBRANCH  28  29
ENDBRANCH  23  28
ENDBRANCH  20  22
ENDBRANCH  10  20
ENDBRANCH   6   9
TORSDOF 7
ENDMDL
MODEL       62
REMARK 921   NORMALIZED FREE ENERGY PREDICTED BY IDOCK:   -6.02 KCAL/MOL
REMARK 922        TOTAL FREE ENERGY PREDICTED BY IDOCK:  -10.56 KCAL/MOL
REMARK 923 INTER-LIGAND FREE ENERGY PREDICTED BY IDOCK:   -8.41 KCAL/MOL
REMARK 924 INTRA-LIGAND FREE ENERGY PREDICTED BY IDOCK:   -2.15 KCAL/MOL
REMARK 927      BINDING AFFINITY PREDICTED BY RF-SCORE:    0.00 PKD
ROOT
HETATM    1  O   UNL     1      -7.803  10.508  64.712  1.00  0.00    -0.276 OA 
HETATM    2  H   UNL     1      -6.859  10.576  64.785  1.00  0.00     0.000 HD 
HETATM    3  C   UNL     1      -8.632  10.882  65.726  1.00  0.00    -0.173 A  
HETATM    4  C   UNL     1     -10.013  10.784  65.620  1.00  0.00    -0.317 A  
HETATM    5  C   UNL     1     -10.830  11.237  66.668  1.00  0.00    -0.325 A  
HETATM    6  C   UNL     1     -10.278  11.778  67.842  1.00  0.00    -0.203 A  
HETATM    7  C   UNL     1      -8.873  11.802  67.939  1.00  0.00    -0.165 A  
HETATM    8  C   UNL     1      -8.056  11.374  66.882  1.00  0.00    -0.158 A  
ENDROOT
BRANCH   6   9
HETATM    9  C   UNL     1     -11.130  12.373  68.918  1.00  0.00    -0.258 A  
HETATM   10  C   UNL     1     -11.849  11.825  69.991  1.00  0.00    -0.422 A  
HETATM   11  C   UNL     1     -13.716  13.935  72.644  1.00  0.00    -0.582 A  
HETATM   12  C   UNL     1     -12.476  12.856  70.817  1.00  0.00    -0.370 A  
HETATM   13  O   UNL     1     -14.064  16.261  72.667  1.00  0.00    -0.141 OA 
HETATM   14  C   UNL     1     -12.291  14.127  70.276  1.00  0.00    -0.356 A  
HETATM   15  H   UNL     1     -14.559  16.174  73.473  1.00  0.00     0.000 HD 
HETATM   16  C   UNL     1     -13.186  12.785  72.050  1.00  0.00    -0.538 A  
HETATM   17  S   UNL     1     -11.382  14.074  68.839  1.00  0.00    -0.299 SA 
HETATM   18  C   UNL     1     -12.804  15.294  70.875  1.00  0.00    -0.511 A  
HETATM   19  C   UNL     1     -13.526  15.168  72.053  1.00  0.00    -0.421 A  
BRANCH  10  20
HETATM   20  C   UNL     1     -11.829  10.397  70.318  1.00  0.00    -0.312 C  
HETATM   21  O   UNL     1     -12.848   9.844  70.733  1.00  0.00    -0.295 OA 
BRANCH  20  22
HETATM   22  C   UNL     1     -10.606   9.548  70.169  1.00  0.00    -0.298 A  
HETATM   23  C   UNL     1      -8.522   7.649  69.829  1.00  0.00    -0.134 A  
HETATM   24  C   UNL     1      -8.401   8.674  70.773  1.00  0.00    -0.172 A  
HETATM   25  C   UNL     1     -10.699   8.536  69.210  1.00  0.00    -0.147 A  
HETATM   26  C   UNL     1      -9.439   9.621  70.947  1.00  0.00    -0.042 A  
HETATM   27  C   UNL     1      -9.686   7.586  69.063  1.00  0.00    -0.162 A  
BRANCH  23  28
HETATM   28  O   UNL     1      -7.471   6.749  69.701  1.00  0.00    -0.091 OA 
BRANCH  28  29
HETATM   29  C   UNL     1      -7.848   5.432  70.134  1.00  0.00    -0.081 C  
BRANCH  29  30
HETATM   30  C   UNL     1      -7.851   5.151  71.648  1.00  0.00    -0.109 C  
BRANCH  30  31
HETATM   31  N   UNL     1      -8.897   4.148  71.998  1.00  0.00    -0.109 NA 
HETATM   32  C   UNL     1      -9.231   4.086  73.432  1.00  0.00    -0.101 C  
HETATM   33  C   UNL     1      -9.818   5.400  73.935  1.00  0.00    -0.177 C  
HETATM   34  C   UNL     1     -11.118   5.691  73.194  1.00  0.00    -0.315 C  
HETATM   35  C   UNL     1     -10.972   5.549  71.675  1.00  0.00    -0.238 C  
HETATM   36  C   UNL     1     -10.143   4.332  71.240  1.00  0.00    -0.108 C  
ENDBRANCH  30  31
ENDBRANCH  29  30
ENDBRANCH  28  29
ENDBRANCH  23  28
ENDBRANCH  20  22
ENDBRANCH  10  20
ENDBRANCH   6   9
TORSDOF 7
ENDMDL
MODEL       63
REMARK 921   NORMALIZED FREE ENERGY PREDICTED BY IDOCK:   -6.00 KCAL/MOL
REMARK 922        TOTAL FREE ENERGY PREDICTED BY IDOCK:  -10.53 KCAL/MOL
REMARK 923 INTER-LIGAND FREE ENERGY PREDICTED BY IDOCK:   -8.71 KCAL/MOL
REMARK 924 INTRA-LIGAND FREE ENERGY PREDICTED BY IDOCK:   -1.82 KCAL/MOL
REMARK 927      BINDING AFFINITY PREDICTED BY RF-SCORE:    0.00 PKD
ROOT
HETATM    1  O   UNL     1      -5.772  11.308  70.815  1.00  0.00    -0.213 OA 
HETATM    2  H   UNL     1      -5.378  11.374  71.677  1.00  0.00     0.000 HD 
HETATM    3  C   UNL     1      -6.233  12.404  70.150  1.00  0.00    -0.037 A  
HETATM    4  C   UNL     1      -6.808  12.308  68.890  1.00  0.00    -0.096 A  
HETATM    5  C   UNL     1      -7.215  13.471  68.217  1.00  0.00    -0.111 A  
HETATM    6  C   UNL     1      -7.071  14.742  68.800  1.00  0.00    -0.114 A  
HETATM    7  C   UNL     1      -6.542  14.792  70.105  1.00  0.00    -0.145 A  
HETATM    8  C   UNL     1      -6.110  13.633  70.768  1.00  0.00    -0.059 A  
ENDROOT
BRANCH   6   9
HETATM    9  C   UNL     1      -7.389  15.998  68.054  1.00  0.00    -0.130 A  
HETATM   10  C   UNL     1      -8.559  16.759  67.902  1.00  0.00    -0.202 A  
HETATM   11  C   UNL     1      -8.717  20.125  65.999  1.00  0.00    -0.184 A  
HETATM   12  C   UNL     1      -8.329  17.969  67.113  1.00  0.00    -0.241 A  
HETATM   13  O   UNL     1      -7.028  21.153  64.726  1.00  0.00    -0.504 OA 
HETATM   14  C   UNL     1      -7.028  18.017  66.618  1.00  0.00    -0.210 A  
HETATM   15  H   UNL     1      -7.624  21.862  64.516  1.00  0.00     0.000 HD 
HETATM   16  C   UNL     1      -9.171  19.077  66.807  1.00  0.00    -0.345 A  
HETATM   17  S   UNL     1      -6.118  16.665  67.103  1.00  0.00    -0.161 SA 
HETATM   18  C   UNL     1      -6.554  19.076  65.820  1.00  0.00    -0.289 A  
HETATM   19  C   UNL     1      -7.425  20.112  65.512  1.00  0.00    -0.164 A  
BRANCH  10  20
HETATM   20  C   UNL     1      -9.810  16.442  68.594  1.00  0.00    -0.234 C  
HETATM   21  O   UNL     1     -10.348  17.284  69.314  1.00  0.00    -0.322 OA 
BRANCH  20  22
HETATM   22  C   UNL     1     -10.493  15.116  68.470  1.00  0.00    -0.233 A  
HETATM   23  C   UNL     1     -11.654  12.527  68.579  1.00  0.00    -0.321 A  
HETATM   24  C   UNL     1     -11.120  13.015  67.382  1.00  0.00    -0.302 A  
HETATM   25  C   UNL     1     -11.057  14.625  69.650  1.00  0.00    -0.284 A  
HETATM   26  C   UNL     1     -10.538  14.304  67.324  1.00  0.00    -0.278 A  
HETATM   27  C   UNL     1     -11.602  13.342  69.710  1.00  0.00    -0.305 A  
BRANCH  23  28
HETATM   28  O   UNL     1     -12.214  11.255  68.575  1.00  0.00    -0.588 OA 
BRANCH  28  29
HETATM   29  C   UNL     1     -12.278  10.703  69.901  1.00  0.00    -0.275 C  
BRANCH  29  30
HETATM   30  C   UNL     1     -11.182   9.701  70.311  1.00  0.00    -0.271 C  
BRANCH  30  31
HETATM   31  N   UNL     1     -11.327   9.317  71.744  1.00  0.00    -0.385 NA 
HETATM   32  C   UNL     1     -12.597   8.644  72.073  1.00  0.00    -0.378 C  
HETATM   33  C   UNL     1     -12.744   7.318  71.333  1.00  0.00    -0.427 C  
HETATM   34  C   UNL     1     -11.625   6.375  71.758  1.00  0.00    -0.367 C  
HETATM   35  C   UNL     1     -10.244   7.037  71.698  1.00  0.00    -0.208 C  
HETATM   36  C   UNL     1     -10.221   8.478  72.227  1.00  0.00    -0.325 C  
ENDBRANCH  30  31
ENDBRANCH  29  30
ENDBRANCH  28  29
ENDBRANCH  23  28
ENDBRANCH  20  22
ENDBRANCH  10  20
ENDBRANCH   6   9
TORSDOF 7
ENDMDL
MODEL       64
REMARK 921   NORMALIZED FREE ENERGY PREDICTED BY IDOCK:   -5.99 KCAL/MOL
REMARK 922        TOTAL FREE ENERGY PREDICTED BY IDOCK:  -10.52 KCAL/MOL
REMARK 923 INTER-LIGAND FREE ENERGY PREDICTED BY IDOCK:   -8.13 KCAL/MOL
REMARK 924 INTRA-LIGAND FREE ENERGY PREDICTED BY IDOCK:   -2.39 KCAL/MOL
REMARK 927      BINDING AFFINITY PREDICTED BY RF-SCORE:    0.00 PKD
ROOT
HETATM    1  O   UNL     1     -12.277  16.055  72.700  1.00  0.00    -0.438 OA 
HETATM    2  H   UNL     1     -11.918  16.916  72.884  1.00  0.00     0.000 HD 
HETATM    3  C   UNL     1     -12.013  15.399  71.536  1.00  0.00    -0.379 A  
HETATM    4  C   UNL     1     -12.536  14.141  71.268  1.00  0.00    -0.438 A  
HETATM    5  C   UNL     1     -12.189  13.477  70.081  1.00  0.00    -0.400 A  
HETATM    6  C   UNL     1     -11.329  14.067  69.138  1.00  0.00    -0.323 A  
HETATM    7  C   UNL     1     -10.870  15.369  69.417  1.00  0.00    -0.263 A  
HETATM    8  C   UNL     1     -11.195  16.024  70.614  1.00  0.00    -0.395 A  
ENDROOT
BRANCH   6   9
HETATM    9  C   UNL     1     -10.855  13.331  67.927  1.00  0.00    -0.243 A  
HETATM   10  C   UNL     1      -9.737  12.522  67.666  1.00  0.00    -0.196 A  
HETATM   11  C   UNL     1      -9.155  10.651  64.329  1.00  0.00    -0.244 A  
HETATM   12  C   UNL     1      -9.766  11.965  66.314  1.00  0.00    -0.247 A  
HETATM   13  O   UNL     1     -10.402  10.804  62.341  1.00  0.00    -0.666 OA 
HETATM   14  C   UNL     1     -10.843  12.456  65.581  1.00  0.00    -0.277 A  
HETATM   15  H   UNL     1      -9.807  10.192  61.925  1.00  0.00     0.000 HD 
HETATM   16  C   UNL     1      -8.928  11.015  65.660  1.00  0.00    -0.212 A  
HETATM   17  S   UNL     1     -11.791  13.533  66.495  1.00  0.00    -0.415 SA 
HETATM   18  C   UNL     1     -11.092  12.082  64.246  1.00  0.00    -0.411 A  
HETATM   19  C   UNL     1     -10.223  11.187  63.638  1.00  0.00    -0.387 A  
BRANCH  10  20
HETATM   20  C   UNL     1      -8.755  12.166  68.692  1.00  0.00     0.007 C  
HETATM   21  O   UNL     1      -7.787  12.898  68.901  1.00  0.00    -0.012 OA 
BRANCH  20  22
HETATM   22  C   UNL     1      -8.866  10.929  69.527  1.00  0.00     0.238 A  
HETATM   23  C   UNL     1      -9.405   8.720  71.228  1.00  0.00    -0.250 A  
HETATM   24  C   UNL     1      -8.103   9.212  71.096  1.00  0.00    -0.136 A  
HETATM   25  C   UNL     1     -10.156  10.407  69.647  1.00  0.00    -0.226 A  
HETATM   26  C   UNL     1      -7.831  10.314  70.250  1.00  0.00     0.195 A  
HETATM   27  C   UNL     1     -10.425   9.339  70.505  1.00  0.00    -0.312 A  
BRANCH  23  28
HETATM   28  O   UNL     1      -9.613   7.634  72.070  1.00  0.00    -0.151 OA 
BRANCH  28  29
HETATM   29  C   UNL     1      -9.680   6.401  71.336  1.00  0.00    -0.172 C  
BRANCH  29  30
HETATM   30  C   UNL     1     -10.725   6.295  70.210  1.00  0.00    -0.280 C  
BRANCH  30  31
HETATM   31  N   UNL     1     -10.208   5.467  69.084  1.00  0.00    -0.218 NA 
HETATM   32  C   UNL     1     -10.891   5.687  67.797  1.00  0.00    -0.083 C  
HETATM   33  C   UNL     1     -10.712   7.117  67.297  1.00  0.00    -0.399 C  
HETATM   34  C   UNL     1      -9.231   7.389  67.059  1.00  0.00    -0.169 C  
HETATM   35  C   UNL     1      -8.359   6.970  68.248  1.00  0.00    -0.123 C  
HETATM   36  C   UNL     1      -8.761   5.626  68.873  1.00  0.00    -0.107 C  
ENDBRANCH  30  31
ENDBRANCH  29  30
ENDBRANCH  28  29
ENDBRANCH  23  28
ENDBRANCH  20  22
ENDBRANCH  10  20
ENDBRANCH   6   9
TORSDOF 7
ENDMDL
MODEL       65
REMARK 921   NORMALIZED FREE ENERGY PREDICTED BY IDOCK:   -5.97 KCAL/MOL
REMARK 922        TOTAL FREE ENERGY PREDICTED BY IDOCK:  -10.49 KCAL/MOL
REMARK 923 INTER-LIGAND FREE ENERGY PREDICTED BY IDOCK:   -8.68 KCAL/MOL
REMARK 924 INTRA-LIGAND FREE ENERGY PREDICTED BY IDOCK:   -1.81 KCAL/MOL
REMARK 927      BINDING AFFINITY PREDICTED BY RF-SCORE:    0.00 PKD
ROOT
HETATM    1  O   UNL     1     -13.507  12.106  71.769  1.00  0.00    -0.327 OA 
HETATM    2  H   UNL     1     -13.079  12.892  71.451  1.00  0.00     0.000 HD 
HETATM    3  C   UNL     1     -13.016  10.863  71.505  1.00  0.00    -0.451 A  
HETATM    4  C   UNL     1     -13.642   9.714  71.971  1.00  0.00    -0.467 A  
HETATM    5  C   UNL     1     -13.067   8.456  71.725  1.00  0.00    -0.373 A  
HETATM    6  C   UNL     1     -11.871   8.329  70.997  1.00  0.00    -0.276 A  
HETATM    7  C   UNL     1     -11.301   9.513  70.488  1.00  0.00    -0.343 A  
HETATM    8  C   UNL     1     -11.860  10.772  70.755  1.00  0.00    -0.443 A  
ENDROOT
BRANCH   6   9
HETATM    9  C   UNL     1     -11.183   7.013  70.826  1.00  0.00    -0.285 A  
HETATM   10  C   UNL     1     -10.710   6.311  69.706  1.00  0.00    -0.358 A  
HETATM   11  C   UNL     1      -8.754   2.978  69.912  1.00  0.00    -0.133 A  
HETATM   12  C   UNL     1     -10.032   5.070  70.081  1.00  0.00    -0.328 A  
HETATM   13  O   UNL     1      -8.334   1.656  71.811  1.00  0.00    -0.044 OA 
HETATM   14  C   UNL     1     -10.112   4.838  71.452  1.00  0.00    -0.189 A  
HETATM   15  H   UNL     1      -7.881   1.024  71.266  1.00  0.00     0.000 HD 
HETATM   16  C   UNL     1      -9.304   4.116  69.313  1.00  0.00    -0.237 A  
HETATM   17  S   UNL     1     -10.956   6.078  72.254  1.00  0.00    -0.279 SA 
HETATM   18  C   UNL     1      -9.546   3.705  72.069  1.00  0.00    -0.212 A  
HETATM   19  C   UNL     1      -8.883   2.782  71.272  1.00  0.00    -0.075 A  
BRANCH  10  20
HETATM   20  C   UNL     1     -10.761   6.853  68.347  1.00  0.00    -0.211 C  
HETATM   21  O   UNL     1     -11.393   6.261  67.470  1.00  0.00    -0.246 OA 
BRANCH  20  22
HETATM   22  C   UNL     1     -10.072   8.120  67.952  1.00  0.00    -0.246 A  
HETATM   23  C   UNL     1      -8.907  10.468  66.859  1.00  0.00    -0.137 A  
HETATM   24  C   UNL     1      -8.207   9.699  67.795  1.00  0.00    -0.114 A  
HETATM   25  C   UNL     1     -10.769   8.916  67.039  1.00  0.00    -0.180 A  
HETATM   26  C   UNL     1      -8.784   8.527  68.340  1.00  0.00    -0.143 A  
HETATM   27  C   UNL     1     -10.184  10.055  66.481  1.00  0.00    -0.291 A  
BRANCH  23  28
HETATM   28  O   UNL     1      -8.292  11.610  66.360  1.00  0.00    -0.162 OA 
BRANCH  28  29
HETATM   29  C   UNL     1      -7.853  12.479  67.417  1.00  0.00    -0.175 C  
BRANCH  29  30
HETATM   30  C   UNL     1      -8.927  13.287  68.170  1.00  0.00    -0.195 C  
BRANCH  30  31
HETATM   31  N   UNL     1      -9.826  13.992  67.213  1.00  0.00    -0.238 NA 
HETATM   32  C   UNL     1     -11.239  13.580  67.283  1.00  0.00    -0.298 C  
HETATM   33  C   UNL     1     -11.854  13.893  68.643  1.00  0.00    -0.407 C  
HETATM   34  C   UNL     1     -11.824  15.398  68.878  1.00  0.00    -0.350 C  
HETATM   35  C   UNL     1     -10.446  16.009  68.598  1.00  0.00    -0.251 C  
HETATM   36  C   UNL     1      -9.764  15.455  67.340  1.00  0.00    -0.215 C  
ENDBRANCH  30  31
ENDBRANCH  29  30
ENDBRANCH  28  29
ENDBRANCH  23  28
ENDBRANCH  20  22
ENDBRANCH  10  20
ENDBRANCH   6   9
TORSDOF 7
ENDMDL
MODEL       66
REMARK 921   NORMALIZED FREE ENERGY PREDICTED BY IDOCK:   -5.96 KCAL/MOL
REMARK 922        TOTAL FREE ENERGY PREDICTED BY IDOCK:  -10.48 KCAL/MOL
REMARK 923 INTER-LIGAND FREE ENERGY PREDICTED BY IDOCK:   -8.67 KCAL/MOL
REMARK 924 INTRA-LIGAND FREE ENERGY PREDICTED BY IDOCK:   -1.81 KCAL/MOL
REMARK 927      BINDING AFFINITY PREDICTED BY RF-SCORE:    0.00 PKD
ROOT
HETATM    1  O   UNL     1      -9.589  12.223  63.378  1.00  0.00    -0.663 OA 
HETATM    2  H   UNL     1      -8.709  11.877  63.283  1.00  0.00     0.000 HD 
HETATM    3  C   UNL     1     -10.146  12.448  64.600  1.00  0.00    -0.240 A  
HETATM    4  C   UNL     1     -11.431  12.954  64.738  1.00  0.00    -0.360 A  
HETATM    5  C   UNL     1     -11.943  13.227  66.017  1.00  0.00    -0.473 A  
HETATM    6  C   UNL     1     -11.184  12.981  67.175  1.00  0.00    -0.322 A  
HETATM    7  C   UNL     1      -9.910  12.407  66.996  1.00  0.00    -0.214 A  
HETATM    8  C   UNL     1      -9.388  12.159  65.718  1.00  0.00    -0.091 A  
ENDROOT
BRANCH   6   9
HETATM    9  C   UNL     1     -11.664  13.372  68.536  1.00  0.00    -0.357 A  
HETATM   10  C   UNL     1     -12.157  12.645  69.630  1.00  0.00    -0.277 A  
HETATM   11  C   UNL     1     -13.037  14.220  73.053  1.00  0.00    -0.526 A  
HETATM   12  C   UNL     1     -12.429  13.502  70.783  1.00  0.00    -0.428 A  
HETATM   13  O   UNL     1     -13.081  16.499  73.635  1.00  0.00    -0.535 OA 
HETATM   14  C   UNL     1     -12.229  14.847  70.478  1.00  0.00    -0.329 A  
HETATM   15  H   UNL     1     -13.368  16.265  74.510  1.00  0.00     0.000 HD 
HETATM   16  C   UNL     1     -12.816  13.202  72.121  1.00  0.00    -0.265 A  
HETATM   17  S   UNL     1     -11.717  15.060  68.870  1.00  0.00    -0.318 SA 
HETATM   18  C   UNL     1     -12.431  15.880  71.414  1.00  0.00    -0.459 A  
HETATM   19  C   UNL     1     -12.850  15.540  72.693  1.00  0.00    -0.425 A  
BRANCH  10  20
HETATM   20  C   UNL     1     -12.232  11.182  69.646  1.00  0.00    -0.290 C  
HETATM   21  O   UNL     1     -13.125  10.603  69.026  1.00  0.00     0.526 OA 
BRANCH  20  22
HETATM   22  C   UNL     1     -11.256  10.327  70.391  1.00  0.00    -0.407 A  
HETATM   23  C   UNL     1      -9.280   8.595  71.467  1.00  0.00    -0.246 A  
HETATM   24  C   UNL     1     -10.529   8.716  72.085  1.00  0.00    -0.411 A  
HETATM   25  C   UNL     1      -9.993  10.216  69.803  1.00  0.00    -0.258 A  
HETATM   26  C   UNL     1     -11.517   9.577  71.550  1.00  0.00    -0.466 A  
HETATM   27  C   UNL     1      -9.033   9.344  70.316  1.00  0.00    -0.277 A  
BRANCH  23  28
HETATM   28  O   UNL     1      -8.348   7.736  72.038  1.00  0.00    -0.104 OA 
BRANCH  28  29
HETATM   29  C   UNL     1      -7.117   7.723  71.295  1.00  0.00    -0.057 C  
BRANCH  29  30
HETATM   30  C   UNL     1      -6.684   6.392  70.654  1.00  0.00    -0.057 C  
BRANCH  30  31
HETATM   31  N   UNL     1      -7.675   5.950  69.632  1.00  0.00    -0.094 NA 
HETATM   32  C   UNL     1      -7.224   6.098  68.237  1.00  0.00    -0.084 C  
HETATM   33  C   UNL     1      -6.001   5.236  67.941  1.00  0.00    -0.022 C  
HETATM   34  C   UNL     1      -6.358   3.767  68.132  1.00  0.00    -0.037 C  
HETATM   35  C   UNL     1      -7.070   3.504  69.464  1.00  0.00    -0.042 C  
HETATM   36  C   UNL     1      -8.121   4.562  69.829  1.00  0.00    -0.060 C  
ENDBRANCH  30  31
ENDBRANCH  29  30
ENDBRANCH  28  29
ENDBRANCH  23  28
ENDBRANCH  20  22
ENDBRANCH  10  20
ENDBRANCH   6   9
TORSDOF 7
ENDMDL
MODEL       67
REMARK 921   NORMALIZED FREE ENERGY PREDICTED BY IDOCK:   -5.95 KCAL/MOL
REMARK 922        TOTAL FREE ENERGY PREDICTED BY IDOCK:  -10.47 KCAL/MOL
REMARK 923 INTER-LIGAND FREE ENERGY PREDICTED BY IDOCK:   -9.10 KCAL/MOL
REMARK 924 INTRA-LIGAND FREE ENERGY PREDICTED BY IDOCK:   -1.37 KCAL/MOL
REMARK 927      BINDING AFFINITY PREDICTED BY RF-SCORE:    0.00 PKD
ROOT
HETATM    1  O   UNL     1      -6.230  20.275  65.014  1.00  0.00    -0.233 OA 
HETATM    2  H   UNL     1      -5.416  19.919  64.676  1.00  0.00     0.000 HD 
HETATM    3  C   UNL     1      -7.155  19.489  65.632  1.00  0.00    -0.285 A  
HETATM    4  C   UNL     1      -8.345  20.008  66.127  1.00  0.00    -0.304 A  
HETATM    5  C   UNL     1      -9.243  19.172  66.809  1.00  0.00    -0.356 A  
HETATM    6  C   UNL     1      -8.974  17.804  66.990  1.00  0.00    -0.258 A  
HETATM    7  C   UNL     1      -7.788  17.303  66.419  1.00  0.00    -0.345 A  
HETATM    8  C   UNL     1      -6.877  18.142  65.760  1.00  0.00    -0.305 A  
ENDROOT
BRANCH   6   9
HETATM    9  C   UNL     1      -9.859  16.924  67.813  1.00  0.00    -0.252 A  
HETATM   10  C   UNL     1     -10.613  15.776  67.525  1.00  0.00    -0.309 A  
HETATM   11  C   UNL     1     -12.563  13.747  70.183  1.00  0.00    -0.253 A  
HETATM   12  C   UNL     1     -11.265  15.233  68.717  1.00  0.00    -0.293 A  
HETATM   13  O   UNL     1     -12.910  14.278  72.447  1.00  0.00    -0.350 OA 
HETATM   14  C   UNL     1     -11.062  16.049  69.827  1.00  0.00    -0.337 A  
HETATM   15  H   UNL     1     -13.430  13.490  72.548  1.00  0.00     0.000 HD 
HETATM   16  C   UNL     1     -12.015  14.040  68.930  1.00  0.00    -0.387 A  
HETATM   17  S   UNL     1     -10.108  17.405  69.448  1.00  0.00     0.032 SA 
HETATM   18  C   UNL     1     -11.593  15.755  71.098  1.00  0.00    -0.469 A  
HETATM   19  C   UNL     1     -12.353  14.603  71.246  1.00  0.00    -0.341 A  
BRANCH  10  20
HETATM   20  C   UNL     1     -10.604  15.125  66.213  1.00  0.00    -0.310 C  
HETATM   21  O   UNL     1     -10.833  15.782  65.197  1.00  0.00    -0.400 OA 
BRANCH  20  22
HETATM   22  C   UNL     1     -10.321  13.667  66.032  1.00  0.00    -0.305 A  
HETATM   23  C   UNL     1     -10.151  10.847  65.748  1.00  0.00    -0.252 A  
HETATM   24  C   UNL     1      -9.127  11.559  66.382  1.00  0.00    -0.206 A  
HETATM   25  C   UNL     1     -11.321  12.945  65.376  1.00  0.00    -0.336 A  
HETATM   26  C   UNL     1      -9.210  12.965  66.527  1.00  0.00    -0.186 A  
HETATM   27  C   UNL     1     -11.250  11.556  65.261  1.00  0.00    -0.203 A  
BRANCH  23  28
HETATM   28  O   UNL     1     -10.016   9.469  65.632  1.00  0.00    -0.305 OA 
BRANCH  28  29
HETATM   29  C   UNL     1     -10.218   8.810  66.894  1.00  0.00    -0.287 C  
BRANCH  29  30
HETATM   30  C   UNL     1     -10.713   7.352  66.867  1.00  0.00    -0.254 C  
BRANCH  30  31
HETATM   31  N   UNL     1      -9.648   6.425  67.343  1.00  0.00    -0.118 NA 
HETATM   32  C   UNL     1      -9.983   4.994  67.223  1.00  0.00    -0.186 C  
HETATM   33  C   UNL     1     -10.190   4.581  65.769  1.00  0.00    -0.289 C  
HETATM   34  C   UNL     1      -8.896   4.795  64.993  1.00  0.00    -0.152 C  
HETATM   35  C   UNL     1      -8.295   6.186  65.226  1.00  0.00    -0.144 C  
HETATM   36  C   UNL     1      -8.353   6.653  66.687  1.00  0.00    -0.117 C  
ENDBRANCH  30  31
ENDBRANCH  29  30
ENDBRANCH  28  29
ENDBRANCH  23  28
ENDBRANCH  20  22
ENDBRANCH  10  20
ENDBRANCH   6   9
TORSDOF 7
ENDMDL
MODEL       68
REMARK 921   NORMALIZED FREE ENERGY PREDICTED BY IDOCK:   -5.95 KCAL/MOL
REMARK 922        TOTAL FREE ENERGY PREDICTED BY IDOCK:  -10.46 KCAL/MOL
REMARK 923 INTER-LIGAND FREE ENERGY PREDICTED BY IDOCK:   -8.64 KCAL/MOL
REMARK 924 INTRA-LIGAND FREE ENERGY PREDICTED BY IDOCK:   -1.82 KCAL/MOL
REMARK 927      BINDING AFFINITY PREDICTED BY RF-SCORE:    0.00 PKD
ROOT
HETATM    1  O   UNL     1      -5.660  14.093  69.087  1.00  0.00    -0.083 OA 
HETATM    2  H   UNL     1      -5.448  14.285  69.993  1.00  0.00     0.000 HD 
HETATM    3  C   UNL     1      -6.192  12.897  68.711  1.00  0.00    -0.076 A  
HETATM    4  C   UNL     1      -6.502  12.616  67.387  1.00  0.00    -0.150 A  
HETATM    5  C   UNL     1      -7.104  11.392  67.053  1.00  0.00    -0.138 A  
HETATM    6  C   UNL     1      -7.387  10.426  68.034  1.00  0.00    -0.085 A  
HETATM    7  C   UNL     1      -6.999  10.722  69.356  1.00  0.00    -0.116 A  
HETATM    8  C   UNL     1      -6.422  11.955  69.695  1.00  0.00    -0.101 A  
ENDROOT
BRANCH   6   9
HETATM    9  C   UNL     1      -8.132   9.168  67.718  1.00  0.00    -0.105 A  
HETATM   10  C   UNL     1      -9.475   8.784  67.853  1.00  0.00    -0.160 A  
HETATM   11  C   UNL     1     -10.890   5.403  66.612  1.00  0.00    -0.220 A  
HETATM   12  C   UNL     1      -9.719   7.444  67.320  1.00  0.00    -0.205 A  
HETATM   13  O   UNL     1      -9.708   3.568  65.736  1.00  0.00    -0.326 OA 
HETATM   14  C   UNL     1      -8.537   6.836  66.903  1.00  0.00    -0.116 A  
HETATM   15  H   UNL     1     -10.523   3.088  65.653  1.00  0.00     0.000 HD 
HETATM   16  C   UNL     1     -10.920   6.700  67.134  1.00  0.00    -0.478 A  
HETATM   17  S   UNL     1      -7.191   7.851  67.130  1.00  0.00    -0.092 SA 
HETATM   18  C   UNL     1      -8.497   5.538  66.359  1.00  0.00    -0.119 A  
HETATM   19  C   UNL     1      -9.688   4.836  66.237  1.00  0.00    -0.196 A  
BRANCH  10  20
HETATM   20  C   UNL     1     -10.520   9.694  68.327  1.00  0.00    -0.219 C  
HETATM   21  O   UNL     1     -11.128   9.445  69.369  1.00  0.00    -0.189 OA 
BRANCH  20  22
HETATM   22  C   UNL     1     -10.899  10.944  67.599  1.00  0.00    -0.317 A  
HETATM   23  C   UNL     1     -11.303  13.269  66.020  1.00  0.00    -0.305 A  
HETATM   24  C   UNL     1     -11.649  13.264  67.375  1.00  0.00    -0.396 A  
HETATM   25  C   UNL     1     -10.587  10.957  66.237  1.00  0.00    -0.276 A  
HETATM   26  C   UNL     1     -11.447  12.107  68.166  1.00  0.00    -0.375 A  
HETATM   27  C   UNL     1     -10.760  12.109  65.469  1.00  0.00    -0.321 A  
BRANCH  23  28
HETATM   28  O   UNL     1     -11.526  14.432  65.292  1.00  0.00    -0.328 OA 
BRANCH  28  29
HETATM   29  C   UNL     1     -10.434  15.358  65.429  1.00  0.00    -0.402 C  
BRANCH  29  30
HETATM   30  C   UNL     1     -10.643  16.580  66.342  1.00  0.00    -0.221 C  
BRANCH  30  31
HETATM   31  N   UNL     1      -9.804  17.726  65.891  1.00  0.00    -0.550 NA 
HETATM   32  C   UNL     1     -10.481  19.035  65.931  1.00  0.00    -0.399 C  
HETATM   33  C   UNL     1     -10.880  19.424  67.351  1.00  0.00    -0.555 C  
HETATM   34  C   UNL     1      -9.628  19.552  68.211  1.00  0.00    -0.464 C  
HETATM   35  C   UNL     1      -8.696  18.343  68.074  1.00  0.00    -0.302 C  
HETATM   36  C   UNL     1      -8.539  17.837  66.633  1.00  0.00    -0.258 C  
ENDBRANCH  30  31
ENDBRANCH  29  30
ENDBRANCH  28  29
ENDBRANCH  23  28
ENDBRANCH  20  22
ENDBRANCH  10  20
ENDBRANCH   6   9
TORSDOF 7
ENDMDL
MODEL       69
REMARK 921   NORMALIZED FREE ENERGY PREDICTED BY IDOCK:   -5.91 KCAL/MOL
REMARK 922        TOTAL FREE ENERGY PREDICTED BY IDOCK:  -10.41 KCAL/MOL
REMARK 923 INTER-LIGAND FREE ENERGY PREDICTED BY IDOCK:   -8.77 KCAL/MOL
REMARK 924 INTRA-LIGAND FREE ENERGY PREDICTED BY IDOCK:   -1.65 KCAL/MOL
REMARK 927      BINDING AFFINITY PREDICTED BY RF-SCORE:    0.00 PKD
ROOT
HETATM    1  O   UNL     1      -7.011  18.619  65.466  1.00  0.00    -0.451 OA 
HETATM    2  H   UNL     1      -6.088  18.411  65.383  1.00  0.00     0.000 HD 
HETATM    3  C   UNL     1      -7.884  17.783  66.094  1.00  0.00    -0.227 A  
HETATM    4  C   UNL     1      -9.233  18.088  66.215  1.00  0.00    -0.203 A  
HETATM    5  C   UNL     1     -10.084  17.224  66.923  1.00  0.00    -0.304 A  
HETATM    6  C   UNL     1      -9.604  16.038  67.504  1.00  0.00    -0.222 A  
HETATM    7  C   UNL     1      -8.243  15.732  67.304  1.00  0.00    -0.211 A  
HETATM    8  C   UNL     1      -7.385  16.607  66.620  1.00  0.00    -0.290 A  
ENDROOT
BRANCH   6   9
HETATM    9  C   UNL     1     -10.467  15.166  68.359  1.00  0.00    -0.233 A  
HETATM   10  C   UNL     1     -10.811  13.806  68.311  1.00  0.00    -0.266 A  
HETATM   11  C   UNL     1     -12.946  12.021  71.000  1.00  0.00    -0.175 A  
HETATM   12  C   UNL     1     -11.648  13.411  69.443  1.00  0.00    -0.365 A  
HETATM   13  O   UNL     1     -14.072  12.977  72.829  1.00  0.00    -0.737 OA 
HETATM   14  C   UNL     1     -11.984  14.505  70.237  1.00  0.00    -0.314 A  
HETATM   15  H   UNL     1     -14.401  12.119  73.070  1.00  0.00     0.000 HD 
HETATM   16  C   UNL     1     -12.129  12.140  69.871  1.00  0.00    -0.324 A  
HETATM   17  S   UNL     1     -11.300  15.946  69.648  1.00  0.00    -0.351 SA 
HETATM   18  C   UNL     1     -12.790  14.394  71.387  1.00  0.00    -0.410 A  
HETATM   19  C   UNL     1     -13.270  13.141  71.739  1.00  0.00    -0.403 A  
BRANCH  10  20
HETATM   20  C   UNL     1     -10.257  12.879  67.322  1.00  0.00    -0.234 C  
HETATM   21  O   UNL     1     -10.287  13.163  66.124  1.00  0.00    -0.272 OA 
BRANCH  20  22
HETATM   22  C   UNL     1      -9.636  11.570  67.696  1.00  0.00    -0.176 A  
HETATM   23  C   UNL     1      -8.127   9.251  68.334  1.00  0.00    -0.106 A  
HETATM   24  C   UNL     1      -9.352   9.138  67.669  1.00  0.00    -0.154 A  
HETATM   25  C   UNL     1      -8.424  11.662  68.385  1.00  0.00    -0.157 A  
HETATM   26  C   UNL     1     -10.106  10.293  67.347  1.00  0.00    -0.246 A  
HETATM   27  C   UNL     1      -7.670  10.524  68.674  1.00  0.00    -0.106 A  
BRANCH  23  28
HETATM   28  O   UNL     1      -7.431   8.083  68.625  1.00  0.00    -0.093 OA 
BRANCH  28  29
HETATM   29  C   UNL     1      -8.299   7.073  69.167  1.00  0.00    -0.125 C  
BRANCH  29  30
HETATM   30  C   UNL     1      -8.317   6.892  70.696  1.00  0.00    -0.128 C  
BRANCH  30  31
HETATM   31  N   UNL     1      -8.798   8.131  71.369  1.00  0.00    -0.139 NA 
HETATM   32  C   UNL     1     -10.250   8.361  71.265  1.00  0.00    -0.212 C  
HETATM   33  C   UNL     1     -11.050   7.255  71.946  1.00  0.00    -0.270 C  
HETATM   34  C   UNL     1     -10.715   7.229  73.433  1.00  0.00    -0.415 C  
HETATM   35  C   UNL     1      -9.205   7.237  73.695  1.00  0.00    -0.262 C  
HETATM   36  C   UNL     1      -8.420   8.196  72.789  1.00  0.00    -0.188 C  
ENDBRANCH  30  31
ENDBRANCH  29  30
ENDBRANCH  28  29
ENDBRANCH  23  28
ENDBRANCH  20  22
ENDBRANCH  10  20
ENDBRANCH   6   9
TORSDOF 7
ENDMDL
MODEL       70
REMARK 921   NORMALIZED FREE ENERGY PREDICTED BY IDOCK:   -5.91 KCAL/MOL
REMARK 922        TOTAL FREE ENERGY PREDICTED BY IDOCK:  -10.41 KCAL/MOL
REMARK 923 INTER-LIGAND FREE ENERGY PREDICTED BY IDOCK:   -8.71 KCAL/MOL
REMARK 924 INTRA-LIGAND FREE ENERGY PREDICTED BY IDOCK:   -1.70 KCAL/MOL
REMARK 927      BINDING AFFINITY PREDICTED BY RF-SCORE:    0.00 PKD
ROOT
HETATM    1  O   UNL     1     -13.241  10.869  72.118  1.00  0.00    -0.584 OA 
HETATM    2  H   UNL     1     -13.712  11.103  72.909  1.00  0.00     0.000 HD 
HETATM    3  C   UNL     1     -12.727  11.813  71.281  1.00  0.00    -0.316 A  
HETATM    4  C   UNL     1     -12.037  11.471  70.125  1.00  0.00    -0.432 A  
HETATM    5  C   UNL     1     -11.473  12.476  69.324  1.00  0.00    -0.353 A  
HETATM    6  C   UNL     1     -11.605  13.835  69.655  1.00  0.00    -0.343 A  
HETATM    7  C   UNL     1     -12.365  14.145  70.800  1.00  0.00    -0.439 A  
HETATM    8  C   UNL     1     -12.908  13.141  71.616  1.00  0.00    -0.388 A  
ENDROOT
BRANCH   6   9
HETATM    9  C   UNL     1     -10.914  14.912  68.881  1.00  0.00    -0.251 A  
HETATM   10  C   UNL     1      -9.665  14.993  68.247  1.00  0.00    -0.215 A  
HETATM   11  C   UNL     1      -8.499  18.027  66.147  1.00  0.00    -0.141 A  
HETATM   12  C   UNL     1      -9.484  16.265  67.549  1.00  0.00    -0.227 A  
HETATM   13  O   UNL     1      -9.572  20.101  65.872  1.00  0.00    -0.559 OA 
HETATM   14  C   UNL     1     -10.556  17.127  67.770  1.00  0.00    -0.360 A  
HETATM   15  H   UNL     1      -8.853  20.397  65.327  1.00  0.00     0.000 HD 
HETATM   16  C   UNL     1      -8.452  16.738  66.688  1.00  0.00    -0.291 A  
HETATM   17  S   UNL     1     -11.739  16.419  68.766  1.00  0.00     0.146 SA 
HETATM   18  C   UNL     1     -10.623  18.420  67.216  1.00  0.00    -0.435 A  
HETATM   19  C   UNL     1      -9.572  18.852  66.418  1.00  0.00    -0.351 A  
BRANCH  10  20
HETATM   20  C   UNL     1      -8.734  13.864  68.174  1.00  0.00    -0.182 C  
HETATM   21  O   UNL     1      -7.792  13.789  68.964  1.00  0.00    -0.042 OA 
BRANCH  20  22
HETATM   22  C   UNL     1      -8.868  12.766  67.167  1.00  0.00    -0.202 A  
HETATM   23  C   UNL     1      -8.747  10.685  65.239  1.00  0.00    -0.187 A  
HETATM   24  C   UNL     1      -9.760  11.647  65.180  1.00  0.00    -0.245 A  
HETATM   25  C   UNL     1      -7.880  11.780  67.228  1.00  0.00    -0.161 A  
HETATM   26  C   UNL     1      -9.822  12.687  66.139  1.00  0.00    -0.265 A  
HETATM   27  C   UNL     1      -7.804  10.774  66.264  1.00  0.00    -0.156 A  
BRANCH  23  28
HETATM   28  O   UNL     1      -8.736   9.686  64.273  1.00  0.00    -0.178 OA 
BRANCH  28  29
HETATM   29  C   UNL     1      -7.853   8.611  64.634  1.00  0.00    -0.129 C  
BRANCH  29  30
HETATM   30  C   UNL     1      -8.466   7.207  64.797  1.00  0.00     0.119 C  
BRANCH  30  31
HETATM   31  N   UNL     1      -8.297   6.716  66.194  1.00  0.00    -0.123 NA 
HETATM   32  C   UNL     1      -8.889   7.587  67.226  1.00  0.00    -0.124 C  
HETATM   33  C   UNL     1     -10.402   7.703  67.071  1.00  0.00    -0.400 C  
HETATM   34  C   UNL     1     -11.035   6.327  67.243  1.00  0.00    -0.455 C  
HETATM   35  C   UNL     1     -10.345   5.253  66.395  1.00  0.00    -0.315 C  
HETATM   36  C   UNL     1      -8.813   5.353  66.389  1.00  0.00    -0.123 C  
ENDBRANCH  30  31
ENDBRANCH  29  30
ENDBRANCH  28  29
ENDBRANCH  23  28
ENDBRANCH  20  22
ENDBRANCH  10  20
ENDBRANCH   6   9
TORSDOF 7
ENDMDL
MODEL       71
REMARK 921   NORMALIZED FREE ENERGY PREDICTED BY IDOCK:   -5.91 KCAL/MOL
REMARK 922        TOTAL FREE ENERGY PREDICTED BY IDOCK:  -10.40 KCAL/MOL
REMARK 923 INTER-LIGAND FREE ENERGY PREDICTED BY IDOCK:   -9.40 KCAL/MOL
REMARK 924 INTRA-LIGAND FREE ENERGY PREDICTED BY IDOCK:   -1.00 KCAL/MOL
REMARK 927      BINDING AFFINITY PREDICTED BY RF-SCORE:    0.00 PKD
ROOT
HETATM    1  O   UNL     1     -13.413  10.484  72.493  1.00  0.00    -0.569 OA 
HETATM    2  H   UNL     1     -13.862  10.671  73.309  1.00  0.00     0.000 HD 
HETATM    3  C   UNL     1     -13.009  11.476  71.652  1.00  0.00    -0.394 A  
HETATM    4  C   UNL     1     -12.352  11.203  70.459  1.00  0.00    -0.454 A  
HETATM    5  C   UNL     1     -11.900  12.259  69.652  1.00  0.00    -0.393 A  
HETATM    6  C   UNL     1     -12.113  13.600  70.016  1.00  0.00    -0.417 A  
HETATM    7  C   UNL     1     -12.839  13.835  71.200  1.00  0.00    -0.409 A  
HETATM    8  C   UNL     1     -13.268  12.782  72.021  1.00  0.00    -0.538 A  
ENDROOT
BRANCH   6   9
HETATM    9  C   UNL     1     -11.539  14.736  69.231  1.00  0.00    -0.303 A  
HETATM   10  C   UNL     1     -11.250  14.919  67.870  1.00  0.00    -0.324 A  
HETATM   11  C   UNL     1      -9.964  18.242  66.361  1.00  0.00    -0.385 A  
HETATM   12  C   UNL     1     -10.754  16.266  67.589  1.00  0.00    -0.311 A  
HETATM   13  O   UNL     1      -9.314  20.197  67.495  1.00  0.00    -0.350 OA 
HETATM   14  C   UNL     1     -10.592  17.005  68.759  1.00  0.00    -0.346 A  
HETATM   15  H   UNL     1      -9.094  20.601  66.664  1.00  0.00     0.000 HD 
HETATM   16  C   UNL     1     -10.453  16.932  66.366  1.00  0.00    -0.252 A  
HETATM   17  S   UNL     1     -11.038  16.113  70.136  1.00  0.00    -0.344 SA 
HETATM   18  C   UNL     1     -10.118  18.332  68.764  1.00  0.00    -0.393 A  
HETATM   19  C   UNL     1      -9.797  18.923  67.550  1.00  0.00    -0.327 A  
BRANCH  10  20
HETATM   20  C   UNL     1     -11.566  13.919  66.848  1.00  0.00    -0.378 C  
HETATM   21  O   UNL     1     -12.672  13.919  66.306  1.00  0.00    -0.399 OA 
BRANCH  20  22
HETATM   22  C   UNL     1     -10.593  12.870  66.410  1.00  0.00    -0.285 A  
HETATM   23  C   UNL     1      -9.038  10.641  65.588  1.00  0.00    -0.183 A  
HETATM   24  C   UNL     1      -8.503  11.596  66.459  1.00  0.00    -0.141 A  
HETATM   25  C   UNL     1     -11.102  11.923  65.518  1.00  0.00    -0.356 A  
HETATM   26  C   UNL     1      -9.277  12.707  66.873  1.00  0.00    -0.216 A  
HETATM   27  C   UNL     1     -10.347  10.813  65.137  1.00  0.00    -0.341 A  
BRANCH  23  28
HETATM   28  O   UNL     1      -8.232   9.572  65.215  1.00  0.00    -0.121 OA 
BRANCH  28  29
HETATM   29  C   UNL     1      -8.010   8.670  66.311  1.00  0.00    -0.102 C  
BRANCH  29  30
HETATM   30  C   UNL     1      -8.163   7.162  66.038  1.00  0.00    -0.129 C  
BRANCH  30  31
HETATM   31  N   UNL     1      -6.841   6.477  66.100  1.00  0.00    -0.056 NA 
HETATM   32  C   UNL     1      -6.660   5.402  65.108  1.00  0.00    -0.040 C  
HETATM   33  C   UNL     1      -6.718   5.933  63.679  1.00  0.00    -0.037 C  
HETATM   34  C   UNL     1      -5.582   6.926  63.462  1.00  0.00    -0.035 C  
HETATM   35  C   UNL     1      -5.498   7.976  64.575  1.00  0.00    -0.040 C  
HETATM   36  C   UNL     1      -5.707   7.407  65.985  1.00  0.00    -0.036 C  
ENDBRANCH  30  31
ENDBRANCH  29  30
ENDBRANCH  28  29
ENDBRANCH  23  28
ENDBRANCH  20  22
ENDBRANCH  10  20
ENDBRANCH   6   9
TORSDOF 7
ENDMDL
MODEL       72
REMARK 921   NORMALIZED FREE ENERGY PREDICTED BY IDOCK:   -5.90 KCAL/MOL
REMARK 922        TOTAL FREE ENERGY PREDICTED BY IDOCK:  -10.40 KCAL/MOL
REMARK 923 INTER-LIGAND FREE ENERGY PREDICTED BY IDOCK:   -8.54 KCAL/MOL
REMARK 924 INTRA-LIGAND FREE ENERGY PREDICTED BY IDOCK:   -1.85 KCAL/MOL
REMARK 927      BINDING AFFINITY PREDICTED BY RF-SCORE:    0.00 PKD
ROOT
HETATM    1  O   UNL     1      -8.948  11.561  64.449  1.00  0.00    -0.392 OA 
HETATM    2  H   UNL     1      -9.371  11.185  63.685  1.00  0.00     0.000 HD 
HETATM    3  C   UNL     1      -9.157  11.069  65.701  1.00  0.00    -0.206 A  
HETATM    4  C   UNL     1      -8.538  11.618  66.817  1.00  0.00    -0.180 A  
HETATM    5  C   UNL     1      -8.736  11.041  68.082  1.00  0.00    -0.141 A  
HETATM    6  C   UNL     1      -9.567   9.920  68.252  1.00  0.00    -0.151 A  
HETATM    7  C   UNL     1     -10.227   9.432  67.107  1.00  0.00    -0.319 A  
HETATM    8  C   UNL     1     -10.010   9.991  65.838  1.00  0.00    -0.339 A  
ENDROOT
BRANCH   6   9
HETATM    9  C   UNL     1      -9.698   9.221  69.567  1.00  0.00    -0.173 A  
HETATM   10  C   UNL     1     -10.675   9.239  70.575  1.00  0.00    -0.313 A  
HETATM   11  C   UNL     1     -10.578   6.983  73.718  1.00  0.00    -0.325 A  
HETATM   12  C   UNL     1     -10.367   8.303  71.656  1.00  0.00    -0.289 A  
HETATM   13  O   UNL     1      -8.854   5.547  74.422  1.00  0.00    -0.117 OA 
HETATM   14  C   UNL     1      -9.125   7.698  71.470  1.00  0.00    -0.132 A  
HETATM   15  H   UNL     1      -9.362   5.321  75.192  1.00  0.00     0.000 HD 
HETATM   16  C   UNL     1     -11.108   7.898  72.803  1.00  0.00    -0.462 A  
HETATM   17  S   UNL     1      -8.374   8.227  70.039  1.00  0.00    -0.123 SA 
HETATM   18  C   UNL     1      -8.589   6.761  72.375  1.00  0.00    -0.126 A  
HETATM   19  C   UNL     1      -9.331   6.432  73.500  1.00  0.00    -0.134 A  
BRANCH  10  20
HETATM   20  C   UNL     1     -11.924   9.994  70.460  1.00  0.00    -0.272 C  
HETATM   21  O   UNL     1     -13.005   9.404  70.465  1.00  0.00     0.081 OA 
BRANCH  20  22
HETATM   22  C   UNL     1     -11.963  11.485  70.336  1.00  0.00    -0.459 A  
HETATM   23  C   UNL     1     -12.335  14.300  70.329  1.00  0.00    -0.354 A  
HETATM   24  C   UNL     1     -11.938  13.635  69.165  1.00  0.00    -0.394 A  
HETATM   25  C   UNL     1     -12.331  12.168  71.497  1.00  0.00     0.038 A  
HETATM   26  C   UNL     1     -11.754  12.231  69.164  1.00  0.00    -0.377 A  
HETATM   27  C   UNL     1     -12.540  13.548  71.486  1.00  0.00    -0.358 A  
BRANCH  23  28
HETATM   28  O   UNL     1     -12.498  15.679  70.272  1.00  0.00    -0.410 OA 
BRANCH  28  29
HETATM   29  C   UNL     1     -11.239  16.354  70.111  1.00  0.00    -0.250 C  
BRANCH  29  30
HETATM   30  C   UNL     1     -10.857  16.825  68.695  1.00  0.00    -0.336 C  
BRANCH  30  31
HETATM   31  N   UNL     1      -9.451  17.318  68.664  1.00  0.00    -0.274 NA 
HETATM   32  C   UNL     1      -8.442  16.318  69.057  1.00  0.00    -0.244 C  
HETATM   33  C   UNL     1      -8.422  15.128  68.104  1.00  0.00    -0.152 C  
HETATM   34  C   UNL     1      -8.045  15.605  66.706  1.00  0.00    -0.280 C  
HETATM   35  C   UNL     1      -8.865  16.820  66.259  1.00  0.00    -0.334 C  
HETATM   36  C   UNL     1      -9.067  17.873  67.358  1.00  0.00    -0.245 C  
ENDBRANCH  30  31
ENDBRANCH  29  30
ENDBRANCH  28  29
ENDBRANCH  23  28
ENDBRANCH  20  22
ENDBRANCH  10  20
ENDBRANCH   6   9
TORSDOF 7
ENDMDL
MODEL       73
REMARK 921   NORMALIZED FREE ENERGY PREDICTED BY IDOCK:   -5.90 KCAL/MOL
REMARK 922        TOTAL FREE ENERGY PREDICTED BY IDOCK:  -10.39 KCAL/MOL
REMARK 923 INTER-LIGAND FREE ENERGY PREDICTED BY IDOCK:   -8.85 KCAL/MOL
REMARK 924 INTRA-LIGAND FREE ENERGY PREDICTED BY IDOCK:   -1.55 KCAL/MOL
REMARK 927      BINDING AFFINITY PREDICTED BY RF-SCORE:    0.00 PKD
ROOT
HETATM    1  O   UNL     1      -8.262  20.350  66.135  1.00  0.00    -0.529 OA 
HETATM    2  H   UNL     1      -7.400  20.274  65.742  1.00  0.00     0.000 HD 
HETATM    3  C   UNL     1      -8.943  19.261  66.588  1.00  0.00    -0.338 A  
HETATM    4  C   UNL     1     -10.203  19.371  67.162  1.00  0.00    -0.521 A  
HETATM    5  C   UNL     1     -10.843  18.229  67.670  1.00  0.00    -0.272 A  
HETATM    6  C   UNL     1     -10.241  16.960  67.595  1.00  0.00    -0.306 A  
HETATM    7  C   UNL     1      -8.992  16.880  66.949  1.00  0.00    -0.244 A  
HETATM    8  C   UNL     1      -8.340  18.024  66.465  1.00  0.00    -0.293 A  
ENDROOT
BRANCH   6   9
HETATM    9  C   UNL     1     -10.852  15.754  68.233  1.00  0.00    -0.305 A  
HETATM   10  C   UNL     1     -11.144  14.461  67.769  1.00  0.00    -0.299 A  
HETATM   11  C   UNL     1     -12.539  11.626  70.003  1.00  0.00    -0.048 A  
HETATM   12  C   UNL     1     -11.685  13.607  68.825  1.00  0.00    -0.383 A  
HETATM   13  O   UNL     1     -13.258  11.760  72.238  1.00  0.00    -0.561 OA 
HETATM   14  C   UNL     1     -11.875  14.316  70.009  1.00  0.00    -0.314 A  
HETATM   15  H   UNL     1     -13.490  10.839  72.214  1.00  0.00     0.000 HD 
HETATM   16  C   UNL     1     -12.005  12.219  68.854  1.00  0.00    -0.300 A  
HETATM   17  S   UNL     1     -11.402  15.943  69.854  1.00  0.00    -0.360 SA 
HETATM   18  C   UNL     1     -12.395  13.725  71.178  1.00  0.00    -0.428 A  
HETATM   19  C   UNL     1     -12.732  12.380  71.143  1.00  0.00    -0.240 A  
BRANCH  10  20
HETATM   20  C   UNL     1     -10.791  14.000  66.425  1.00  0.00    -0.299 C  
HETATM   21  O   UNL     1     -11.279  14.548  65.436  1.00  0.00    -0.318 OA 
BRANCH  20  22
HETATM   22  C   UNL     1      -9.843  12.869  66.177  1.00  0.00    -0.270 A  
HETATM   23  C   UNL     1      -8.350  10.516  65.630  1.00  0.00    -0.167 A  
HETATM   24  C   UNL     1      -7.963  11.378  66.662  1.00  0.00    -0.148 A  
HETATM   25  C   UNL     1     -10.199  12.013  65.132  1.00  0.00    -0.308 A  
HETATM   26  C   UNL     1      -8.706  12.550  66.939  1.00  0.00    -0.182 A  
HETATM   27  C   UNL     1      -9.481  10.843  64.881  1.00  0.00    -0.277 A  
BRANCH  23  28
HETATM   28  O   UNL     1      -7.581   9.381  65.402  1.00  0.00    -0.096 OA 
BRANCH  28  29
HETATM   29  C   UNL     1      -8.397   8.203  65.294  1.00  0.00    -0.152 C  
BRANCH  29  30
HETATM   30  C   UNL     1      -8.865   7.535  66.600  1.00  0.00    -0.146 C  
BRANCH  30  31
HETATM   31  N   UNL     1      -7.789   6.673  67.167  1.00  0.00    -0.104 NA 
HETATM   32  C   UNL     1      -7.484   6.928  68.586  1.00  0.00    -0.099 C  
HETATM   33  C   UNL     1      -8.681   6.638  69.485  1.00  0.00    -0.135 C  
HETATM   34  C   UNL     1      -9.052   5.164  69.374  1.00  0.00    -0.144 C  
HETATM   35  C   UNL     1      -9.164   4.694  67.919  1.00  0.00    -0.154 C  
HETATM   36  C   UNL     1      -8.059   5.237  67.003  1.00  0.00    -0.104 C  
ENDBRANCH  30  31
ENDBRANCH  29  30
ENDBRANCH  28  29
ENDBRANCH  23  28
ENDBRANCH  20  22
ENDBRANCH  10  20
ENDBRANCH   6   9
TORSDOF 7
ENDMDL
MODEL       74
REMARK 921   NORMALIZED FREE ENERGY PREDICTED BY IDOCK:   -5.90 KCAL/MOL
REMARK 922        TOTAL FREE ENERGY PREDICTED BY IDOCK:  -10.39 KCAL/MOL
REMARK 923 INTER-LIGAND FREE ENERGY PREDICTED BY IDOCK:   -7.97 KCAL/MOL
REMARK 924 INTRA-LIGAND FREE ENERGY PREDICTED BY IDOCK:   -2.42 KCAL/MOL
REMARK 927      BINDING AFFINITY PREDICTED BY RF-SCORE:    0.00 PKD
ROOT
HETATM    1  O   UNL     1     -12.829  15.092  63.932  1.00  0.00    -0.679 OA 
HETATM    2  H   UNL     1     -13.490  15.017  63.253  1.00  0.00     0.000 HD 
HETATM    3  C   UNL     1     -11.983  14.066  64.228  1.00  0.00    -0.435 A  
HETATM    4  C   UNL     1     -11.017  14.176  65.220  1.00  0.00    -0.339 A  
HETATM    5  C   UNL     1     -10.127  13.114  65.450  1.00  0.00    -0.260 A  
HETATM    6  C   UNL     1     -10.202  11.924  64.706  1.00  0.00    -0.314 A  
HETATM    7  C   UNL     1     -11.235  11.827  63.753  1.00  0.00    -0.518 A  
HETATM    8  C   UNL     1     -12.108  12.896  63.504  1.00  0.00    -0.633 A  
ENDROOT
BRANCH   6   9
HETATM    9  C   UNL     1      -9.192  10.831  64.855  1.00  0.00    -0.212 A  
HETATM   10  C   UNL     1      -8.318  10.461  65.888  1.00  0.00    -0.152 A  
HETATM   11  C   UNL     1      -6.058   7.321  65.786  1.00  0.00    -0.037 A  
HETATM   12  C   UNL     1      -7.568   9.247  65.566  1.00  0.00    -0.091 A  
HETATM   13  O   UNL     1      -5.703   5.845  63.990  1.00  0.00    -0.020 OA 
HETATM   14  C   UNL     1      -7.830   8.814  64.268  1.00  0.00    -0.133 A  
HETATM   15  H   UNL     1      -5.090   5.352  64.522  1.00  0.00     0.000 HD 
HETATM   16  C   UNL     1      -6.676   8.448  66.337  1.00  0.00    -0.066 A  
HETATM   17  S   UNL     1      -8.950   9.823  63.480  1.00  0.00    -0.221 SA 
HETATM   18  C   UNL     1      -7.228   7.670  63.708  1.00  0.00    -0.085 A  
HETATM   19  C   UNL     1      -6.332   6.949  64.485  1.00  0.00    -0.036 A  
BRANCH  10  20
HETATM   20  C   UNL     1      -8.292  11.133  67.189  1.00  0.00    -0.136 C  
HETATM   21  O   UNL     1      -7.557  12.105  67.367  1.00  0.00    -0.136 OA 
BRANCH  20  22
HETATM   22  C   UNL     1      -9.134  10.695  68.346  1.00  0.00    -0.156 A  
HETATM   23  C   UNL     1     -10.490   9.576  70.575  1.00  0.00    -0.296 A  
HETATM   24  C   UNL     1     -11.210  10.160  69.527  1.00  0.00    -0.288 A  
HETATM   25  C   UNL     1      -8.429  10.134  69.414  1.00  0.00    -0.179 A  
HETATM   26  C   UNL     1     -10.537  10.717  68.413  1.00  0.00    -0.231 A  
HETATM   27  C   UNL     1      -9.098   9.560  70.496  1.00  0.00    -0.276 A  
BRANCH  23  28
HETATM   28  O   UNL     1     -11.204   9.047  71.644  1.00  0.00    -0.312 OA 
BRANCH  28  29
HETATM   29  C   UNL     1     -11.492   7.652  71.448  1.00  0.00    -0.264 C  
BRANCH  29  30
HETATM   30  C   UNL     1     -10.341   6.745  70.975  1.00  0.00    -0.206 C  
BRANCH  30  31
HETATM   31  N   UNL     1     -10.820   5.775  69.950  1.00  0.00    -0.347 NA 
HETATM   32  C   UNL     1     -11.145   6.375  68.643  1.00  0.00    -0.311 C  
HETATM   33  C   UNL     1      -9.921   7.007  67.989  1.00  0.00    -0.178 C  
HETATM   34  C   UNL     1      -8.874   5.930  67.729  1.00  0.00    -0.109 C  
HETATM   35  C   UNL     1      -8.611   5.056  68.961  1.00  0.00    -0.091 C  
HETATM   36  C   UNL     1      -9.882   4.665  69.728  1.00  0.00    -0.226 C  
ENDBRANCH  30  31
ENDBRANCH  29  30
ENDBRANCH  28  29
ENDBRANCH  23  28
ENDBRANCH  20  22
ENDBRANCH  10  20
ENDBRANCH   6   9
TORSDOF 7
ENDMDL
MODEL       75
REMARK 921   NORMALIZED FREE ENERGY PREDICTED BY IDOCK:   -5.90 KCAL/MOL
REMARK 922        TOTAL FREE ENERGY PREDICTED BY IDOCK:  -10.39 KCAL/MOL
REMARK 923 INTER-LIGAND FREE ENERGY PREDICTED BY IDOCK:   -8.98 KCAL/MOL
REMARK 924 INTRA-LIGAND FREE ENERGY PREDICTED BY IDOCK:   -1.41 KCAL/MOL
REMARK 927      BINDING AFFINITY PREDICTED BY RF-SCORE:    0.00 PKD
ROOT
HETATM    1  O   UNL     1     -13.706  12.432  72.240  1.00  0.00    -0.497 OA 
HETATM    2  H   UNL     1     -13.539  13.302  71.900  1.00  0.00     0.000 HD 
HETATM    3  C   UNL     1     -13.091  11.329  71.729  1.00  0.00    -0.422 A  
HETATM    4  C   UNL     1     -13.336  10.056  72.227  1.00  0.00    -0.387 A  
HETATM    5  C   UNL     1     -12.634   8.955  71.710  1.00  0.00    -0.420 A  
HETATM    6  C   UNL     1     -11.693   9.109  70.677  1.00  0.00    -0.256 A  
HETATM    7  C   UNL     1     -11.520  10.406  70.155  1.00  0.00    -0.396 A  
HETATM    8  C   UNL     1     -12.201  11.510  70.689  1.00  0.00    -0.473 A  
ENDROOT
BRANCH   6   9
HETATM    9  C   UNL     1     -10.853   7.970  70.193  1.00  0.00    -0.242 A  
HETATM   10  C   UNL     1      -9.698   7.894  69.400  1.00  0.00    -0.170 A  
HETATM   11  C   UNL     1      -7.792   4.607  68.667  1.00  0.00    -0.079 A  
HETATM   12  C   UNL     1      -9.209   6.522  69.272  1.00  0.00    -0.139 A  
HETATM   13  O   UNL     1      -8.419   2.410  69.226  1.00  0.00    -0.054 OA 
HETATM   14  C   UNL     1     -10.069   5.613  69.883  1.00  0.00    -0.222 A  
HETATM   15  H   UNL     1      -7.638   2.082  68.796  1.00  0.00     0.000 HD 
HETATM   16  C   UNL     1      -8.030   5.985  68.678  1.00  0.00    -0.104 A  
HETATM   17  S   UNL     1     -11.403   6.389  70.598  1.00  0.00    -0.356 SA 
HETATM   18  C   UNL     1      -9.831   4.225  69.894  1.00  0.00    -0.267 A  
HETATM   19  C   UNL     1      -8.690   3.745  69.265  1.00  0.00    -0.085 A  
BRANCH  10  20
HETATM   20  C   UNL     1      -8.993   9.078  68.903  1.00  0.00    -0.140 C  
HETATM   21  O   UNL     1      -8.327   9.769  69.675  1.00  0.00    -0.139 OA 
BRANCH  20  22
HETATM   22  C   UNL     1      -9.036   9.507  67.471  1.00  0.00    -0.142 A  
HETATM   23  C   UNL     1      -9.178  10.667  64.883  1.00  0.00    -0.217 A  
HETATM   24  C   UNL     1      -9.721   9.401  65.122  1.00  0.00    -0.106 A  
HETATM   25  C   UNL     1      -8.473  10.758  67.207  1.00  0.00    -0.124 A  
HETATM   26  C   UNL     1      -9.654   8.820  66.412  1.00  0.00    -0.316 A  
HETATM   27  C   UNL     1      -8.567  11.339  65.942  1.00  0.00    -0.096 A  
BRANCH  23  28
HETATM   28  O   UNL     1      -9.271  11.187  63.597  1.00  0.00    -0.203 OA 
BRANCH  28  29
HETATM   29  C   UNL     1     -10.309  12.177  63.501  1.00  0.00    -0.441 C  
BRANCH  29  30
HETATM   30  C   UNL     1     -11.311  12.276  64.666  1.00  0.00    -0.322 C  
BRANCH  30  31
HETATM   31  N   UNL     1     -11.783  13.679  64.839  1.00  0.00    -0.345 NA 
HETATM   32  C   UNL     1     -12.755  13.869  65.931  1.00  0.00    -0.421 C  
HETATM   33  C   UNL     1     -12.154  13.527  67.291  1.00  0.00    -0.367 C  
HETATM   34  C   UNL     1     -10.985  14.462  67.577  1.00  0.00    -0.299 C  
HETATM   35  C   UNL     1     -10.004  14.551  66.403  1.00  0.00    -0.304 C  
HETATM   36  C   UNL     1     -10.682  14.635  65.029  1.00  0.00    -0.430 C  
ENDBRANCH  30  31
ENDBRANCH  29  30
ENDBRANCH  28  29
ENDBRANCH  23  28
ENDBRANCH  20  22
ENDBRANCH  10  20
ENDBRANCH   6   9
TORSDOF 7
ENDMDL
MODEL       76
REMARK 921   NORMALIZED FREE ENERGY PREDICTED BY IDOCK:   -5.87 KCAL/MOL
REMARK 922        TOTAL FREE ENERGY PREDICTED BY IDOCK:  -10.35 KCAL/MOL
REMARK 923 INTER-LIGAND FREE ENERGY PREDICTED BY IDOCK:   -8.51 KCAL/MOL
REMARK 924 INTRA-LIGAND FREE ENERGY PREDICTED BY IDOCK:   -1.84 KCAL/MOL
REMARK 927      BINDING AFFINITY PREDICTED BY RF-SCORE:    0.00 PKD
ROOT
HETATM    1  O   UNL     1      -5.430  14.266  67.580  1.00  0.00    -0.337 OA 
HETATM    2  H   UNL     1      -5.446  14.555  66.675  1.00  0.00     0.000 HD 
HETATM    3  C   UNL     1      -6.193  13.224  68.015  1.00  0.00    -0.129 A  
HETATM    4  C   UNL     1      -6.170  12.801  69.337  1.00  0.00    -0.112 A  
HETATM    5  C   UNL     1      -6.928  11.685  69.728  1.00  0.00     0.132 A  
HETATM    6  C   UNL     1      -7.732  10.990  68.808  1.00  0.00    -0.135 A  
HETATM    7  C   UNL     1      -7.779  11.489  67.492  1.00  0.00    -0.132 A  
HETATM    8  C   UNL     1      -7.002  12.587  67.093  1.00  0.00    -0.060 A  
ENDROOT
BRANCH   6   9
HETATM    9  C   UNL     1      -8.454   9.733  69.176  1.00  0.00    -0.143 A  
HETATM   10  C   UNL     1      -9.761   9.463  69.608  1.00  0.00    -0.202 A  
HETATM   11  C   UNL     1     -11.154   5.900  70.192  1.00  0.00    -0.395 A  
HETATM   12  C   UNL     1     -10.002   8.030  69.771  1.00  0.00    -0.191 A  
HETATM   13  O   UNL     1      -9.989   3.858  70.130  1.00  0.00    -0.162 OA 
HETATM   14  C   UNL     1      -8.842   7.289  69.557  1.00  0.00    -0.137 A  
HETATM   15  H   UNL     1     -10.789   3.400  70.358  1.00  0.00     0.000 HD 
HETATM   16  C   UNL     1     -11.185   7.293  70.068  1.00  0.00    -0.234 A  
HETATM   17  S   UNL     1      -7.522   8.285  69.157  1.00  0.00    -0.088 SA 
HETATM   18  C   UNL     1      -8.803   5.885  69.661  1.00  0.00    -0.131 A  
HETATM   19  C   UNL     1      -9.972   5.215  69.994  1.00  0.00    -0.256 A  
BRANCH  10  20
HETATM   20  C   UNL     1     -10.792  10.498  69.722  1.00  0.00    -0.281 C  
HETATM   21  O   UNL     1     -11.462  10.591  70.752  1.00  0.00    -0.331 OA 
BRANCH  20  22
HETATM   22  C   UNL     1     -11.083  11.477  68.630  1.00  0.00    -0.291 A  
HETATM   23  C   UNL     1     -11.879  13.493  66.795  1.00  0.00    -0.406 A  
HETATM   24  C   UNL     1     -11.611  12.195  66.349  1.00  0.00    -0.429 A  
HETATM   25  C   UNL     1     -11.327  12.786  69.054  1.00  0.00    -0.346 A  
HETATM   26  C   UNL     1     -11.215  11.187  67.262  1.00  0.00    -0.347 A  
HETATM   27  C   UNL     1     -11.745  13.769  68.156  1.00  0.00    -0.392 A  
BRANCH  23  28
HETATM   28  O   UNL     1     -12.262  14.442  65.854  1.00  0.00    -0.392 OA 
BRANCH  28  29
HETATM   29  C   UNL     1     -11.128  14.967  65.143  1.00  0.00    -0.401 C  
BRANCH  29  30
HETATM   30  C   UNL     1     -10.656  16.388  65.501  1.00  0.00    -0.330 C  
BRANCH  30  31
HETATM   31  N   UNL     1      -9.971  16.400  66.825  1.00  0.00    -0.261 NA 
HETATM   32  C   UNL     1      -8.563  16.836  66.783  1.00  0.00    -0.232 C  
HETATM   33  C   UNL     1      -8.430  18.277  66.303  1.00  0.00    -0.216 C  
HETATM   34  C   UNL     1      -9.148  19.204  67.277  1.00  0.00    -0.334 C  
HETATM   35  C   UNL     1     -10.566  18.725  67.606  1.00  0.00    -0.481 C  
HETATM   36  C   UNL     1     -10.677  17.211  67.829  1.00  0.00    -0.329 C  
ENDBRANCH  30  31
ENDBRANCH  29  30
ENDBRANCH  28  29
ENDBRANCH  23  28
ENDBRANCH  20  22
ENDBRANCH  10  20
ENDBRANCH   6   9
TORSDOF 7
ENDMDL
MODEL       77
REMARK 921   NORMALIZED FREE ENERGY PREDICTED BY IDOCK:   -5.86 KCAL/MOL
REMARK 922        TOTAL FREE ENERGY PREDICTED BY IDOCK:  -10.34 KCAL/MOL
REMARK 923 INTER-LIGAND FREE ENERGY PREDICTED BY IDOCK:   -8.68 KCAL/MOL
REMARK 924 INTRA-LIGAND FREE ENERGY PREDICTED BY IDOCK:   -1.66 KCAL/MOL
REMARK 927      BINDING AFFINITY PREDICTED BY RF-SCORE:    0.00 PKD
ROOT
HETATM    1  O   UNL     1      -6.057   7.654  64.656  1.00  0.00    -0.038 OA 
HETATM    2  H   UNL     1      -5.132   7.732  64.856  1.00  0.00     0.000 HD 
HETATM    3  C   UNL     1      -7.017   7.854  65.601  1.00  0.00    -0.053 A  
HETATM    4  C   UNL     1      -8.370   7.741  65.308  1.00  0.00    -0.128 A  
HETATM    5  C   UNL     1      -9.326   8.014  66.299  1.00  0.00    -0.246 A  
HETATM    6  C   UNL     1      -8.944   8.386  67.600  1.00  0.00    -0.141 A  
HETATM    7  C   UNL     1      -7.564   8.428  67.875  1.00  0.00    -0.099 A  
HETATM    8  C   UNL     1      -6.607   8.180  66.879  1.00  0.00    -0.057 A  
ENDROOT
BRANCH   6   9
HETATM    9  C   UNL     1      -9.944   8.794  68.634  1.00  0.00    -0.182 A  
HETATM   10  C   UNL     1     -10.733   9.941  68.813  1.00  0.00    -0.247 A  
HETATM   11  C   UNL     1     -13.373  10.334  71.615  1.00  0.00    -0.451 A  
HETATM   12  C   UNL     1     -11.623   9.822  69.968  1.00  0.00    -0.185 A  
HETATM   13  O   UNL     1     -13.806   8.884  73.416  1.00  0.00    -1.192 OA 
HETATM   14  C   UNL     1     -11.396   8.640  70.668  1.00  0.00    -0.247 A  
HETATM   15  H   UNL     1     -14.473   9.482  73.731  1.00  0.00     0.000 HD 
HETATM   16  C   UNL     1     -12.664  10.663  70.456  1.00  0.00    -0.395 A  
HETATM   17  S   UNL     1     -10.170   7.705  69.949  1.00  0.00    -0.220 SA 
HETATM   18  C   UNL     1     -12.116   8.288  71.827  1.00  0.00    -0.364 A  
HETATM   19  C   UNL     1     -13.091   9.162  72.288  1.00  0.00    -0.438 A  
BRANCH  10  20
HETATM   20  C   UNL     1     -10.759  11.047  67.854  1.00  0.00    -0.219 C  
HETATM   21  O   UNL     1     -11.682  11.139  67.043  1.00  0.00    -0.460 OA 
BRANCH  20  22
HETATM   22  C   UNL     1      -9.699  12.102  67.802  1.00  0.00    -0.197 A  
HETATM   23  C   UNL     1      -7.876  14.244  67.410  1.00  0.00    -0.187 A  
HETATM   24  C   UNL     1      -7.414  12.981  67.794  1.00  0.00    -0.146 A  
HETATM   25  C   UNL     1     -10.147  13.377  67.447  1.00  0.00    -0.237 A  
HETATM   26  C   UNL     1      -8.320  11.910  67.988  1.00  0.00    -0.160 A  
HETATM   27  C   UNL     1      -9.248  14.422  67.227  1.00  0.00    -0.214 A  
BRANCH  23  28
HETATM   28  O   UNL     1      -6.942  15.257  67.236  1.00  0.00    -0.193 OA 
BRANCH  28  29
HETATM   29  C   UNL     1      -6.896  16.135  68.373  1.00  0.00    -0.128 C  
BRANCH  29  30
HETATM   30  C   UNL     1      -7.461  17.558  68.201  1.00  0.00    -0.218 C  
BRANCH  30  31
HETATM   31  N   UNL     1      -7.098  18.112  66.866  1.00  0.00    -0.187 NA 
HETATM   32  C   UNL     1      -8.029  19.133  66.353  1.00  0.00    -0.294 C  
HETATM   33  C   UNL     1      -8.070  20.366  67.250  1.00  0.00    -0.384 C  
HETATM   34  C   UNL     1      -6.689  21.011  67.288  1.00  0.00    -0.430 C  
HETATM   35  C   UNL     1      -5.575  19.997  67.574  1.00  0.00    -0.191 C  
HETATM   36  C   UNL     1      -5.737  18.666  66.826  1.00  0.00    -0.150 C  
ENDBRANCH  30  31
ENDBRANCH  29  30
ENDBRANCH  28  29
ENDBRANCH  23  28
ENDBRANCH  20  22
ENDBRANCH  10  20
ENDBRANCH   6   9
TORSDOF 7
ENDMDL
MODEL       78
REMARK 921   NORMALIZED FREE ENERGY PREDICTED BY IDOCK:   -5.83 KCAL/MOL
REMARK 922        TOTAL FREE ENERGY PREDICTED BY IDOCK:  -10.29 KCAL/MOL
REMARK 923 INTER-LIGAND FREE ENERGY PREDICTED BY IDOCK:   -9.24 KCAL/MOL
REMARK 924 INTRA-LIGAND FREE ENERGY PREDICTED BY IDOCK:   -1.05 KCAL/MOL
REMARK 927      BINDING AFFINITY PREDICTED BY RF-SCORE:    0.00 PKD
ROOT
HETATM    1  O   UNL     1      -5.201  10.016  70.821  1.00  0.00    -0.043 OA 
HETATM    2  H   UNL     1      -4.486  10.580  71.091  1.00  0.00     0.000 HD 
HETATM    3  C   UNL     1      -6.252  10.484  70.092  1.00  0.00    -0.117 A  
HETATM    4  C   UNL     1      -7.297   9.659  69.698  1.00  0.00    -0.093 A  
HETATM    5  C   UNL     1      -8.329  10.172  68.896  1.00  0.00    -0.130 A  
HETATM    6  C   UNL     1      -8.341  11.519  68.494  1.00  0.00    -0.146 A  
HETATM    7  C   UNL     1      -7.298  12.339  68.967  1.00  0.00     0.017 A  
HETATM    8  C   UNL     1      -6.252  11.822  69.746  1.00  0.00    -0.138 A  
ENDROOT
BRANCH   6   9
HETATM    9  C   UNL     1      -9.367  12.055  67.547  1.00  0.00    -0.179 A  
HETATM   10  C   UNL     1     -10.518  12.839  67.715  1.00  0.00    -0.228 A  
HETATM   11  C   UNL     1     -12.695  14.139  64.792  1.00  0.00    -0.221 A  
HETATM   12  C   UNL     1     -11.156  13.161  66.439  1.00  0.00    -0.311 A  
HETATM   13  O   UNL     1     -12.516  13.619  62.505  1.00  0.00    -0.613 OA 
HETATM   14  C   UNL     1     -10.522  12.523  65.375  1.00  0.00    -0.282 A  
HETATM   15  H   UNL     1     -13.269  14.169  62.326  1.00  0.00     0.000 HD 
HETATM   16  C   UNL     1     -12.253  14.010  66.112  1.00  0.00    -0.494 A  
HETATM   17  S   UNL     1      -9.200  11.589  65.897  1.00  0.00    -0.181 SA 
HETATM   18  C   UNL     1     -10.947  12.661  64.039  1.00  0.00    -0.448 A  
HETATM   19  C   UNL     1     -12.047  13.465  63.776  1.00  0.00    -0.456 A  
BRANCH  10  20
HETATM   20  C   UNL     1     -10.923  13.391  69.010  1.00  0.00    -0.224 C  
HETATM   21  O   UNL     1     -10.658  14.560  69.293  1.00  0.00    -0.250 OA 
BRANCH  20  22
HETATM   22  C   UNL     1     -11.664  12.593  70.036  1.00  0.00    -0.289 A  
HETATM   23  C   UNL     1     -13.134  10.831  71.709  1.00  0.00    -0.468 A  
HETATM   24  C   UNL     1     -13.257  12.216  71.857  1.00  0.00    -0.474 A  
HETATM   25  C   UNL     1     -11.531  11.207  69.921  1.00  0.00    -0.386 A  
HETATM   26  C   UNL     1     -12.527  13.097  71.023  1.00  0.00    -0.406 A  
HETATM   27  C   UNL     1     -12.275  10.341  70.725  1.00  0.00    -0.447 A  
BRANCH  23  28
HETATM   28  O   UNL     1     -13.873  10.014  72.556  1.00  0.00    -0.176 OA 
BRANCH  28  29
HETATM   29  C   UNL     1     -13.258   8.725  72.716  1.00  0.00    -0.144 C  
BRANCH  29  30
HETATM   30  C   UNL     1     -13.090   7.852  71.458  1.00  0.00    -0.311 C  
BRANCH  30  31
HETATM   31  N   UNL     1     -12.220   6.676  71.743  1.00  0.00    -0.350 NA 
HETATM   32  C   UNL     1     -11.398   6.231  70.603  1.00  0.00    -0.343 C  
HETATM   33  C   UNL     1     -10.409   7.306  70.163  1.00  0.00    -0.221 C  
HETATM   34  C   UNL     1      -9.447   7.607  71.306  1.00  0.00    -0.166 C  
HETATM   35  C   UNL     1     -10.171   7.852  72.635  1.00  0.00    -0.361 C  
HETATM   36  C   UNL     1     -11.334   6.885  72.898  1.00  0.00    -0.162 C  
ENDBRANCH  30  31
ENDBRANCH  29  30
ENDBRANCH  28  29
ENDBRANCH  23  28
ENDBRANCH  20  22
ENDBRANCH  10  20
ENDBRANCH   6   9
TORSDOF 7
ENDMDL
MODEL       79
REMARK 921   NORMALIZED FREE ENERGY PREDICTED BY IDOCK:   -5.81 KCAL/MOL
REMARK 922        TOTAL FREE ENERGY PREDICTED BY IDOCK:  -10.27 KCAL/MOL
REMARK 923 INTER-LIGAND FREE ENERGY PREDICTED BY IDOCK:   -7.43 KCAL/MOL
REMARK 924 INTRA-LIGAND FREE ENERGY PREDICTED BY IDOCK:   -2.85 KCAL/MOL
REMARK 927      BINDING AFFINITY PREDICTED BY RF-SCORE:    0.00 PKD
ROOT
HETATM    1  O   UNL     1     -10.892   7.496  74.048  1.00  0.00    -0.511 OA 
HETATM    2  H   UNL     1     -11.742   7.192  74.344  1.00  0.00     0.000 HD 
HETATM    3  C   UNL     1     -10.689   7.936  72.775  1.00  0.00    -0.371 A  
HETATM    4  C   UNL     1      -9.447   8.380  72.341  1.00  0.00    -0.365 A  
HETATM    5  C   UNL     1      -9.298   8.881  71.038  1.00  0.00    -0.313 A  
HETATM    6  C   UNL     1     -10.383   8.928  70.145  1.00  0.00    -0.228 A  
HETATM    7  C   UNL     1     -11.611   8.410  70.601  1.00  0.00    -0.205 A  
HETATM    8  C   UNL     1     -11.768   7.933  71.911  1.00  0.00    -0.342 A  
ENDROOT
BRANCH   6   9
HETATM    9  C   UNL     1     -10.273   9.564  68.797  1.00  0.00    -0.198 A  
HETATM   10  C   UNL     1     -10.134   9.052  67.497  1.00  0.00    -0.285 A  
HETATM   11  C   UNL     1     -10.143  11.232  64.301  1.00  0.00    -0.366 A  
HETATM   12  C   UNL     1     -10.145  10.107  66.486  1.00  0.00    -0.296 A  
HETATM   13  O   UNL     1     -10.146  13.579  64.144  1.00  0.00    -0.760 OA 
HETATM   14  C   UNL     1     -10.186  11.373  67.067  1.00  0.00    -0.213 A  
HETATM   15  H   UNL     1     -10.120  13.511  63.196  1.00  0.00     0.000 HD 
HETATM   16  C   UNL     1     -10.153  10.059  65.061  1.00  0.00    -0.228 A  
HETATM   17  S   UNL     1     -10.229  11.285  68.765  1.00  0.00    -0.184 SA 
HETATM   18  C   UNL     1     -10.196  12.561  66.311  1.00  0.00    -0.265 A  
HETATM   19  C   UNL     1     -10.159  12.462  64.927  1.00  0.00    -0.236 A  
BRANCH  10  20
HETATM   20  C   UNL     1     -10.140   7.617  67.203  1.00  0.00    -0.253 C  
HETATM   21  O   UNL     1     -11.152   7.085  66.745  1.00  0.00    -0.289 OA 
BRANCH  20  22
HETATM   22  C   UNL     1      -8.952   6.737  67.430  1.00  0.00    -0.115 A  
HETATM   23  C   UNL     1      -6.944   4.786  67.904  1.00  0.00    -0.061 A  
HETATM   24  C   UNL     1      -6.806   6.082  68.411  1.00  0.00    -0.074 A  
HETATM   25  C   UNL     1      -9.060   5.446  66.907  1.00  0.00    -0.114 A  
HETATM   26  C   UNL     1      -7.806   7.057  68.178  1.00  0.00    -0.118 A  
HETATM   27  C   UNL     1      -8.085   4.480  67.163  1.00  0.00    -0.102 A  
BRANCH  23  28
HETATM   28  O   UNL     1      -5.929   3.871  68.162  1.00  0.00    -0.025 OA 
BRANCH  28  29
HETATM   29  C   UNL     1      -6.304   2.945  69.195  1.00  0.00    -0.029 C  
BRANCH  29  30
HETATM   30  C   UNL     1      -6.644   3.520  70.582  1.00  0.00    -0.032 C  
BRANCH  30  31
HETATM   31  N   UNL     1      -7.748   2.748  71.218  1.00  0.00    -0.043 NA 
HETATM   32  C   UNL     1      -8.173   3.257  72.535  1.00  0.00    -0.075 C  
HETATM   33  C   UNL     1      -8.737   4.671  72.442  1.00  0.00    -0.124 C  
HETATM   34  C   UNL     1      -9.976   4.664  71.555  1.00  0.00    -0.265 C  
HETATM   35  C   UNL     1      -9.743   3.935  70.226  1.00  0.00    -0.245 C  
HETATM   36  C   UNL     1      -8.938   2.636  70.361  1.00  0.00    -0.096 C  
ENDBRANCH  30  31
ENDBRANCH  29  30
ENDBRANCH  28  29
ENDBRANCH  23  28
ENDBRANCH  20  22
ENDBRANCH  10  20
ENDBRANCH   6   9
TORSDOF 7
ENDMDL
MODEL       80
REMARK 921   NORMALIZED FREE ENERGY PREDICTED BY IDOCK:   -5.80 KCAL/MOL
REMARK 922        TOTAL FREE ENERGY PREDICTED BY IDOCK:  -10.26 KCAL/MOL
REMARK 923 INTER-LIGAND FREE ENERGY PREDICTED BY IDOCK:   -8.83 KCAL/MOL
REMARK 924 INTRA-LIGAND FREE ENERGY PREDICTED BY IDOCK:   -1.42 KCAL/MOL
REMARK 927      BINDING AFFINITY PREDICTED BY RF-SCORE:    0.00 PKD
ROOT
HETATM    1  O   UNL     1     -13.307  10.062  72.671  1.00  0.00    -0.551 OA 
HETATM    2  H   UNL     1     -13.715  10.365  73.473  1.00  0.00     0.000 HD 
HETATM    3  C   UNL     1     -12.976  10.918  71.664  1.00  0.00    -0.464 A  
HETATM    4  C   UNL     1     -12.378  10.475  70.491  1.00  0.00    -0.432 A  
HETATM    5  C   UNL     1     -11.999  11.401  69.506  1.00  0.00    -0.409 A  
HETATM    6  C   UNL     1     -12.228  12.778  69.671  1.00  0.00    -0.188 A  
HETATM    7  C   UNL     1     -12.893  13.181  70.846  1.00  0.00    -0.237 A  
HETATM    8  C   UNL     1     -13.249  12.261  71.843  1.00  0.00    -0.481 A  
ENDROOT
BRANCH   6   9
HETATM    9  C   UNL     1     -11.728  13.789  68.689  1.00  0.00    -0.356 A  
HETATM   10  C   UNL     1     -11.345  13.715  67.341  1.00  0.00    -0.340 A  
HETATM   11  C   UNL     1     -10.341  16.785  65.209  1.00  0.00    -0.077 A  
HETATM   12  C   UNL     1     -10.992  15.026  66.797  1.00  0.00    -0.323 A  
HETATM   13  O   UNL     1     -10.033  19.006  65.916  1.00  0.00    -0.477 OA 
HETATM   14  C   UNL     1     -11.023  16.013  67.781  1.00  0.00    -0.307 A  
HETATM   15  H   UNL     1      -9.792  19.250  65.031  1.00  0.00     0.000 HD 
HETATM   16  C   UNL     1     -10.667  15.451  65.477  1.00  0.00    -0.397 A  
HETATM   17  S   UNL     1     -11.479  15.382  69.293  1.00  0.00    -0.358 SA 
HETATM   18  C   UNL     1     -10.715  17.362  67.518  1.00  0.00    -0.278 A  
HETATM   19  C   UNL     1     -10.362  17.719  66.224  1.00  0.00    -0.358 A  
BRANCH  10  20
HETATM   20  C   UNL     1     -11.447  12.487  66.550  1.00  0.00    -0.362 C  
HETATM   21  O   UNL     1     -12.420  12.304  65.817  1.00  0.00    -0.564 OA 
BRANCH  20  22
HETATM   22  C   UNL     1     -10.406  11.413  66.581  1.00  0.00    -0.272 A  
HETATM   23  C   UNL     1      -8.193   9.634  66.504  1.00  0.00    -0.119 A  
HETATM   24  C   UNL     1      -9.477   9.184  66.177  1.00  0.00    -0.309 A  
HETATM   25  C   UNL     1      -9.122  11.839  66.932  1.00  0.00    -0.192 A  
HETATM   26  C   UNL     1     -10.581  10.069  66.212  1.00  0.00    -0.115 A  
HETATM   27  C   UNL     1      -8.031  10.971  66.867  1.00  0.00    -0.143 A  
BRANCH  23  28
HETATM   28  O   UNL     1      -7.147   8.721  66.454  1.00  0.00    -0.080 OA 
BRANCH  28  29
HETATM   29  C   UNL     1      -6.673   8.389  67.769  1.00  0.00    -0.066 C  
BRANCH  29  30
HETATM   30  C   UNL     1      -7.633   7.631  68.705  1.00  0.00    -0.109 C  
BRANCH  30  31
HETATM   31  N   UNL     1      -6.914   6.551  69.438  1.00  0.00    -0.068 NA 
HETATM   32  C   UNL     1      -6.085   7.022  70.563  1.00  0.00    -0.027 C  
HETATM   33  C   UNL     1      -6.926   7.688  71.647  1.00  0.00    -0.061 C  
HETATM   34  C   UNL     1      -7.909   6.674  72.221  1.00  0.00    -0.096 C  
HETATM   35  C   UNL     1      -8.678   5.920  71.130  1.00  0.00    -0.132 C  
HETATM   36  C   UNL     1      -7.812   5.498  69.935  1.00  0.00    -0.082 C  
ENDBRANCH  30  31
ENDBRANCH  29  30
ENDBRANCH  28  29
ENDBRANCH  23  28
ENDBRANCH  20  22
ENDBRANCH  10  20
ENDBRANCH   6   9
TORSDOF 7
ENDMDL
MODEL       81
REMARK 921   NORMALIZED FREE ENERGY PREDICTED BY IDOCK:   -5.80 KCAL/MOL
REMARK 922        TOTAL FREE ENERGY PREDICTED BY IDOCK:  -10.25 KCAL/MOL
REMARK 923 INTER-LIGAND FREE ENERGY PREDICTED BY IDOCK:   -7.66 KCAL/MOL
REMARK 924 INTRA-LIGAND FREE ENERGY PREDICTED BY IDOCK:   -2.59 KCAL/MOL
REMARK 927      BINDING AFFINITY PREDICTED BY RF-SCORE:    0.00 PKD
ROOT
HETATM    1  O   UNL     1     -14.160   8.999  73.400  1.00  0.00    -1.231 OA 
HETATM    2  H   UNL     1     -14.216   8.145  73.811  1.00  0.00     0.000 HD 
HETATM    3  C   UNL     1     -13.237   9.277  72.438  1.00  0.00    -0.426 A  
HETATM    4  C   UNL     1     -13.156  10.526  71.837  1.00  0.00    -0.567 A  
HETATM    5  C   UNL     1     -12.228  10.749  70.807  1.00  0.00    -0.480 A  
HETATM    6  C   UNL     1     -11.356   9.733  70.377  1.00  0.00    -0.362 A  
HETATM    7  C   UNL     1     -11.425   8.500  71.055  1.00  0.00    -0.313 A  
HETATM    8  C   UNL     1     -12.369   8.268  72.065  1.00  0.00    -0.395 A  
ENDROOT
BRANCH   6   9
HETATM    9  C   UNL     1     -10.443   9.914  69.207  1.00  0.00    -0.221 A  
HETATM   10  C   UNL     1      -9.079   9.657  69.000  1.00  0.00    -0.148 A  
HETATM   11  C   UNL     1      -7.283  10.119  65.603  1.00  0.00    -0.137 A  
HETATM   12  C   UNL     1      -8.667   9.946  67.627  1.00  0.00    -0.121 A  
HETATM   13  O   UNL     1      -8.139  11.059  63.625  1.00  0.00    -0.359 OA 
HETATM   14  C   UNL     1      -9.707  10.505  66.888  1.00  0.00    -0.180 A  
HETATM   15  H   UNL     1      -7.298  10.928  63.204  1.00  0.00     0.000 HD 
HETATM   16  C   UNL     1      -7.439   9.730  66.937  1.00  0.00    -0.091 A  
HETATM   17  S   UNL     1     -11.127  10.656  67.812  1.00  0.00    -0.306 SA 
HETATM   18  C   UNL     1      -9.568  10.883  65.538  1.00  0.00    -0.266 A  
HETATM   19  C   UNL     1      -8.339  10.693  64.923  1.00  0.00    -0.085 A  
BRANCH  10  20
HETATM   20  C   UNL     1      -8.225   9.024  70.008  1.00  0.00    -0.127 C  
HETATM   21  O   UNL     1      -7.771   9.691  70.939  1.00  0.00    -0.314 OA 
BRANCH  20  22
HETATM   22  C   UNL     1      -7.866   7.572  69.972  1.00  0.00    -0.099 A  
HETATM   23  C   UNL     1      -6.955   4.906  69.620  1.00  0.00    -0.053 A  
HETATM   24  C   UNL     1      -8.292   5.161  69.943  1.00  0.00    -0.093 A  
HETATM   25  C   UNL     1      -6.529   7.298  69.677  1.00  0.00    -0.036 A  
HETATM   26  C   UNL     1      -8.750   6.490  70.118  1.00  0.00    -0.140 A  
HETATM   27  C   UNL     1      -6.088   5.989  69.477  1.00  0.00    -0.029 A  
BRANCH  23  28
HETATM   28  O   UNL     1      -6.562   3.582  69.462  1.00  0.00    -0.032 OA 
BRANCH  28  29
HETATM   29  C   UNL     1      -6.733   3.138  68.106  1.00  0.00    -0.045 C  
BRANCH  29  30
HETATM   30  C   UNL     1      -8.169   3.057  67.557  1.00  0.00    -0.081 C  
BRANCH  30  31
HETATM   31  N   UNL     1      -8.221   3.522  66.142  1.00  0.00    -0.100 NA 
HETATM   32  C   UNL     1      -9.580   3.765  65.626  1.00  0.00    -0.166 C  
HETATM   33  C   UNL     1     -10.287   4.879  66.392  1.00  0.00    -0.328 C  
HETATM   34  C   UNL     1      -9.514   6.181  66.221  1.00  0.00    -0.144 C  
HETATM   35  C   UNL     1      -8.015   6.014  66.493  1.00  0.00    -0.105 C  
HETATM   36  C   UNL     1      -7.414   4.729  65.906  1.00  0.00    -0.078 C  
ENDBRANCH  30  31
ENDBRANCH  29  30
ENDBRANCH  28  29
ENDBRANCH  23  28
ENDBRANCH  20  22
ENDBRANCH  10  20
ENDBRANCH   6   9
TORSDOF 7
ENDMDL
MODEL       82
REMARK 921   NORMALIZED FREE ENERGY PREDICTED BY IDOCK:   -5.79 KCAL/MOL
REMARK 922        TOTAL FREE ENERGY PREDICTED BY IDOCK:  -10.24 KCAL/MOL
REMARK 923 INTER-LIGAND FREE ENERGY PREDICTED BY IDOCK:   -9.56 KCAL/MOL
REMARK 924 INTRA-LIGAND FREE ENERGY PREDICTED BY IDOCK:   -0.68 KCAL/MOL
REMARK 927      BINDING AFFINITY PREDICTED BY RF-SCORE:    0.00 PKD
ROOT
HETATM    1  O   UNL     1     -12.369   5.975  72.737  1.00  0.00    -0.524 OA 
HETATM    2  H   UNL     1     -12.669   6.190  73.612  1.00  0.00     0.000 HD 
HETATM    3  C   UNL     1     -11.776   6.901  71.933  1.00  0.00    -0.299 A  
HETATM    4  C   UNL     1     -11.337   6.588  70.653  1.00  0.00    -0.409 A  
HETATM    5  C   UNL     1     -10.677   7.558  69.882  1.00  0.00    -0.254 A  
HETATM    6  C   UNL     1     -10.464   8.859  70.371  1.00  0.00    -0.245 A  
HETATM    7  C   UNL     1     -10.981   9.156  71.648  1.00  0.00    -0.445 A  
HETATM    8  C   UNL     1     -11.616   8.180  72.430  1.00  0.00    -0.463 A  
ENDROOT
BRANCH   6   9
HETATM    9  C   UNL     1      -9.664   9.870  69.615  1.00  0.00    -0.229 A  
HETATM   10  C   UNL     1     -10.001  10.872  68.692  1.00  0.00    -0.196 A  
HETATM   11  C   UNL     1      -7.464  13.394  67.216  1.00  0.00    -0.062 A  
HETATM   12  C   UNL     1      -8.837  11.659  68.285  1.00  0.00    -0.167 A  
HETATM   13  O   UNL     1      -5.127  13.423  67.476  1.00  0.00    -0.296 OA 
HETATM   14  C   UNL     1      -7.661  11.154  68.834  1.00  0.00    -0.137 A  
HETATM   15  H   UNL     1      -5.077  14.185  66.911  1.00  0.00     0.000 HD 
HETATM   16  C   UNL     1      -8.715  12.829  67.480  1.00  0.00    -0.185 A  
HETATM   17  S   UNL     1      -7.955   9.796  69.816  1.00  0.00    -0.179 SA 
HETATM   18  C   UNL     1      -6.397  11.726  68.591  1.00  0.00    -0.057 A  
HETATM   19  C   UNL     1      -6.325  12.839  67.765  1.00  0.00    -0.137 A  
BRANCH  10  20
HETATM   20  C   UNL     1     -11.384  11.178  68.318  1.00  0.00    -0.297 C  
HETATM   21  O   UNL     1     -12.314  10.555  68.831  1.00  0.00    -0.251 OA 
BRANCH  20  22
HETATM   22  C   UNL     1     -11.740  12.235  67.321  1.00  0.00    -0.394 A  
HETATM   23  C   UNL     1     -12.124  14.117  65.230  1.00  0.00    -0.405 A  
HETATM   24  C   UNL     1     -12.345  14.482  66.562  1.00  0.00    -0.167 A  
HETATM   25  C   UNL     1     -11.551  11.878  65.984  1.00  0.00    -0.296 A  
HETATM   26  C   UNL     1     -12.153  13.547  67.607  1.00  0.00    -0.321 A  
HETATM   27  C   UNL     1     -11.713  12.812  64.959  1.00  0.00    -0.391 A  
BRANCH  23  28
HETATM   28  O   UNL     1     -12.330  15.076  64.246  1.00  0.00    -0.561 OA 
BRANCH  28  29
HETATM   29  C   UNL     1     -11.638  16.300  64.547  1.00  0.00    -0.091 C  
BRANCH  29  30
HETATM   30  C   UNL     1     -10.319  16.199  65.335  1.00  0.00    -0.330 C  
BRANCH  30  31
HETATM   31  N   UNL     1      -9.939  17.524  65.902  1.00  0.00    -0.551 NA 
HETATM   32  C   UNL     1     -10.764  17.961  67.043  1.00  0.00    -0.209 C  
HETATM   33  C   UNL     1     -10.633  17.015  68.233  1.00  0.00    -0.372 C  
HETATM   34  C   UNL     1      -9.187  17.006  68.715  1.00  0.00    -0.252 C  
HETATM   35  C   UNL     1      -8.187  16.801  67.570  1.00  0.00    -0.187 C  
HETATM   36  C   UNL     1      -8.525  17.594  66.299  1.00  0.00    -0.202 C  
ENDBRANCH  30  31
ENDBRANCH  29  30
ENDBRANCH  28  29
ENDBRANCH  23  28
ENDBRANCH  20  22
ENDBRANCH  10  20
ENDBRANCH   6   9
TORSDOF 7
ENDMDL
MODEL       83
REMARK 921   NORMALIZED FREE ENERGY PREDICTED BY IDOCK:   -5.76 KCAL/MOL
REMARK 922        TOTAL FREE ENERGY PREDICTED BY IDOCK:  -10.20 KCAL/MOL
REMARK 923 INTER-LIGAND FREE ENERGY PREDICTED BY IDOCK:   -8.04 KCAL/MOL
REMARK 924 INTRA-LIGAND FREE ENERGY PREDICTED BY IDOCK:   -2.16 KCAL/MOL
REMARK 927      BINDING AFFINITY PREDICTED BY RF-SCORE:    0.00 PKD
ROOT
HETATM    1  O   UNL     1     -12.088  14.411  66.697  1.00  0.00    -0.419 OA 
HETATM    2  H   UNL     1     -12.154  14.304  65.756  1.00  0.00     0.000 HD 
HETATM    3  C   UNL     1     -11.877  13.353  67.529  1.00  0.00    -0.366 A  
HETATM    4  C   UNL     1     -11.780  13.510  68.905  1.00  0.00    -0.379 A  
HETATM    5  C   UNL     1     -11.502  12.400  69.718  1.00  0.00    -0.220 A  
HETATM    6  C   UNL     1     -11.336  11.116  69.170  1.00  0.00    -0.340 A  
HETATM    7  C   UNL     1     -11.505  10.987  67.778  1.00  0.00    -0.339 A  
HETATM    8  C   UNL     1     -11.756  12.100  66.961  1.00  0.00    -0.373 A  
ENDROOT
BRANCH   6   9
HETATM    9  C   UNL     1     -10.925   9.945  70.003  1.00  0.00    -0.291 A  
HETATM   10  C   UNL     1      -9.917   8.977  69.875  1.00  0.00    -0.203 A  
HETATM   11  C   UNL     1      -9.171   6.267  72.535  1.00  0.00    -0.140 A  
HETATM   12  C   UNL     1      -9.881   8.065  71.018  1.00  0.00    -0.200 A  
HETATM   13  O   UNL     1     -10.390   5.771  74.484  1.00  0.00    -0.271 OA 
HETATM   14  C   UNL     1     -10.925   8.316  71.905  1.00  0.00    -0.287 A  
HETATM   15  H   UNL     1      -9.784   5.066  74.679  1.00  0.00     0.000 HD 
HETATM   16  C   UNL     1      -8.975   7.026  71.377  1.00  0.00    -0.139 A  
HETATM   17  S   UNL     1     -11.896   9.613  71.387  1.00  0.00    -0.421 SA 
HETATM   18  C   UNL     1     -11.122   7.571  73.084  1.00  0.00    -0.378 A  
HETATM   19  C   UNL     1     -10.237   6.540  73.368  1.00  0.00    -0.239 A  
BRANCH  10  20
HETATM   20  C   UNL     1      -8.927   8.996  68.795  1.00  0.00    -0.137 C  
HETATM   21  O   UNL     1      -8.763   7.998  68.091  1.00  0.00    -0.126 OA 
BRANCH  20  22
HETATM   22  C   UNL     1      -8.083  10.192  68.489  1.00  0.00    -0.106 A  
HETATM   23  C   UNL     1      -6.327  12.253  67.635  1.00  0.00    -0.122 A  
HETATM   24  C   UNL     1      -6.606  12.078  68.994  1.00  0.00    -0.092 A  
HETATM   25  C   UNL     1      -7.816  10.399  67.133  1.00  0.00    -0.110 A  
HETATM   26  C   UNL     1      -7.480  11.050  69.423  1.00  0.00    -0.074 A  
HETATM   27  C   UNL     1      -6.931  11.395  66.717  1.00  0.00    -0.128 A  
BRANCH  23  28
HETATM   28  O   UNL     1      -5.463  13.280  67.272  1.00  0.00    -0.351 OA 
BRANCH  28  29
HETATM   29  C   UNL     1      -5.560  14.395  68.174  1.00  0.00    -0.124 C  
BRANCH  29  30
HETATM   30  C   UNL     1      -6.443  15.583  67.749  1.00  0.00    -0.164 C  
BRANCH  30  31
HETATM   31  N   UNL     1      -7.859  15.360  68.155  1.00  0.00    -0.121 NA 
HETATM   32  C   UNL     1      -8.500  16.517  68.806  1.00  0.00    -0.248 C  
HETATM   33  C   UNL     1      -8.584  17.720  67.871  1.00  0.00    -0.250 C  
HETATM   34  C   UNL     1      -9.444  17.364  66.665  1.00  0.00    -0.285 C  
HETATM   35  C   UNL     1      -9.036  16.032  66.025  1.00  0.00    -0.361 C  
HETATM   36  C   UNL     1      -8.714  14.926  67.039  1.00  0.00    -0.238 C  
ENDBRANCH  30  31
ENDBRANCH  29  30
ENDBRANCH  28  29
ENDBRANCH  23  28
ENDBRANCH  20  22
ENDBRANCH  10  20
ENDBRANCH   6   9
TORSDOF 7
ENDMDL
MODEL       84
REMARK 921   NORMALIZED FREE ENERGY PREDICTED BY IDOCK:   -5.74 KCAL/MOL
REMARK 922        TOTAL FREE ENERGY PREDICTED BY IDOCK:  -10.17 KCAL/MOL
REMARK 923 INTER-LIGAND FREE ENERGY PREDICTED BY IDOCK:   -8.13 KCAL/MOL
REMARK 924 INTRA-LIGAND FREE ENERGY PREDICTED BY IDOCK:   -2.04 KCAL/MOL
REMARK 927      BINDING AFFINITY PREDICTED BY RF-SCORE:    0.00 PKD
ROOT
HETATM    1  O   UNL     1     -12.314   8.114  72.962  1.00  0.00    -0.666 OA 
HETATM    2  H   UNL     1     -13.225   7.894  73.117  1.00  0.00     0.000 HD 
HETATM    3  C   UNL     1     -11.675   7.762  71.812  1.00  0.00    -0.284 A  
HETATM    4  C   UNL     1     -10.343   8.084  71.585  1.00  0.00    -0.267 A  
HETATM    5  C   UNL     1      -9.742   7.754  70.360  1.00  0.00    -0.179 A  
HETATM    6  C   UNL     1     -10.457   7.083  69.353  1.00  0.00    -0.227 A  
HETATM    7  C   UNL     1     -11.786   6.718  69.645  1.00  0.00    -0.164 A  
HETATM    8  C   UNL     1     -12.396   7.070  70.858  1.00  0.00    -0.361 A  
ENDROOT
BRANCH   6   9
HETATM    9  C   UNL     1      -9.872   6.827  68.001  1.00  0.00    -0.136 A  
HETATM   10  C   UNL     1      -9.297   7.658  67.026  1.00  0.00    -0.195 A  
HETATM   11  C   UNL     1      -7.706   6.361  63.746  1.00  0.00    -0.111 A  
HETATM   12  C   UNL     1      -8.800   6.898  65.880  1.00  0.00    -0.125 A  
HETATM   13  O   UNL     1      -7.706   4.166  62.901  1.00  0.00    -0.062 OA 
HETATM   14  C   UNL     1      -9.112   5.545  65.989  1.00  0.00    -0.156 A  
HETATM   15  H   UNL     1      -7.232   4.466  62.134  1.00  0.00     0.000 HD 
HETATM   16  C   UNL     1      -8.051   7.289  64.733  1.00  0.00    -0.097 A  
HETATM   17  S   UNL     1      -9.955   5.205  67.427  1.00  0.00    -0.179 SA 
HETATM   18  C   UNL     1      -8.753   4.597  65.011  1.00  0.00    -0.143 A  
HETATM   19  C   UNL     1      -8.061   5.034  63.890  1.00  0.00    -0.119 A  
BRANCH  10  20
HETATM   20  C   UNL     1      -9.088   9.093  67.226  1.00  0.00    -0.126 C  
HETATM   21  O   UNL     1      -8.048   9.499  67.748  1.00  0.00    -0.105 OA 
BRANCH  20  22
HETATM   22  C   UNL     1     -10.092  10.125  66.820  1.00  0.00    -0.277 A  
HETATM   23  C   UNL     1     -11.735  12.211  65.814  1.00  0.00    -0.327 A  
HETATM   24  C   UNL     1     -11.784  11.861  67.167  1.00  0.00    -0.311 A  
HETATM   25  C   UNL     1     -10.077  10.468  65.466  1.00  0.00    -0.349 A  
HETATM   26  C   UNL     1     -10.964  10.822  67.672  1.00  0.00    -0.365 A  
HETATM   27  C   UNL     1     -10.865  11.512  64.977  1.00  0.00    -0.336 A  
BRANCH  23  28
HETATM   28  O   UNL     1     -12.564  13.236  65.373  1.00  0.00    -0.478 OA 
BRANCH  28  29
HETATM   29  C   UNL     1     -11.807  14.390  64.971  1.00  0.00    -0.400 C  
BRANCH  29  30
HETATM   30  C   UNL     1     -11.222  15.284  66.081  1.00  0.00    -0.225 C  
BRANCH  30  31
HETATM   31  N   UNL     1      -9.748  15.431  65.919  1.00  0.00    -0.337 NA 
HETATM   32  C   UNL     1      -9.196  16.690  66.450  1.00  0.00    -0.287 C  
HETATM   33  C   UNL     1      -9.401  16.808  67.957  1.00  0.00    -0.229 C  
HETATM   34  C   UNL     1      -8.663  15.675  68.659  1.00  0.00    -0.193 C  
HETATM   35  C   UNL     1      -8.961  14.306  68.037  1.00  0.00    -0.183 C  
HETATM   36  C   UNL     1      -8.993  14.312  66.503  1.00  0.00    -0.132 C  
ENDBRANCH  30  31
ENDBRANCH  29  30
ENDBRANCH  28  29
ENDBRANCH  23  28
ENDBRANCH  20  22
ENDBRANCH  10  20
ENDBRANCH   6   9
TORSDOF 7
ENDMDL
MODEL       85
REMARK 921   NORMALIZED FREE ENERGY PREDICTED BY IDOCK:   -5.74 KCAL/MOL
REMARK 922        TOTAL FREE ENERGY PREDICTED BY IDOCK:  -10.16 KCAL/MOL
REMARK 923 INTER-LIGAND FREE ENERGY PREDICTED BY IDOCK:   -8.79 KCAL/MOL
REMARK 924 INTRA-LIGAND FREE ENERGY PREDICTED BY IDOCK:   -1.38 KCAL/MOL
REMARK 927      BINDING AFFINITY PREDICTED BY RF-SCORE:    0.00 PKD
ROOT
HETATM    1  O   UNL     1     -12.981   8.551  72.470  1.00  0.00    -0.543 OA 
HETATM    2  H   UNL     1     -12.595   7.683  72.452  1.00  0.00     0.000 HD 
HETATM    3  C   UNL     1     -12.512   9.563  71.688  1.00  0.00    -0.391 A  
HETATM    4  C   UNL     1     -13.077  10.831  71.713  1.00  0.00    -0.573 A  
HETATM    5  C   UNL     1     -12.599  11.827  70.846  1.00  0.00    -0.384 A  
HETATM    6  C   UNL     1     -11.539  11.576  69.958  1.00  0.00    -0.364 A  
HETATM    7  C   UNL     1     -10.951  10.297  70.008  1.00  0.00    -0.371 A  
HETATM    8  C   UNL     1     -11.444   9.292  70.854  1.00  0.00    -0.367 A  
ENDROOT
BRANCH   6   9
HETATM    9  C   UNL     1     -11.094  12.584  68.948  1.00  0.00    -0.260 A  
HETATM   10  C   UNL     1     -10.715  12.496  67.599  1.00  0.00    -0.242 A  
HETATM   11  C   UNL     1      -9.872  15.556  65.386  1.00  0.00    -0.291 A  
HETATM   12  C   UNL     1     -10.429  13.808  67.021  1.00  0.00    -0.274 A  
HETATM   13  O   UNL     1      -9.667  17.806  66.037  1.00  0.00    -0.496 OA 
HETATM   14  C   UNL     1     -10.502  14.816  67.980  1.00  0.00    -0.246 A  
HETATM   15  H   UNL     1      -9.443  18.040  65.143  1.00  0.00     0.000 HD 
HETATM   16  C   UNL     1     -10.133  14.216  65.688  1.00  0.00    -0.350 A  
HETATM   17  S   UNL     1     -10.917  14.202  69.511  1.00  0.00    -0.070 SA 
HETATM   18  C   UNL     1     -10.260  16.172  67.683  1.00  0.00    -0.265 A  
HETATM   19  C   UNL     1      -9.932  16.513  66.378  1.00  0.00    -0.303 A  
BRANCH  10  20
HETATM   20  C   UNL     1     -10.763  11.245  66.839  1.00  0.00    -0.273 C  
HETATM   21  O   UNL     1     -11.550  11.123  65.899  1.00  0.00    -0.035 OA 
BRANCH  20  22
HETATM   22  C   UNL     1      -9.885  10.074  67.147  1.00  0.00    -0.231 A  
HETATM   23  C   UNL     1      -8.513   7.709  67.913  1.00  0.00    -0.123 A  
HETATM   24  C   UNL     1      -7.848   8.939  67.894  1.00  0.00    -0.102 A  
HETATM   25  C   UNL     1     -10.526   8.833  67.144  1.00  0.00    -0.354 A  
HETATM   26  C   UNL     1      -8.529  10.121  67.514  1.00  0.00    -0.118 A  
HETATM   27  C   UNL     1      -9.858   7.675  67.547  1.00  0.00    -0.214 A  
BRANCH  23  28
HETATM   28  O   UNL     1      -7.793   6.582  68.292  1.00  0.00    -0.103 OA 
BRANCH  28  29
HETATM   29  C   UNL     1      -7.391   6.651  69.671  1.00  0.00    -0.083 C  
BRANCH  29  30
HETATM   30  C   UNL     1      -8.498   6.608  70.741  1.00  0.00    -0.134 C  
BRANCH  30  31
HETATM   31  N   UNL     1      -7.914   6.410  72.097  1.00  0.00    -0.107 NA 
HETATM   32  C   UNL     1      -8.104   7.545  73.018  1.00  0.00    -0.111 C  
HETATM   33  C   UNL     1      -9.581   7.804  73.302  1.00  0.00    -0.346 C  
HETATM   34  C   UNL     1     -10.187   6.581  73.981  1.00  0.00    -0.374 C  
HETATM   35  C   UNL     1      -9.853   5.276  73.249  1.00  0.00    -0.178 C  
HETATM   36  C   UNL     1      -8.401   5.191  72.760  1.00  0.00    -0.113 C  
ENDBRANCH  30  31
ENDBRANCH  29  30
ENDBRANCH  28  29
ENDBRANCH  23  28
ENDBRANCH  20  22
ENDBRANCH  10  20
ENDBRANCH   6   9
TORSDOF 7
ENDMDL
MODEL       86
REMARK 921   NORMALIZED FREE ENERGY PREDICTED BY IDOCK:   -5.73 KCAL/MOL
REMARK 922        TOTAL FREE ENERGY PREDICTED BY IDOCK:  -10.16 KCAL/MOL
REMARK 923 INTER-LIGAND FREE ENERGY PREDICTED BY IDOCK:   -8.49 KCAL/MOL
REMARK 924 INTRA-LIGAND FREE ENERGY PREDICTED BY IDOCK:   -1.67 KCAL/MOL
REMARK 927      BINDING AFFINITY PREDICTED BY RF-SCORE:    0.00 PKD
ROOT
HETATM    1  O   UNL     1     -13.497  12.714  71.293  1.00  0.00    -0.030 OA 
HETATM    2  H   UNL     1     -13.099  13.405  70.777  1.00  0.00     0.000 HD 
HETATM    3  C   UNL     1     -12.951  11.468  71.368  1.00  0.00    -0.348 A  
HETATM    4  C   UNL     1     -13.532  10.458  72.123  1.00  0.00    -0.301 A  
HETATM    5  C   UNL     1     -12.902   9.206  72.220  1.00  0.00    -0.472 A  
HETATM    6  C   UNL     1     -11.695   8.942  71.550  1.00  0.00    -0.394 A  
HETATM    7  C   UNL     1     -11.171   9.971  70.744  1.00  0.00    -0.428 A  
HETATM    8  C   UNL     1     -11.785  11.231  70.667  1.00  0.00    -0.264 A  
ENDROOT
BRANCH   6   9
HETATM    9  C   UNL     1     -10.950   7.659  71.734  1.00  0.00    -0.239 A  
HETATM   10  C   UNL     1     -10.533   6.651  70.850  1.00  0.00    -0.249 A  
HETATM   11  C   UNL     1      -8.382   3.610  71.899  1.00  0.00    -0.083 A  
HETATM   12  C   UNL     1      -9.757   5.613  71.527  1.00  0.00    -0.200 A  
HETATM   13  O   UNL     1      -7.732   2.970  74.066  1.00  0.00    -0.061 OA 
HETATM   14  C   UNL     1      -9.710   5.824  72.903  1.00  0.00    -0.155 A  
HETATM   15  H   UNL     1      -7.291   2.210  73.705  1.00  0.00     0.000 HD 
HETATM   16  C   UNL     1      -9.043   4.484  71.030  1.00  0.00    -0.185 A  
HETATM   17  S   UNL     1     -10.554   7.231  73.354  1.00  0.00    -0.355 SA 
HETATM   18  C   UNL     1      -9.032   4.961  73.786  1.00  0.00    -0.113 A  
HETATM   19  C   UNL     1      -8.387   3.851  73.258  1.00  0.00    -0.088 A  
BRANCH  10  20
HETATM   20  C   UNL     1     -10.727   6.733  69.401  1.00  0.00    -0.255 C  
HETATM   21  O   UNL     1     -11.524   5.979  68.841  1.00  0.00    -0.221 OA 
BRANCH  20  22
HETATM   22  C   UNL     1      -9.993   7.710  68.537  1.00  0.00    -0.190 A  
HETATM   23  C   UNL     1      -8.710   9.352  66.608  1.00  0.00    -0.131 A  
HETATM   24  C   UNL     1      -8.107   9.111  67.847  1.00  0.00    -0.105 A  
HETATM   25  C   UNL     1     -10.594   7.984  67.307  1.00  0.00    -0.360 A  
HETATM   26  C   UNL     1      -8.743   8.291  68.811  1.00  0.00    -0.137 A  
HETATM   27  C   UNL     1      -9.950   8.769  66.348  1.00  0.00    -0.346 A  
BRANCH  23  28
HETATM   28  O   UNL     1      -8.041  10.166  65.703  1.00  0.00    -0.136 OA 
BRANCH  28  29
HETATM   29  C   UNL     1      -8.944  10.745  64.746  1.00  0.00    -0.178 C  
BRANCH  29  30
HETATM   30  C   UNL     1      -9.649  12.058  65.133  1.00  0.00    -0.072 C  
BRANCH  30  31
HETATM   31  N   UNL     1     -11.108  11.835  65.334  1.00  0.00    -0.300 NA 
HETATM   32  C   UNL     1     -11.725  12.694  66.361  1.00  0.00    -0.405 C  
HETATM   33  C   UNL     1     -11.640  14.171  65.989  1.00  0.00    -0.364 C  
HETATM   34  C   UNL     1     -12.409  14.413  64.696  1.00  0.00    -0.435 C  
HETATM   35  C   UNL     1     -12.037  13.412  63.596  1.00  0.00    -0.513 C  
HETATM   36  C   UNL     1     -11.885  11.968  64.093  1.00  0.00    -0.373 C  
ENDBRANCH  30  31
ENDBRANCH  29  30
ENDBRANCH  28  29
ENDBRANCH  23  28
ENDBRANCH  20  22
ENDBRANCH  10  20
ENDBRANCH   6   9
TORSDOF 7
ENDMDL
MODEL       87
REMARK 921   NORMALIZED FREE ENERGY PREDICTED BY IDOCK:   -5.70 KCAL/MOL
REMARK 922        TOTAL FREE ENERGY PREDICTED BY IDOCK:  -10.11 KCAL/MOL
REMARK 923 INTER-LIGAND FREE ENERGY PREDICTED BY IDOCK:   -8.86 KCAL/MOL
REMARK 924 INTRA-LIGAND FREE ENERGY PREDICTED BY IDOCK:   -1.25 KCAL/MOL
REMARK 927      BINDING AFFINITY PREDICTED BY RF-SCORE:    0.00 PKD
ROOT
HETATM    1  O   UNL     1      -7.653   9.517  62.374  1.00  0.00    -0.105 OA 
HETATM    2  H   UNL     1      -6.749   9.239  62.460  1.00  0.00     0.000 HD 
HETATM    3  C   UNL     1      -8.354  10.021  63.428  1.00  0.00    -0.170 A  
HETATM    4  C   UNL     1      -9.676  10.428  63.302  1.00  0.00    -0.308 A  
HETATM    5  C   UNL     1     -10.340  10.997  64.401  1.00  0.00    -0.424 A  
HETATM    6  C   UNL     1      -9.700  11.149  65.643  1.00  0.00    -0.267 A  
HETATM    7  C   UNL     1      -8.381  10.666  65.748  1.00  0.00    -0.162 A  
HETATM    8  C   UNL     1      -7.707  10.122  64.644  1.00  0.00    -0.141 A  
ENDROOT
BRANCH   6   9
HETATM    9  C   UNL     1     -10.350  11.857  66.788  1.00  0.00    -0.209 A  
HETATM   10  C   UNL     1     -10.908  11.421  68.000  1.00  0.00    -0.264 A  
HETATM   11  C   UNL     1     -12.258  13.798  70.739  1.00  0.00    -0.437 A  
HETATM   12  C   UNL     1     -11.360  12.536  68.830  1.00  0.00    -0.346 A  
HETATM   13  O   UNL     1     -12.518  16.133  70.636  1.00  0.00    -0.469 OA 
HETATM   14  C   UNL     1     -11.220  13.755  68.171  1.00  0.00    -0.271 A  
HETATM   15  H   UNL     1     -12.881  16.127  71.514  1.00  0.00     0.000 HD 
HETATM   16  C   UNL     1     -11.869  12.585  70.161  1.00  0.00    -0.336 A  
HETATM   17  S   UNL     1     -10.552  13.559  66.619  1.00  0.00    -0.282 SA 
HETATM   18  C   UNL     1     -11.591  14.984  68.750  1.00  0.00    -0.357 A  
HETATM   19  C   UNL     1     -12.122  14.976  70.033  1.00  0.00    -0.337 A  
BRANCH  10  20
HETATM   20  C   UNL     1     -10.885  10.020  68.428  1.00  0.00    -0.235 C  
HETATM   21  O   UNL     1     -11.157   9.125  67.627  1.00  0.00    -0.076 OA 
BRANCH  20  22
HETATM   22  C   UNL     1     -10.539   9.603  69.822  1.00  0.00    -0.267 A  
HETATM   23  C   UNL     1      -9.585   8.638  72.317  1.00  0.00    -0.278 A  
HETATM   24  C   UNL     1     -10.957   8.689  72.055  1.00  0.00    -0.432 A  
HETATM   25  C   UNL     1      -9.172   9.574  70.111  1.00  0.00    -0.281 A  
HETATM   26  C   UNL     1     -11.437   9.167  70.811  1.00  0.00    -0.337 A  
HETATM   27  C   UNL     1      -8.703   9.073  71.327  1.00  0.00    -0.240 A  
BRANCH  23  28
HETATM   28  O   UNL     1      -9.172   8.161  73.555  1.00  0.00    -0.264 OA 
BRANCH  28  29
HETATM   29  C   UNL     1      -8.761   6.786  73.481  1.00  0.00    -0.127 C  
BRANCH  29  30
HETATM   30  C   UNL     1      -9.701   5.725  74.083  1.00  0.00    -0.183 C  
BRANCH  30  31
HETATM   31  N   UNL     1     -10.773   5.359  73.115  1.00  0.00    -0.243 NA 
HETATM   32  C   UNL     1     -10.292   5.048  71.756  1.00  0.00    -0.200 C  
HETATM   33  C   UNL     1      -9.373   3.830  71.745  1.00  0.00    -0.196 C  
HETATM   34  C   UNL     1     -10.145   2.608  72.228  1.00  0.00    -0.230 C  
HETATM   35  C   UNL     1     -10.908   2.872  73.531  1.00  0.00    -0.310 C  
HETATM   36  C   UNL     1     -11.606   4.239  73.578  1.00  0.00    -0.081 C  
ENDBRANCH  30  31
ENDBRANCH  29  30
ENDBRANCH  28  29
ENDBRANCH  23  28
ENDBRANCH  20  22
ENDBRANCH  10  20
ENDBRANCH   6   9
TORSDOF 7
ENDMDL
MODEL       88
REMARK 921   NORMALIZED FREE ENERGY PREDICTED BY IDOCK:   -5.70 KCAL/MOL
REMARK 922        TOTAL FREE ENERGY PREDICTED BY IDOCK:  -10.11 KCAL/MOL
REMARK 923 INTER-LIGAND FREE ENERGY PREDICTED BY IDOCK:   -7.94 KCAL/MOL
REMARK 924 INTRA-LIGAND FREE ENERGY PREDICTED BY IDOCK:   -2.17 KCAL/MOL
REMARK 927      BINDING AFFINITY PREDICTED BY RF-SCORE:    0.00 PKD
ROOT
HETATM    1  O   UNL     1     -10.538   2.800  64.153  1.00  0.00    -0.407 OA 
HETATM    2  H   UNL     1     -11.351   2.420  64.466  1.00  0.00     0.000 HD 
HETATM    3  C   UNL     1     -10.041   3.960  64.665  1.00  0.00    -0.213 A  
HETATM    4  C   UNL     1      -8.853   4.514  64.207  1.00  0.00    -0.152 A  
HETATM    5  C   UNL     1      -8.348   5.680  64.806  1.00  0.00    -0.128 A  
HETATM    6  C   UNL     1      -9.032   6.317  65.857  1.00  0.00    -0.122 A  
HETATM    7  C   UNL     1     -10.265   5.760  66.250  1.00  0.00    -0.129 A  
HETATM    8  C   UNL     1     -10.757   4.581  65.670  1.00  0.00    -0.160 A  
ENDROOT
BRANCH   6   9
HETATM    9  C   UNL     1      -8.455   7.488  66.584  1.00  0.00    -0.130 A  
HETATM   10  C   UNL     1      -8.141   8.802  66.201  1.00  0.00    -0.107 A  
HETATM   11  C   UNL     1      -6.861  11.518  68.641  1.00  0.00    -0.077 A  
HETATM   12  C   UNL     1      -7.654   9.601  67.324  1.00  0.00    -0.091 A  
HETATM   13  O   UNL     1      -6.253  11.272  70.900  1.00  0.00    -0.449 OA 
HETATM   14  C   UNL     1      -7.522   8.833  68.479  1.00  0.00    -0.089 A  
HETATM   15  H   UNL     1      -6.022  12.192  70.934  1.00  0.00     0.000 HD 
HETATM   16  C   UNL     1      -7.336  10.985  67.439  1.00  0.00    -0.105 A  
HETATM   17  S   UNL     1      -7.986   7.217  68.219  1.00  0.00    -0.125 SA 
HETATM   18  C   UNL     1      -7.062   9.363  69.700  1.00  0.00    -0.064 A  
HETATM   19  C   UNL     1      -6.724  10.708  69.750  1.00  0.00    -0.130 A  
BRANCH  10  20
HETATM   20  C   UNL     1      -8.427   9.331  64.865  1.00  0.00    -0.168 C  
HETATM   21  O   UNL     1      -7.730   8.997  63.907  1.00  0.00    -0.114 OA 
BRANCH  20  22
HETATM   22  C   UNL     1      -9.550  10.281  64.592  1.00  0.00    -0.374 A  
HETATM   23  C   UNL     1     -11.432  12.285  63.878  1.00  0.00    -0.435 A  
HETATM   24  C   UNL     1     -11.472  11.693  65.145  1.00  0.00    -0.180 A  
HETATM   25  C   UNL     1      -9.542  10.861  63.321  1.00  0.00    -0.377 A  
HETATM   26  C   UNL     1     -10.534  10.695  65.505  1.00  0.00    -0.246 A  
HETATM   27  C   UNL     1     -10.450  11.865  62.981  1.00  0.00    -0.166 A  
BRANCH  23  28
HETATM   28  O   UNL     1     -12.378  13.257  63.580  1.00  0.00    -0.698 OA 
BRANCH  28  29
HETATM   29  C   UNL     1     -12.369  14.318  64.550  1.00  0.00    -0.410 C  
BRANCH  29  30
HETATM   30  C   UNL     1     -11.030  15.029  64.819  1.00  0.00    -0.373 C  
BRANCH  30  31
HETATM   31  N   UNL     1     -11.034  15.671  66.164  1.00  0.00    -0.261 NA 
HETATM   32  C   UNL     1     -10.944  14.729  67.294  1.00  0.00    -0.318 C  
HETATM   33  C   UNL     1      -9.634  13.948  67.278  1.00  0.00    -0.243 C  
HETATM   34  C   UNL     1      -8.465  14.916  67.420  1.00  0.00    -0.212 C  
HETATM   35  C   UNL     1      -8.563  16.100  66.452  1.00  0.00    -0.365 C  
HETATM   36  C   UNL     1      -9.977  16.682  66.320  1.00  0.00    -0.320 C  
ENDBRANCH  30  31
ENDBRANCH  29  30
ENDBRANCH  28  29
ENDBRANCH  23  28
ENDBRANCH  20  22
ENDBRANCH  10  20
ENDBRANCH   6   9
TORSDOF 7
ENDMDL
MODEL       89
REMARK 921   NORMALIZED FREE ENERGY PREDICTED BY IDOCK:   -5.69 KCAL/MOL
REMARK 922        TOTAL FREE ENERGY PREDICTED BY IDOCK:  -10.09 KCAL/MOL
REMARK 923 INTER-LIGAND FREE ENERGY PREDICTED BY IDOCK:   -8.66 KCAL/MOL
REMARK 924 INTRA-LIGAND FREE ENERGY PREDICTED BY IDOCK:   -1.43 KCAL/MOL
REMARK 927      BINDING AFFINITY PREDICTED BY RF-SCORE:    0.00 PKD
ROOT
HETATM    1  O   UNL     1     -12.571  15.004  63.847  1.00  0.00    -0.958 OA 
HETATM    2  H   UNL     1     -13.002  14.992  63.000  1.00  0.00     0.000 HD 
HETATM    3  C   UNL     1     -11.855  13.940  64.305  1.00  0.00    -0.412 A  
HETATM    4  C   UNL     1     -11.225  13.957  65.542  1.00  0.00    -0.307 A  
HETATM    5  C   UNL     1     -10.447  12.861  65.947  1.00  0.00    -0.294 A  
HETATM    6  C   UNL     1     -10.302  11.726  65.130  1.00  0.00    -0.323 A  
HETATM    7  C   UNL     1     -11.008  11.720  63.911  1.00  0.00    -0.476 A  
HETATM    8  C   UNL     1     -11.764  12.825  63.493  1.00  0.00    -0.597 A  
ENDROOT
BRANCH   6   9
HETATM    9  C   UNL     1      -9.387  10.600  65.491  1.00  0.00    -0.205 A  
HETATM   10  C   UNL     1      -8.679  10.268  66.657  1.00  0.00    -0.134 A  
HETATM   11  C   UNL     1      -6.611   7.026  67.082  1.00  0.00    -0.055 A  
HETATM   12  C   UNL     1      -7.965   8.999  66.524  1.00  0.00    -0.103 A  
HETATM   13  O   UNL     1      -6.107   5.401  65.457  1.00  0.00    -0.031 OA 
HETATM   14  C   UNL     1      -8.078   8.481  65.236  1.00  0.00    -0.138 A  
HETATM   15  H   UNL     1      -5.600   4.921  66.101  1.00  0.00     0.000 HD 
HETATM   16  C   UNL     1      -7.231   8.219  67.464  1.00  0.00    -0.088 A  
HETATM   17  S   UNL     1      -9.024   9.479  64.235  1.00  0.00    -0.159 SA 
HETATM   18  C   UNL     1      -7.474   7.270  64.845  1.00  0.00    -0.091 A  
HETATM   19  C   UNL     1      -6.732   6.568  65.785  1.00  0.00    -0.048 A  
BRANCH  10  20
HETATM   20  C   UNL     1      -8.788  11.036  67.899  1.00  0.00    -0.134 C  
HETATM   21  O   UNL     1      -8.088  12.036  68.070  1.00  0.00    -0.135 OA 
BRANCH  20  22
HETATM   22  C   UNL     1      -9.727  10.666  69.003  1.00  0.00    -0.214 A  
HETATM   23  C   UNL     1     -11.316   9.644  71.123  1.00  0.00    -0.386 A  
HETATM   24  C   UNL     1     -11.904  10.376  70.087  1.00  0.00    -0.379 A  
HETATM   25  C   UNL     1      -9.152   9.958  70.061  1.00  0.00    -0.217 A  
HETATM   26  C   UNL     1     -11.115  10.886  69.027  1.00  0.00    -0.302 A  
HETATM   27  C   UNL     1      -9.937   9.432  71.088  1.00  0.00    -0.311 A  
BRANCH  23  28
HETATM   28  O   UNL     1     -12.138   9.170  72.138  1.00  0.00    -0.362 OA 
BRANCH  28  29
HETATM   29  C   UNL     1     -12.693   7.885  71.812  1.00  0.00    -0.329 C  
BRANCH  29  30
HETATM   30  C   UNL     1     -11.730   6.685  71.752  1.00  0.00    -0.318 C  
BRANCH  30  31
HETATM   31  N   UNL     1     -11.473   6.146  73.117  1.00  0.00    -0.031 NA 
HETATM   32  C   UNL     1     -11.242   4.691  73.168  1.00  0.00    -0.281 C  
HETATM   33  C   UNL     1      -9.996   4.286  72.386  1.00  0.00    -0.229 C  
HETATM   34  C   UNL     1      -8.772   4.946  73.009  1.00  0.00    -0.113 C  
HETATM   35  C   UNL     1      -8.970   6.448  73.244  1.00  0.00    -0.134 C  
HETATM   36  C   UNL     1     -10.354   6.815  73.797  1.00  0.00    -0.368 C  
ENDBRANCH  30  31
ENDBRANCH  29  30
ENDBRANCH  28  29
ENDBRANCH  23  28
ENDBRANCH  20  22
ENDBRANCH  10  20
ENDBRANCH   6   9
TORSDOF 7
ENDMDL
MODEL       90
REMARK 921   NORMALIZED FREE ENERGY PREDICTED BY IDOCK:   -5.68 KCAL/MOL
REMARK 922        TOTAL FREE ENERGY PREDICTED BY IDOCK:  -10.08 KCAL/MOL
REMARK 923 INTER-LIGAND FREE ENERGY PREDICTED BY IDOCK:   -8.98 KCAL/MOL
REMARK 924 INTRA-LIGAND FREE ENERGY PREDICTED BY IDOCK:   -1.10 KCAL/MOL
REMARK 927      BINDING AFFINITY PREDICTED BY RF-SCORE:    0.00 PKD
ROOT
HETATM    1  O   UNL     1      -6.648  20.898  65.300  1.00  0.00    -0.443 OA 
HETATM    2  H   UNL     1      -5.742  20.696  65.099  1.00  0.00     0.000 HD 
HETATM    3  C   UNL     1      -7.500  19.961  65.801  1.00  0.00    -0.315 A  
HETATM    4  C   UNL     1      -8.825  20.256  66.095  1.00  0.00    -0.177 A  
HETATM    5  C   UNL     1      -9.651  19.274  66.666  1.00  0.00    -0.411 A  
HETATM    6  C   UNL     1      -9.170  17.981  66.934  1.00  0.00    -0.271 A  
HETATM    7  C   UNL     1      -7.841  17.702  66.563  1.00  0.00    -0.307 A  
HETATM    8  C   UNL     1      -7.006  18.689  66.016  1.00  0.00    -0.305 A  
ENDROOT
BRANCH   6   9
HETATM    9  C   UNL     1      -9.997  16.959  67.647  1.00  0.00    -0.271 A  
HETATM   10  C   UNL     1     -10.667  15.799  67.229  1.00  0.00    -0.313 A  
HETATM   11  C   UNL     1     -12.486  13.370  69.631  1.00  0.00    -0.063 A  
HETATM   12  C   UNL     1     -11.287  15.089  68.348  1.00  0.00    -0.323 A  
HETATM   13  O   UNL     1     -12.884  13.632  71.934  1.00  0.00    -0.324 OA 
HETATM   14  C   UNL     1     -11.148  15.795  69.541  1.00  0.00    -0.306 A  
HETATM   15  H   UNL     1     -13.348  12.804  71.944  1.00  0.00     0.000 HD 
HETATM   16  C   UNL     1     -11.952  13.831  68.424  1.00  0.00    -0.395 A  
HETATM   17  S   UNL     1     -10.288  17.246  69.320  1.00  0.00    -0.126 SA 
HETATM   18  C   UNL     1     -11.665  15.331  70.767  1.00  0.00    -0.377 A  
HETATM   19  C   UNL     1     -12.344  14.120  70.781  1.00  0.00    -0.369 A  
BRANCH  10  20
HETATM   20  C   UNL     1     -10.604  15.294  65.856  1.00  0.00    -0.335 C  
HETATM   21  O   UNL     1     -10.865  16.040  64.911  1.00  0.00    -0.534 OA 
BRANCH  20  22
HETATM   22  C   UNL     1     -10.228  13.884  65.526  1.00  0.00    -0.348 A  
HETATM   23  C   UNL     1      -9.883  11.145  64.861  1.00  0.00    -0.266 A  
HETATM   24  C   UNL     1      -9.067  11.748  65.824  1.00  0.00    -0.088 A  
HETATM   25  C   UNL     1     -11.015  13.273  64.547  1.00  0.00    -0.398 A  
HETATM   26  C   UNL     1      -9.238  13.113  66.159  1.00  0.00    -0.000 A  
HETATM   27  C   UNL     1     -10.863  11.919  64.240  1.00  0.00    -0.396 A  
BRANCH  23  28
HETATM   28  O   UNL     1      -9.669   9.802  64.571  1.00  0.00    -0.242 OA 
BRANCH  28  29
HETATM   29  C   UNL     1      -9.713   8.992  65.758  1.00  0.00    -0.184 C  
BRANCH  29  30
HETATM   30  C   UNL     1      -8.426   8.885  66.598  1.00  0.00    -0.119 C  
BRANCH  30  31
HETATM   31  N   UNL     1      -8.733   8.405  67.975  1.00  0.00    -0.138 NA 
HETATM   32  C   UNL     1      -8.204   9.259  69.054  1.00  0.00    -0.111 C  
HETATM   33  C   UNL     1      -8.815  10.657  69.020  1.00  0.00    -0.154 C  
HETATM   34  C   UNL     1     -10.320  10.557  69.238  1.00  0.00    -0.248 C  
HETATM   35  C   UNL     1     -10.976   9.507  68.334  1.00  0.00    -0.117 C  
HETATM   36  C   UNL     1     -10.172   8.206  68.206  1.00  0.00    -0.206 C  
ENDBRANCH  30  31
ENDBRANCH  29  30
ENDBRANCH  28  29
ENDBRANCH  23  28
ENDBRANCH  20  22
ENDBRANCH  10  20
ENDBRANCH   6   9
TORSDOF 7
ENDMDL
MODEL       91
REMARK 921   NORMALIZED FREE ENERGY PREDICTED BY IDOCK:   -5.67 KCAL/MOL
REMARK 922        TOTAL FREE ENERGY PREDICTED BY IDOCK:  -10.08 KCAL/MOL
REMARK 923 INTER-LIGAND FREE ENERGY PREDICTED BY IDOCK:   -8.52 KCAL/MOL
REMARK 924 INTRA-LIGAND FREE ENERGY PREDICTED BY IDOCK:   -1.55 KCAL/MOL
REMARK 927      BINDING AFFINITY PREDICTED BY RF-SCORE:    0.00 PKD
ROOT
HETATM    1  O   UNL     1      -5.754  10.035  71.596  1.00  0.00    -0.238 OA 
HETATM    2  H   UNL     1      -6.085   9.268  72.048  1.00  0.00     0.000 HD 
HETATM    3  C   UNL     1      -6.439  10.620  70.574  1.00  0.00    -0.040 A  
HETATM    4  C   UNL     1      -5.954  11.742  69.914  1.00  0.00    -0.146 A  
HETATM    5  C   UNL     1      -6.722  12.347  68.907  1.00  0.00    -0.098 A  
HETATM    6  C   UNL     1      -7.975  11.830  68.533  1.00  0.00    -0.145 A  
HETATM    7  C   UNL     1      -8.403  10.655  69.181  1.00  0.00    -0.140 A  
HETATM    8  C   UNL     1      -7.649  10.064  70.206  1.00  0.00    -0.122 A  
ENDROOT
BRANCH   6   9
HETATM    9  C   UNL     1      -8.858  12.526  67.547  1.00  0.00    -0.184 A  
HETATM   10  C   UNL     1     -10.000  12.133  66.831  1.00  0.00    -0.217 A  
HETATM   11  C   UNL     1     -12.042  14.502  64.553  1.00  0.00    -0.501 A  
HETATM   12  C   UNL     1     -10.550  13.227  66.031  1.00  0.00    -0.292 A  
HETATM   13  O   UNL     1     -11.531  16.710  63.923  1.00  0.00    -1.604 OA 
HETATM   14  C   UNL     1      -9.745  14.362  66.095  1.00  0.00    -0.312 A  
HETATM   15  H   UNL     1     -12.317  16.736  63.391  1.00  0.00     0.000 HD 
HETATM   16  C   UNL     1     -11.741  13.332  65.256  1.00  0.00    -0.357 A  
HETATM   17  S   UNL     1      -8.391  14.120  67.096  1.00  0.00    -0.125 SA 
HETATM   18  C   UNL     1     -10.048  15.553  65.406  1.00  0.00    -0.387 A  
HETATM   19  C   UNL     1     -11.198  15.591  64.629  1.00  0.00    -0.371 A  
BRANCH  10  20
HETATM   20  C   UNL     1     -10.638  10.826  67.004  1.00  0.00    -0.260 C  
HETATM   21  O   UNL     1     -11.710  10.738  67.605  1.00  0.00    -0.538 OA 
BRANCH  20  22
HETATM   22  C   UNL     1     -10.046   9.558  66.476  1.00  0.00    -0.326 A  
HETATM   23  C   UNL     1      -8.909   7.037  65.831  1.00  0.00    -0.103 A  
HETATM   24  C   UNL     1      -8.531   8.186  65.128  1.00  0.00    -0.134 A  
HETATM   25  C   UNL     1     -10.434   8.396  67.148  1.00  0.00    -0.380 A  
HETATM   26  C   UNL     1      -9.094   9.445  65.449  1.00  0.00    -0.280 A  
HETATM   27  C   UNL     1      -9.854   7.162  66.849  1.00  0.00    -0.271 A  
BRANCH  23  28
HETATM   28  O   UNL     1      -8.324   5.829  65.472  1.00  0.00    -0.128 OA 
BRANCH  28  29
HETATM   29  C   UNL     1      -8.459   4.847  66.513  1.00  0.00    -0.110 C  
BRANCH  29  30
HETATM   30  C   UNL     1      -7.348   4.777  67.577  1.00  0.00    -0.074 C  
BRANCH  30  31
HETATM   31  N   UNL     1      -7.677   3.762  68.618  1.00  0.00    -0.057 NA 
HETATM   32  C   UNL     1      -6.875   3.866  69.851  1.00  0.00    -0.037 C  
HETATM   33  C   UNL     1      -7.103   5.194  70.566  1.00  0.00    -0.060 C  
HETATM   34  C   UNL     1      -8.565   5.299  70.983  1.00  0.00    -0.127 C  
HETATM   35  C   UNL     1      -9.529   4.968  69.838  1.00  0.00    -0.225 C  
HETATM   36  C   UNL     1      -9.099   3.762  68.991  1.00  0.00    -0.138 C  
ENDBRANCH  30  31
ENDBRANCH  29  30
ENDBRANCH  28  29
ENDBRANCH  23  28
ENDBRANCH  20  22
ENDBRANCH  10  20
ENDBRANCH   6   9
TORSDOF 7
ENDMDL
MODEL       92
REMARK 921   NORMALIZED FREE ENERGY PREDICTED BY IDOCK:   -5.64 KCAL/MOL
REMARK 922        TOTAL FREE ENERGY PREDICTED BY IDOCK:  -10.02 KCAL/MOL
REMARK 923 INTER-LIGAND FREE ENERGY PREDICTED BY IDOCK:   -7.77 KCAL/MOL
REMARK 924 INTRA-LIGAND FREE ENERGY PREDICTED BY IDOCK:   -2.25 KCAL/MOL
REMARK 927      BINDING AFFINITY PREDICTED BY RF-SCORE:    0.00 PKD
ROOT
HETATM    1  O   UNL     1     -13.054   6.763  72.417  1.00  0.00    -0.505 OA 
HETATM    2  H   UNL     1     -12.351   6.170  72.658  1.00  0.00     0.000 HD 
HETATM    3  C   UNL     1     -12.806   8.003  71.912  1.00  0.00    -0.320 A  
HETATM    4  C   UNL     1     -13.833   8.870  71.560  1.00  0.00    -0.388 A  
HETATM    5  C   UNL     1     -13.531  10.116  70.987  1.00  0.00    -0.220 A  
HETATM    6  C   UNL     1     -12.201  10.520  70.776  1.00  0.00    -0.468 A  
HETATM    7  C   UNL     1     -11.188   9.641  71.205  1.00  0.00    -0.454 A  
HETATM    8  C   UNL     1     -11.488   8.385  71.753  1.00  0.00    -0.365 A  
ENDROOT
BRANCH   6   9
HETATM    9  C   UNL     1     -11.862  11.790  70.062  1.00  0.00    -0.342 A  
HETATM   10  C   UNL     1     -11.300  12.069  68.807  1.00  0.00    -0.331 A  
HETATM   11  C   UNL     1     -10.871  15.639  67.377  1.00  0.00    -0.315 A  
HETATM   12  C   UNL     1     -11.237  13.506  68.540  1.00  0.00    -0.310 A  
HETATM   13  O   UNL     1     -11.256  17.692  68.458  1.00  0.00    -0.110 OA 
HETATM   14  C   UNL     1     -11.656  14.249  69.641  1.00  0.00    -0.296 A  
HETATM   15  H   UNL     1     -10.974  18.152  67.676  1.00  0.00     0.000 HD 
HETATM   16  C   UNL     1     -10.867  14.241  67.377  1.00  0.00    -0.288 A  
HETATM   17  S   UNL     1     -12.122  13.250  70.937  1.00  0.00    -0.002 SA 
HETATM   18  C   UNL     1     -11.683  15.658  69.646  1.00  0.00    -0.373 A  
HETATM   19  C   UNL     1     -11.271  16.330  68.504  1.00  0.00    -0.359 A  
BRANCH  10  20
HETATM   20  C   UNL     1     -10.970  11.027  67.832  1.00  0.00    -0.264 C  
HETATM   21  O   UNL     1     -11.686  10.856  66.845  1.00  0.00    -0.255 OA 
BRANCH  20  22
HETATM   22  C   UNL     1      -9.777  10.134  67.971  1.00  0.00    -0.161 A  
HETATM   23  C   UNL     1      -7.760   8.159  68.275  1.00  0.00    -0.114 A  
HETATM   24  C   UNL     1      -7.594   9.433  68.829  1.00  0.00    -0.079 A  
HETATM   25  C   UNL     1      -9.914   8.867  67.400  1.00  0.00    -0.267 A  
HETATM   26  C   UNL     1      -8.599  10.420  68.680  1.00  0.00    -0.133 A  
HETATM   27  C   UNL     1      -8.934   7.888  67.574  1.00  0.00    -0.131 A  
BRANCH  23  28
HETATM   28  O   UNL     1      -6.740   7.232  68.450  1.00  0.00    -0.050 OA 
BRANCH  28  29
HETATM   29  C   UNL     1      -6.384   7.094  69.836  1.00  0.00    -0.035 C  
BRANCH  29  30
HETATM   30  C   UNL     1      -7.386   6.380  70.763  1.00  0.00    -0.076 C  
BRANCH  30  31
HETATM   31  N   UNL     1      -8.056   5.256  70.051  1.00  0.00    -0.083 NA 
HETATM   32  C   UNL     1      -7.504   3.923  70.355  1.00  0.00    -0.041 C  
HETATM   33  C   UNL     1      -7.673   3.561  71.827  1.00  0.00    -0.057 C  
HETATM   34  C   UNL     1      -9.157   3.509  72.169  1.00  0.00    -0.152 C  
HETATM   35  C   UNL     1      -9.915   4.750  71.682  1.00  0.00    -0.257 C  
HETATM   36  C   UNL     1      -9.509   5.217  70.278  1.00  0.00    -0.168 C  
ENDBRANCH  30  31
ENDBRANCH  29  30
ENDBRANCH  28  29
ENDBRANCH  23  28
ENDBRANCH  20  22
ENDBRANCH  10  20
ENDBRANCH   6   9
TORSDOF 7
ENDMDL
MODEL       93
REMARK 921   NORMALIZED FREE ENERGY PREDICTED BY IDOCK:   -5.62 KCAL/MOL
REMARK 922        TOTAL FREE ENERGY PREDICTED BY IDOCK:  -10.00 KCAL/MOL
REMARK 923 INTER-LIGAND FREE ENERGY PREDICTED BY IDOCK:   -8.36 KCAL/MOL
REMARK 924 INTRA-LIGAND FREE ENERGY PREDICTED BY IDOCK:   -1.64 KCAL/MOL
REMARK 927      BINDING AFFINITY PREDICTED BY RF-SCORE:    0.00 PKD
ROOT
HETATM    1  O   UNL     1      -9.004   3.612  62.843  1.00  0.00    -0.093 OA 
HETATM    2  H   UNL     1      -9.690   3.040  62.519  1.00  0.00     0.000 HD 
HETATM    3  C   UNL     1      -9.150   4.335  63.987  1.00  0.00    -0.146 A  
HETATM    4  C   UNL     1      -8.147   5.171  64.460  1.00  0.00    -0.120 A  
HETATM    5  C   UNL     1      -8.319   5.851  65.677  1.00  0.00    -0.143 A  
HETATM    6  C   UNL     1      -9.500   5.721  66.427  1.00  0.00    -0.172 A  
HETATM    7  C   UNL     1     -10.519   4.914  65.882  1.00  0.00    -0.282 A  
HETATM    8  C   UNL     1     -10.339   4.213  64.681  1.00  0.00    -0.193 A  
ENDROOT
BRANCH   6   9
HETATM    9  C   UNL     1      -9.655   6.342  67.778  1.00  0.00    -0.121 A  
HETATM   10  C   UNL     1      -9.269   7.578  68.320  1.00  0.00    -0.138 A  
HETATM   11  C   UNL     1     -10.179   8.748  71.895  1.00  0.00    -0.415 A  
HETATM   12  C   UNL     1      -9.728   7.740  69.699  1.00  0.00    -0.172 A  
HETATM   13  O   UNL     1     -11.232   7.519  73.601  1.00  0.00    -0.583 OA 
HETATM   14  C   UNL     1     -10.348   6.586  70.171  1.00  0.00    -0.201 A  
HETATM   15  H   UNL     1     -11.156   8.267  74.181  1.00  0.00     0.000 HD 
HETATM   16  C   UNL     1      -9.678   8.849  70.593  1.00  0.00    -0.260 A  
HETATM   17  S   UNL     1     -10.389   5.363  68.989  1.00  0.00    -0.183 SA 
HETATM   18  C   UNL     1     -10.873   6.479  71.474  1.00  0.00    -0.288 A  
HETATM   19  C   UNL     1     -10.762   7.572  72.322  1.00  0.00    -0.250 A  
BRANCH  10  20
HETATM   20  C   UNL     1      -8.621   8.627  67.530  1.00  0.00    -0.135 C  
HETATM   21  O   UNL     1      -7.395   8.743  67.545  1.00  0.00    -0.080 OA 
BRANCH  20  22
HETATM   22  C   UNL     1      -9.386   9.591  66.680  1.00  0.00    -0.207 A  
HETATM   23  C   UNL     1     -11.133  11.343  65.286  1.00  0.00    -0.129 A  
HETATM   24  C   UNL     1     -10.176  10.596  64.591  1.00  0.00    -0.404 A  
HETATM   25  C   UNL     1     -10.329  10.366  67.361  1.00  0.00    -0.275 A  
HETATM   26  C   UNL     1      -9.304   9.721  65.283  1.00  0.00    -0.315 A  
HETATM   27  C   UNL     1     -11.206  11.206  66.672  1.00  0.00    -0.186 A  
BRANCH  23  28
HETATM   28  O   UNL     1     -11.960  12.188  64.555  1.00  0.00    -0.368 OA 
BRANCH  28  29
HETATM   29  C   UNL     1     -11.239  13.323  64.046  1.00  0.00    -0.339 C  
BRANCH  29  30
HETATM   30  C   UNL     1     -10.302  14.067  65.016  1.00  0.00    -0.409 C  
BRANCH  30  31
HETATM   31  N   UNL     1     -11.041  15.132  65.751  1.00  0.00    -0.344 NA 
HETATM   32  C   UNL     1     -11.482  14.750  67.104  1.00  0.00    -0.364 C  
HETATM   33  C   UNL     1     -10.301  14.441  68.019  1.00  0.00    -0.227 C  
HETATM   34  C   UNL     1      -9.441  15.690  68.175  1.00  0.00    -0.195 C  
HETATM   35  C   UNL     1      -9.106  16.343  66.829  1.00  0.00    -0.259 C  
HETATM   36  C   UNL     1     -10.286  16.391  65.848  1.00  0.00    -0.362 C  
ENDBRANCH  30  31
ENDBRANCH  29  30
ENDBRANCH  28  29
ENDBRANCH  23  28
ENDBRANCH  20  22
ENDBRANCH  10  20
ENDBRANCH   6   9
TORSDOF 7
ENDMDL
MODEL       94
REMARK 921   NORMALIZED FREE ENERGY PREDICTED BY IDOCK:   -5.58 KCAL/MOL
REMARK 922        TOTAL FREE ENERGY PREDICTED BY IDOCK:   -9.94 KCAL/MOL
REMARK 923 INTER-LIGAND FREE ENERGY PREDICTED BY IDOCK:   -7.67 KCAL/MOL
REMARK 924 INTRA-LIGAND FREE ENERGY PREDICTED BY IDOCK:   -2.27 KCAL/MOL
REMARK 927      BINDING AFFINITY PREDICTED BY RF-SCORE:    0.00 PKD
ROOT
HETATM    1  O   UNL     1     -10.991   5.606  73.884  1.00  0.00    -0.399 OA 
HETATM    2  H   UNL     1     -10.375   5.703  74.601  1.00  0.00     0.000 HD 
HETATM    3  C   UNL     1     -11.123   6.555  72.915  1.00  0.00    -0.223 A  
HETATM    4  C   UNL     1     -12.022   6.413  71.867  1.00  0.00    -0.381 A  
HETATM    5  C   UNL     1     -12.081   7.389  70.859  1.00  0.00    -0.290 A  
HETATM    6  C   UNL     1     -11.257   8.527  70.894  1.00  0.00    -0.304 A  
HETATM    7  C   UNL     1     -10.404   8.666  72.006  1.00  0.00    -0.416 A  
HETATM    8  C   UNL     1     -10.324   7.680  73.000  1.00  0.00    -0.393 A  
ENDROOT
BRANCH   6   9
HETATM    9  C   UNL     1     -11.221   9.516  69.773  1.00  0.00    -0.144 A  
HETATM   10  C   UNL     1     -10.699   9.478  68.471  1.00  0.00    -0.222 A  
HETATM   11  C   UNL     1     -11.131  12.326  65.886  1.00  0.00    -0.360 A  
HETATM   12  C   UNL     1     -10.992  10.703  67.726  1.00  0.00    -0.364 A  
HETATM   13  O   UNL     1     -12.064  14.459  66.219  1.00  0.00    -0.409 OA 
HETATM   14  C   UNL     1     -11.627  11.649  68.527  1.00  0.00    -0.317 A  
HETATM   15  H   UNL     1     -11.877  14.677  65.313  1.00  0.00     0.000 HD 
HETATM   16  C   UNL     1     -10.773  11.062  66.364  1.00  0.00    -0.286 A  
HETATM   17  S   UNL     1     -11.877  11.073  70.108  1.00  0.00    -0.383 SA 
HETATM   18  C   UNL     1     -12.010  12.918  68.051  1.00  0.00    -0.323 A  
HETATM   19  C   UNL     1     -11.736  13.238  66.728  1.00  0.00    -0.385 A  
BRANCH  10  20
HETATM   20  C   UNL     1     -10.079   8.283  67.895  1.00  0.00    -0.202 C  
HETATM   21  O   UNL     1     -10.411   7.893  66.775  1.00  0.00    -0.327 OA 
BRANCH  20  22
HETATM   22  C   UNL     1      -9.034   7.487  68.610  1.00  0.00    -0.132 A  
HETATM   23  C   UNL     1      -7.334   5.771  70.104  1.00  0.00    -0.073 A  
HETATM   24  C   UNL     1      -7.047   7.136  69.997  1.00  0.00    -0.066 A  
HETATM   25  C   UNL     1      -9.290   6.117  68.703  1.00  0.00    -0.121 A  
HETATM   26  C   UNL     1      -7.893   7.994  69.255  1.00  0.00    -0.114 A  
HETATM   27  C   UNL     1      -8.469   5.279  69.460  1.00  0.00    -0.094 A  
BRANCH  23  28
HETATM   28  O   UNL     1      -6.467   4.976  70.843  1.00  0.00    -0.025 OA 
BRANCH  28  29
HETATM   29  C   UNL     1      -6.708   5.102  72.255  1.00  0.00    -0.053 C  
BRANCH  29  30
HETATM   30  C   UNL     1      -7.957   4.409  72.831  1.00  0.00    -0.091 C  
BRANCH  30  31
HETATM   31  N   UNL     1      -7.795   2.928  72.812  1.00  0.00    -0.057 NA 
HETATM   32  C   UNL     1      -8.464   2.223  73.920  1.00  0.00    -0.063 C  
HETATM   33  C   UNL     1      -9.977   2.416  73.883  1.00  0.00    -0.151 C  
HETATM   34  C   UNL     1     -10.531   1.826  72.591  1.00  0.00    -0.231 C  
HETATM   35  C   UNL     1      -9.755   2.291  71.353  1.00  0.00    -0.216 C  
HETATM   36  C   UNL     1      -8.233   2.319  71.546  1.00  0.00    -0.054 C  
ENDBRANCH  30  31
ENDBRANCH  29  30
ENDBRANCH  28  29
ENDBRANCH  23  28
ENDBRANCH  20  22
ENDBRANCH  10  20
ENDBRANCH   6   9
TORSDOF 7
ENDMDL
MODEL       95
REMARK 921   NORMALIZED FREE ENERGY PREDICTED BY IDOCK:   -5.58 KCAL/MOL
REMARK 922        TOTAL FREE ENERGY PREDICTED BY IDOCK:   -9.94 KCAL/MOL
REMARK 923 INTER-LIGAND FREE ENERGY PREDICTED BY IDOCK:   -8.16 KCAL/MOL
REMARK 924 INTRA-LIGAND FREE ENERGY PREDICTED BY IDOCK:   -1.78 KCAL/MOL
REMARK 927      BINDING AFFINITY PREDICTED BY RF-SCORE:    0.00 PKD
ROOT
HETATM    1  O   UNL     1     -11.558   6.424  73.214  1.00  0.00    -0.426 OA 
HETATM    2  H   UNL     1     -12.313   6.976  73.378  1.00  0.00     0.000 HD 
HETATM    3  C   UNL     1     -11.098   6.190  71.953  1.00  0.00    -0.274 A  
HETATM    4  C   UNL     1      -9.994   5.382  71.714  1.00  0.00    -0.235 A  
HETATM    5  C   UNL     1      -9.519   5.218  70.403  1.00  0.00    -0.222 A  
HETATM    6  C   UNL     1     -10.150   5.842  69.313  1.00  0.00    -0.268 A  
HETATM    7  C   UNL     1     -11.304   6.601  69.590  1.00  0.00    -0.387 A  
HETATM    8  C   UNL     1     -11.765   6.788  70.902  1.00  0.00    -0.424 A  
ENDROOT
BRANCH   6   9
HETATM    9  C   UNL     1      -9.593   5.774  67.927  1.00  0.00    -0.115 A  
HETATM   10  C   UNL     1      -8.856   6.673  67.140  1.00  0.00    -0.115 A  
HETATM   11  C   UNL     1      -7.455   5.827  63.633  1.00  0.00    -0.069 A  
HETATM   12  C   UNL     1      -8.480   6.093  65.851  1.00  0.00    -0.145 A  
HETATM   13  O   UNL     1      -7.834   3.896  62.345  1.00  0.00    -0.059 OA 
HETATM   14  C   UNL     1      -9.034   4.827  65.678  1.00  0.00    -0.142 A  
HETATM   15  H   UNL     1      -7.298   4.260  61.650  1.00  0.00     0.000 HD 
HETATM   16  C   UNL     1      -7.648   6.575  64.799  1.00  0.00    -0.099 A  
HETATM   17  S   UNL     1      -9.955   4.352  67.027  1.00  0.00    -0.091 SA 
HETATM   18  C   UNL     1      -8.831   4.057  64.516  1.00  0.00    -0.128 A  
HETATM   19  C   UNL     1      -8.048   4.587  63.501  1.00  0.00    -0.093 A  
BRANCH  10  20
HETATM   20  C   UNL     1      -8.395   7.972  67.634  1.00  0.00    -0.128 C  
HETATM   21  O   UNL     1      -7.189   8.211  67.709  1.00  0.00    -0.087 OA 
BRANCH  20  22
HETATM   22  C   UNL     1      -9.332   9.056  68.064  1.00  0.00    -0.153 A  
HETATM   23  C   UNL     1     -11.101  11.230  68.522  1.00  0.00    -0.235 A  
HETATM   24  C   UNL     1     -10.149  10.876  69.483  1.00  0.00    -0.056 A  
HETATM   25  C   UNL     1     -10.308   9.404  67.126  1.00  0.00    -0.326 A  
HETATM   26  C   UNL     1      -9.264   9.794  69.257  1.00  0.00    -0.197 A  
HETATM   27  C   UNL     1     -11.158  10.490  67.340  1.00  0.00    -0.322 A  
BRANCH  23  28
HETATM   28  O   UNL     1     -11.944  12.299  68.798  1.00  0.00    -0.302 OA 
BRANCH  28  29
HETATM   29  C   UNL     1     -11.623  13.447  67.995  1.00  0.00    -0.334 C  
BRANCH  29  30
HETATM   30  C   UNL     1     -12.343  13.596  66.642  1.00  0.00    -0.331 C  
BRANCH  30  31
HETATM   31  N   UNL     1     -11.490  14.334  65.668  1.00  0.00    -0.323 NA 
HETATM   32  C   UNL     1     -10.169  13.725  65.425  1.00  0.00    -0.326 C  
HETATM   33  C   UNL     1     -10.290  12.335  64.809  1.00  0.00    -0.320 C  
HETATM   34  C   UNL     1     -10.980  12.440  63.454  1.00  0.00    -0.442 C  
HETATM   35  C   UNL     1     -12.266  13.272  63.513  1.00  0.00    -0.513 C  
HETATM   36  C   UNL     1     -12.149  14.540  64.369  1.00  0.00    -0.472 C  
ENDBRANCH  30  31
ENDBRANCH  29  30
ENDBRANCH  28  29
ENDBRANCH  23  28
ENDBRANCH  20  22
ENDBRANCH  10  20
ENDBRANCH   6   9
TORSDOF 7
ENDMDL
MODEL       96
REMARK 921   NORMALIZED FREE ENERGY PREDICTED BY IDOCK:   -5.57 KCAL/MOL
REMARK 922        TOTAL FREE ENERGY PREDICTED BY IDOCK:   -9.93 KCAL/MOL
REMARK 923 INTER-LIGAND FREE ENERGY PREDICTED BY IDOCK:   -7.52 KCAL/MOL
REMARK 924 INTRA-LIGAND FREE ENERGY PREDICTED BY IDOCK:   -2.41 KCAL/MOL
REMARK 927      BINDING AFFINITY PREDICTED BY RF-SCORE:    0.00 PKD
ROOT
HETATM    1  O   UNL     1      -5.381  13.616  68.816  1.00  0.00    -0.070 OA 
HETATM    2  H   UNL     1      -5.110  14.223  68.138  1.00  0.00     0.000 HD 
HETATM    3  C   UNL     1      -6.127  12.511  68.537  1.00  0.00    -0.061 A  
HETATM    4  C   UNL     1      -6.524  11.624  69.529  1.00  0.00    -0.122 A  
HETATM    5  C   UNL     1      -7.241  10.466  69.186  1.00  0.00    -0.089 A  
HETATM    6  C   UNL     1      -7.587  10.189  67.852  1.00  0.00    -0.089 A  
HETATM    7  C   UNL     1      -7.222  11.144  66.883  1.00  0.00    -0.138 A  
HETATM    8  C   UNL     1      -6.483  12.288  67.221  1.00  0.00    -0.152 A  
ENDROOT
BRANCH   6   9
HETATM    9  C   UNL     1      -8.246   8.908  67.453  1.00  0.00    -0.108 A  
HETATM   10  C   UNL     1      -9.477   8.316  67.776  1.00  0.00    -0.171 A  
HETATM   11  C   UNL     1     -10.768   5.020  66.211  1.00  0.00    -0.262 A  
HETATM   12  C   UNL     1      -9.691   7.062  67.054  1.00  0.00    -0.216 A  
HETATM   13  O   UNL     1      -9.623   3.547  64.779  1.00  0.00    -0.155 OA 
HETATM   14  C   UNL     1      -8.574   6.710  66.300  1.00  0.00    -0.138 A  
HETATM   15  H   UNL     1     -10.381   2.975  64.769  1.00  0.00     0.000 HD 
HETATM   16  C   UNL     1     -10.818   6.194  66.969  1.00  0.00    -0.435 A  
HETATM   17  S   UNL     1      -7.327   7.857  66.446  1.00  0.00    -0.088 SA 
HETATM   18  C   UNL     1      -8.519   5.540  65.517  1.00  0.00    -0.144 A  
HETATM   19  C   UNL     1      -9.627   4.703  65.502  1.00  0.00    -0.179 A  
BRANCH  10  20
HETATM   20  C   UNL     1     -10.481   8.973  68.616  1.00  0.00    -0.200 C  
HETATM   21  O   UNL     1     -11.033   8.347  69.522  1.00  0.00    -0.170 OA 
BRANCH  20  22
HETATM   22  C   UNL     1     -10.883  10.402  68.433  1.00  0.00    -0.289 A  
HETATM   23  C   UNL     1     -11.887  13.058  68.369  1.00  0.00    -0.334 A  
HETATM   24  C   UNL     1     -11.563  12.393  67.182  1.00  0.00    -0.435 A  
HETATM   25  C   UNL     1     -11.184  11.090  69.611  1.00  0.00    -0.345 A  
HETATM   26  C   UNL     1     -11.064  11.069  67.210  1.00  0.00    -0.359 A  
HETATM   27  C   UNL     1     -11.703  12.386  69.578  1.00  0.00    -0.388 A  
BRANCH  23  28
HETATM   28  O   UNL     1     -12.370  14.358  68.281  1.00  0.00    -0.201 OA 
BRANCH  28  29
HETATM   29  C   UNL     1     -11.724  15.227  69.226  1.00  0.00    -0.338 C  
BRANCH  29  30
HETATM   30  C   UNL     1     -10.973  16.452  68.673  1.00  0.00    -0.345 C  
BRANCH  30  31
HETATM   31  N   UNL     1      -9.545  16.432  69.099  1.00  0.00    -0.263 NA 
HETATM   32  C   UNL     1      -8.837  15.171  68.812  1.00  0.00    -0.196 C  
HETATM   33  C   UNL     1      -8.765  14.889  67.315  1.00  0.00    -0.224 C  
HETATM   34  C   UNL     1      -7.979  15.999  66.627  1.00  0.00    -0.291 C  
HETATM   35  C   UNL     1      -8.459  17.397  67.034  1.00  0.00    -0.245 C  
HETATM   36  C   UNL     1      -8.762  17.541  68.531  1.00  0.00    -0.282 C  
ENDBRANCH  30  31
ENDBRANCH  29  30
ENDBRANCH  28  29
ENDBRANCH  23  28
ENDBRANCH  20  22
ENDBRANCH  10  20
ENDBRANCH   6   9
TORSDOF 7
ENDMDL
MODEL       97
REMARK 921   NORMALIZED FREE ENERGY PREDICTED BY IDOCK:   -5.55 KCAL/MOL
REMARK 922        TOTAL FREE ENERGY PREDICTED BY IDOCK:   -9.91 KCAL/MOL
REMARK 923 INTER-LIGAND FREE ENERGY PREDICTED BY IDOCK:   -8.20 KCAL/MOL
REMARK 924 INTRA-LIGAND FREE ENERGY PREDICTED BY IDOCK:   -1.71 KCAL/MOL
REMARK 927      BINDING AFFINITY PREDICTED BY RF-SCORE:    0.00 PKD
ROOT
HETATM    1  O   UNL     1     -11.641   5.568  73.302  1.00  0.00    -0.511 OA 
HETATM    2  H   UNL     1     -11.201   5.037  73.955  1.00  0.00     0.000 HD 
HETATM    3  C   UNL     1     -11.150   5.709  72.039  1.00  0.00    -0.230 A  
HETATM    4  C   UNL     1     -11.794   6.485  71.084  1.00  0.00    -0.383 A  
HETATM    5  C   UNL     1     -11.285   6.553  69.778  1.00  0.00    -0.456 A  
HETATM    6  C   UNL     1     -10.116   5.862  69.412  1.00  0.00    -0.260 A  
HETATM    7  C   UNL     1      -9.457   5.138  70.425  1.00  0.00    -0.229 A  
HETATM    8  C   UNL     1      -9.979   5.047  71.724  1.00  0.00    -0.250 A  
ENDROOT
BRANCH   6   9
HETATM    9  C   UNL     1      -9.623   5.827  68.001  1.00  0.00    -0.119 A  
HETATM   10  C   UNL     1      -8.981   6.768  67.181  1.00  0.00    -0.116 A  
HETATM   11  C   UNL     1      -7.705   6.006  63.608  1.00  0.00    -0.100 A  
HETATM   12  C   UNL     1      -8.634   6.212  65.874  1.00  0.00    -0.147 A  
HETATM   13  O   UNL     1      -8.029   4.055  62.336  1.00  0.00    -0.060 OA 
HETATM   14  C   UNL     1      -9.119   4.914  65.725  1.00  0.00    -0.148 A  
HETATM   15  H   UNL     1      -7.551   4.450  61.616  1.00  0.00     0.000 HD 
HETATM   16  C   UNL     1      -7.885   6.742  64.784  1.00  0.00    -0.119 A  
HETATM   17  S   UNL     1      -9.943   4.385  67.116  1.00  0.00    -0.070 SA 
HETATM   18  C   UNL     1      -8.927   4.157  64.553  1.00  0.00    -0.142 A  
HETATM   19  C   UNL     1      -8.228   4.733  63.502  1.00  0.00    -0.107 A  
BRANCH  10  20
HETATM   20  C   UNL     1      -8.576   8.093  67.655  1.00  0.00    -0.130 C  
HETATM   21  O   UNL     1      -7.420   8.285  68.037  1.00  0.00    -0.094 OA 
BRANCH  20  22
HETATM   22  C   UNL     1      -9.510   9.260  67.702  1.00  0.00    -0.156 A  
HETATM   23  C   UNL     1     -11.086  11.614  67.503  1.00  0.00    -0.276 A  
HETATM   24  C   UNL     1     -10.786  11.065  68.754  1.00  0.00    -0.253 A  
HETATM   25  C   UNL     1      -9.843   9.805  66.459  1.00  0.00    -0.286 A  
HETATM   26  C   UNL     1      -9.999   9.892  68.857  1.00  0.00    -0.188 A  
HETATM   27  C   UNL     1     -10.594  10.978  66.364  1.00  0.00    -0.308 A  
BRANCH  23  28
HETATM   28  O   UNL     1     -11.864  12.765  67.463  1.00  0.00    -0.360 OA 
BRANCH  28  29
HETATM   29  C   UNL     1     -11.522  13.671  68.526  1.00  0.00    -0.312 C  
BRANCH  29  30
HETATM   30  C   UNL     1     -12.586  13.940  69.606  1.00  0.00     0.003 C  
BRANCH  30  31
HETATM   31  N   UNL     1     -12.048  13.644  70.963  1.00  0.00    -0.274 NA 
HETATM   32  C   UNL     1     -11.361  14.777  71.611  1.00  0.00     0.028 C  
HETATM   33  C   UNL     1     -12.306  15.950  71.852  1.00  0.00    -0.541 C  
HETATM   34  C   UNL     1     -13.422  15.515  72.796  1.00  0.00    -0.650 C  
HETATM   35  C   UNL     1     -14.072  14.195  72.368  1.00  0.00    -0.570 C  
HETATM   36  C   UNL     1     -13.071  13.134  71.888  1.00  0.00    -0.385 C  
ENDBRANCH  30  31
ENDBRANCH  29  30
ENDBRANCH  28  29
ENDBRANCH  23  28
ENDBRANCH  20  22
ENDBRANCH  10  20
ENDBRANCH   6   9
TORSDOF 7
ENDMDL
MODEL       98
REMARK 921   NORMALIZED FREE ENERGY PREDICTED BY IDOCK:   -5.50 KCAL/MOL
REMARK 922        TOTAL FREE ENERGY PREDICTED BY IDOCK:   -9.84 KCAL/MOL
REMARK 923 INTER-LIGAND FREE ENERGY PREDICTED BY IDOCK:   -8.54 KCAL/MOL
REMARK 924 INTRA-LIGAND FREE ENERGY PREDICTED BY IDOCK:   -1.29 KCAL/MOL
REMARK 927      BINDING AFFINITY PREDICTED BY RF-SCORE:    0.00 PKD
ROOT
HETATM    1  O   UNL     1      -9.387   8.365  72.987  1.00  0.00    -0.253 OA 
HETATM    2  H   UNL     1     -10.111   8.076  73.530  1.00  0.00     0.000 HD 
HETATM    3  C   UNL     1      -9.577   8.831  71.722  1.00  0.00    -0.301 A  
HETATM    4  C   UNL     1      -8.518   9.253  70.929  1.00  0.00    -0.203 A  
HETATM    5  C   UNL     1      -8.768   9.782  69.652  1.00  0.00    -0.211 A  
HETATM    6  C   UNL     1     -10.075   9.880  69.144  1.00  0.00    -0.210 A  
HETATM    7  C   UNL     1     -11.116   9.382  69.953  1.00  0.00    -0.223 A  
HETATM    8  C   UNL     1     -10.871   8.878  71.239  1.00  0.00    -0.360 A  
ENDROOT
BRANCH   6   9
HETATM    9  C   UNL     1     -10.372  10.546  67.839  1.00  0.00    -0.192 A  
HETATM   10  C   UNL     1      -9.930  10.330  66.524  1.00  0.00    -0.280 A  
HETATM   11  C   UNL     1     -11.262  12.268  63.451  1.00  0.00    -0.497 A  
HETATM   12  C   UNL     1     -10.585  11.224  65.570  1.00  0.00    -0.306 A  
HETATM   13  O   UNL     1     -12.724  14.110  63.418  1.00  0.00    -0.945 OA 
HETATM   14  C   UNL     1     -11.412  12.142  66.214  1.00  0.00    -0.374 A  
HETATM   15  H   UNL     1     -12.652  14.144  62.471  1.00  0.00     0.000 HD 
HETATM   16  C   UNL     1     -10.546  11.289  64.147  1.00  0.00    -0.437 A  
HETATM   17  S   UNL     1     -11.409  11.919  67.901  1.00  0.00    -0.312 SA 
HETATM   18  C   UNL     1     -12.152  13.121  65.522  1.00  0.00    -0.490 A  
HETATM   19  C   UNL     1     -12.047  13.171  64.139  1.00  0.00    -0.430 A  
BRANCH  10  20
HETATM   20  C   UNL     1      -9.037   9.229  66.155  1.00  0.00    -0.179 C  
HETATM   21  O   UNL     1      -8.121   9.420  65.354  1.00  0.00    -0.111 OA 
BRANCH  20  22
HETATM   22  C   UNL     1      -9.179   7.848  66.711  1.00  0.00    -0.206 A  
HETATM   23  C   UNL     1      -9.789   5.334  67.883  1.00  0.00    -0.149 A  
HETATM   24  C   UNL     1      -8.494   5.858  67.962  1.00  0.00    -0.110 A  
HETATM   25  C   UNL     1     -10.459   7.298  66.617  1.00  0.00    -0.204 A  
HETATM   26  C   UNL     1      -8.187   7.112  67.381  1.00  0.00    -0.116 A  
HETATM   27  C   UNL     1     -10.765   6.075  67.217  1.00  0.00    -0.400 A  
BRANCH  23  28
HETATM   28  O   UNL     1     -10.031   4.098  68.470  1.00  0.00    -0.064 OA 
BRANCH  28  29
HETATM   29  C   UNL     1      -9.363   3.038  67.766  1.00  0.00    -0.202 C  
BRANCH  29  30
HETATM   30  C   UNL     1      -8.723   3.377  66.406  1.00  0.00    -0.126 C  
BRANCH  30  31
HETATM   31  N   UNL     1      -9.458   2.708  65.296  1.00  0.00    -0.073 NA 
HETATM   32  C   UNL     1     -10.050   3.630  64.309  1.00  0.00    -0.212 C  
HETATM   33  C   UNL     1      -8.984   4.448  63.587  1.00  0.00    -0.139 C  
HETATM   34  C   UNL     1      -8.064   3.511  62.814  1.00  0.00    -0.072 C  
HETATM   35  C   UNL     1      -7.561   2.343  63.671  1.00  0.00    -0.066 C  
HETATM   36  C   UNL     1      -8.637   1.725  64.574  1.00  0.00    -0.092 C  
ENDBRANCH  30  31
ENDBRANCH  29  30
ENDBRANCH  28  29
ENDBRANCH  23  28
ENDBRANCH  20  22
ENDBRANCH  10  20
ENDBRANCH   6   9
TORSDOF 7
ENDMDL
MODEL       99
REMARK 921   NORMALIZED FREE ENERGY PREDICTED BY IDOCK:   -5.47 KCAL/MOL
REMARK 922        TOTAL FREE ENERGY PREDICTED BY IDOCK:   -9.79 KCAL/MOL
REMARK 923 INTER-LIGAND FREE ENERGY PREDICTED BY IDOCK:   -7.31 KCAL/MOL
REMARK 924 INTRA-LIGAND FREE ENERGY PREDICTED BY IDOCK:   -2.48 KCAL/MOL
REMARK 927      BINDING AFFINITY PREDICTED BY RF-SCORE:    0.00 PKD
ROOT
HETATM    1  O   UNL     1     -11.403   7.389  71.299  1.00  0.00    -0.254 OA 
HETATM    2  H   UNL     1     -11.145   6.535  70.974  1.00  0.00     0.000 HD 
HETATM    3  C   UNL     1     -11.192   8.526  70.579  1.00  0.00    -0.242 A  
HETATM    4  C   UNL     1     -11.569   9.775  71.053  1.00  0.00    -0.455 A  
HETATM    5  C   UNL     1     -11.387  10.913  70.251  1.00  0.00    -0.342 A  
HETATM    6  C   UNL     1     -10.809  10.821  68.973  1.00  0.00    -0.278 A  
HETATM    7  C   UNL     1     -10.381   9.546  68.554  1.00  0.00    -0.234 A  
HETATM    8  C   UNL     1     -10.587   8.404  69.343  1.00  0.00    -0.204 A  
ENDROOT
BRANCH   6   9
HETATM    9  C   UNL     1     -10.713  12.000  68.059  1.00  0.00    -0.212 A  
HETATM   10  C   UNL     1      -9.700  12.934  67.794  1.00  0.00    -0.214 A  
HETATM   11  C   UNL     1      -9.952  15.686  65.085  1.00  0.00    -0.118 A  
HETATM   12  C   UNL     1     -10.079  13.873  66.738  1.00  0.00    -0.265 A  
HETATM   13  O   UNL     1     -11.815  16.264  63.771  1.00  0.00    -1.445 OA 
HETATM   14  C   UNL     1     -11.395  13.673  66.326  1.00  0.00    -0.312 A  
HETATM   15  H   UNL     1     -11.307  16.956  63.363  1.00  0.00     0.000 HD 
HETATM   16  C   UNL     1      -9.347  14.894  66.066  1.00  0.00    -0.276 A  
HETATM   17  S   UNL     1     -12.133  12.393  67.168  1.00  0.00     0.205 SA 
HETATM   18  C   UNL     1     -12.008  14.453  65.326  1.00  0.00    -0.382 A  
HETATM   19  C   UNL     1     -11.267  15.464  64.730  1.00  0.00    -0.395 A  
BRANCH  10  20
HETATM   20  C   UNL     1      -8.369  12.860  68.402  1.00  0.00    -0.116 C  
HETATM   21  O   UNL     1      -7.851  13.872  68.877  1.00  0.00    -0.114 OA 
BRANCH  20  22
HETATM   22  C   UNL     1      -7.583  11.590  68.482  1.00  0.00    -0.130 A  
HETATM   23  C   UNL     1      -6.304   9.059  68.350  1.00  0.00    -0.054 A  
HETATM   24  C   UNL     1      -6.540   9.669  69.585  1.00  0.00    -0.048 A  
HETATM   25  C   UNL     1      -7.313  10.979  67.255  1.00  0.00    -0.106 A  
HETATM   26  C   UNL     1      -7.179  10.931  69.655  1.00  0.00    -0.098 A  
HETATM   27  C   UNL     1      -6.710   9.723  67.192  1.00  0.00    -0.075 A  
BRANCH  23  28
HETATM   28  O   UNL     1      -5.671   7.821  68.342  1.00  0.00    -0.027 OA 
BRANCH  28  29
HETATM   29  C   UNL     1      -6.327   6.887  69.215  1.00  0.00    -0.035 C  
BRANCH  29  30
HETATM   30  C   UNL     1      -7.666   6.289  68.745  1.00  0.00    -0.100 C  
BRANCH  30  31
HETATM   31  N   UNL     1      -7.547   5.750  67.361  1.00  0.00    -0.095 NA 
HETATM   32  C   UNL     1      -7.861   4.315  67.232  1.00  0.00    -0.096 C  
HETATM   33  C   UNL     1      -9.310   4.017  67.606  1.00  0.00    -0.222 C  
HETATM   34  C   UNL     1     -10.241   4.757  66.653  1.00  0.00    -0.274 C  
HETATM   35  C   UNL     1      -9.869   6.236  66.499  1.00  0.00    -0.176 C  
HETATM   36  C   UNL     1      -8.360   6.490  66.385  1.00  0.00    -0.120 C  
ENDBRANCH  30  31
ENDBRANCH  29  30
ENDBRANCH  28  29
ENDBRANCH  23  28
ENDBRANCH  20  22
ENDBRANCH  10  20
ENDBRANCH   6   9
TORSDOF 7
ENDMDL
MODEL      100
REMARK 921   NORMALIZED FREE ENERGY PREDICTED BY IDOCK:   -5.46 KCAL/MOL
REMARK 922        TOTAL FREE ENERGY PREDICTED BY IDOCK:   -9.78 KCAL/MOL
REMARK 923 INTER-LIGAND FREE ENERGY PREDICTED BY IDOCK:   -7.61 KCAL/MOL
REMARK 924 INTRA-LIGAND FREE ENERGY PREDICTED BY IDOCK:   -2.17 KCAL/MOL
REMARK 927      BINDING AFFINITY PREDICTED BY RF-SCORE:    0.00 PKD
ROOT
HETATM    1  O   UNL     1      -8.056  10.132  64.775  1.00  0.00    -0.146 OA 
HETATM    2  H   UNL     1      -8.497   9.723  64.040  1.00  0.00     0.000 HD 
HETATM    3  C   UNL     1      -8.744  10.783  65.754  1.00  0.00    -0.186 A  
HETATM    4  C   UNL     1      -8.100  11.381  66.830  1.00  0.00    -0.161 A  
HETATM    5  C   UNL     1      -8.854  11.989  67.847  1.00  0.00    -0.174 A  
HETATM    6  C   UNL     1     -10.258  12.025  67.794  1.00  0.00    -0.211 A  
HETATM    7  C   UNL     1     -10.871  11.464  66.656  1.00  0.00    -0.339 A  
HETATM    8  C   UNL     1     -10.121  10.833  65.652  1.00  0.00    -0.327 A  
ENDROOT
BRANCH   6   9
HETATM    9  C   UNL     1     -11.081  12.562  68.920  1.00  0.00    -0.260 A  
HETATM   10  C   UNL     1     -11.912  11.962  69.879  1.00  0.00    -0.398 A  
HETATM   11  C   UNL     1     -13.632  13.891  72.759  1.00  0.00    -0.493 A  
HETATM   12  C   UNL     1     -12.447  12.936  70.830  1.00  0.00    -0.370 A  
HETATM   13  O   UNL     1     -13.696  16.215  73.116  1.00  0.00    -0.608 OA 
HETATM   14  C   UNL     1     -12.083  14.237  70.488  1.00  0.00    -0.343 A  
HETATM   15  H   UNL     1     -14.235  16.077  73.886  1.00  0.00     0.000 HD 
HETATM   16  C   UNL     1     -13.219  12.780  72.018  1.00  0.00    -0.538 A  
HETATM   17  S   UNL     1     -11.120  14.276  69.087  1.00  0.00    -0.263 SA 
HETATM   18  C   UNL     1     -12.478  15.362  71.238  1.00  0.00    -0.460 A  
HETATM   19  C   UNL     1     -13.266  15.162  72.363  1.00  0.00    -0.395 A  
BRANCH  10  20
HETATM   20  C   UNL     1     -12.081  10.512  69.991  1.00  0.00    -0.274 C  
HETATM   21  O   UNL     1     -13.207  10.016  69.948  1.00  0.00     0.245 OA 
BRANCH  20  22
HETATM   22  C   UNL     1     -10.929   9.571  70.157  1.00  0.00    -0.302 A  
HETATM   23  C   UNL     1      -8.940   7.547  70.259  1.00  0.00    -0.147 A  
HETATM   24  C   UNL     1      -9.207   8.336  71.383  1.00  0.00    -0.218 A  
HETATM   25  C   UNL     1     -10.631   8.793  69.036  1.00  0.00    -0.191 A  
HETATM   26  C   UNL     1     -10.199   9.345  71.336  1.00  0.00    -0.297 A  
HETATM   27  C   UNL     1      -9.673   7.780  69.095  1.00  0.00    -0.161 A  
BRANCH  23  28
HETATM   28  O   UNL     1      -7.954   6.573  70.363  1.00  0.00    -0.111 OA 
BRANCH  28  29
HETATM   29  C   UNL     1      -6.814   6.888  69.546  1.00  0.00    -0.051 C  
BRANCH  29  30
HETATM   30  C   UNL     1      -6.473   5.925  68.394  1.00  0.00    -0.046 C  
BRANCH  30  31
HETATM   31  N   UNL     1      -6.256   6.676  67.125  1.00  0.00    -0.035 NA 
HETATM   32  C   UNL     1      -5.495   5.940  66.099  1.00  0.00    -0.013 C  
HETATM   33  C   UNL     1      -6.227   4.680  65.645  1.00  0.00    -0.031 C  
HETATM   34  C   UNL     1      -7.557   5.069  65.010  1.00  0.00    -0.078 C  
HETATM   35  C   UNL     1      -8.358   6.046  65.877  1.00  0.00    -0.138 C  
HETATM   36  C   UNL     1      -7.508   7.152  66.518  1.00  0.00    -0.088 C  
ENDBRANCH  30  31
ENDBRANCH  29  30
ENDBRANCH  28  29
ENDBRANCH  23  28
ENDBRANCH  20  22
ENDBRANCH  10  20
ENDBRANCH   6   9
TORSDOF 7
ENDMDL
MODEL      101
REMARK 921   NORMALIZED FREE ENERGY PREDICTED BY IDOCK:   -5.45 KCAL/MOL
REMARK 922        TOTAL FREE ENERGY PREDICTED BY IDOCK:   -9.76 KCAL/MOL
REMARK 923 INTER-LIGAND FREE ENERGY PREDICTED BY IDOCK:   -8.19 KCAL/MOL
REMARK 924 INTRA-LIGAND FREE ENERGY PREDICTED BY IDOCK:   -1.56 KCAL/MOL
REMARK 927      BINDING AFFINITY PREDICTED BY RF-SCORE:    0.00 PKD
ROOT
HETATM    1  O   UNL     1     -11.962  16.224  63.710  1.00  0.00    -1.409 OA 
HETATM    2  H   UNL     1     -11.665  17.115  63.852  1.00  0.00     0.000 HD 
HETATM    3  C   UNL     1     -11.606  15.206  64.541  1.00  0.00    -0.329 A  
HETATM    4  C   UNL     1     -12.040  13.904  64.334  1.00  0.00    -0.477 A  
HETATM    5  C   UNL     1     -11.697  12.897  65.251  1.00  0.00    -0.399 A  
HETATM    6  C   UNL     1     -10.901  13.174  66.376  1.00  0.00    -0.299 A  
HETATM    7  C   UNL     1     -10.428  14.493  66.517  1.00  0.00    -0.285 A  
HETATM    8  C   UNL     1     -10.791  15.505  65.616  1.00  0.00    -0.354 A  
ENDROOT
BRANCH   6   9
HETATM    9  C   UNL     1     -10.623  12.144  67.423  1.00  0.00    -0.226 A  
HETATM   10  C   UNL     1      -9.548  11.271  67.655  1.00  0.00    -0.180 A  
HETATM   11  C   UNL     1      -9.278   8.947  70.738  1.00  0.00    -0.272 A  
HETATM   12  C   UNL     1      -9.726  10.494  68.881  1.00  0.00    -0.206 A  
HETATM   13  O   UNL     1     -10.892   8.548  72.401  1.00  0.00    -0.346 OA 
HETATM   14  C   UNL     1     -10.967  10.737  69.465  1.00  0.00    -0.266 A  
HETATM   15  H   UNL     1     -10.304   7.929  72.817  1.00  0.00     0.000 HD 
HETATM   16  C   UNL     1      -8.863   9.593  69.569  1.00  0.00    -0.197 A  
HETATM   17  S   UNL     1     -11.872  11.870  68.576  1.00  0.00    -0.228 SA 
HETATM   18  C   UNL     1     -11.389  10.107  70.652  1.00  0.00    -0.433 A  
HETATM   19  C   UNL     1     -10.529   9.203  71.262  1.00  0.00    -0.328 A  
BRANCH  10  20
HETATM   20  C   UNL     1      -8.333  11.270  66.839  1.00  0.00    -0.155 C  
HETATM   21  O   UNL     1      -7.479  12.144  67.001  1.00  0.00    -0.146 OA 
BRANCH  20  22
HETATM   22  C   UNL     1      -8.059  10.238  65.791  1.00  0.00    -0.149 A  
HETATM   23  C   UNL     1      -7.179   8.373  63.838  1.00  0.00    -0.094 A  
HETATM   24  C   UNL     1      -8.380   9.069  63.663  1.00  0.00    -0.178 A  
HETATM   25  C   UNL     1      -6.877   9.514  65.963  1.00  0.00    -0.090 A  
HETATM   26  C   UNL     1      -8.821  10.001  64.634  1.00  0.00    -0.227 A  
HETATM   27  C   UNL     1      -6.431   8.618  64.990  1.00  0.00    -0.061 A  
BRANCH  23  28
HETATM   28  O   UNL     1      -6.797   7.470  62.854  1.00  0.00    -0.067 OA 
BRANCH  28  29
HETATM   29  C   UNL     1      -6.963   6.110  63.292  1.00  0.00    -0.046 C  
BRANCH  29  30
HETATM   30  C   UNL     1      -8.380   5.656  63.688  1.00  0.00    -0.048 C  
BRANCH  30  31
HETATM   31  N   UNL     1      -8.332   4.734  64.858  1.00  0.00    -0.127 NA 
HETATM   32  C   UNL     1      -9.589   4.011  65.121  1.00  0.00    -0.181 C  
HETATM   33  C   UNL     1      -9.970   3.095  63.963  1.00  0.00    -0.169 C  
HETATM   34  C   UNL     1      -8.888   2.038  63.776  1.00  0.00    -0.090 C  
HETATM   35  C   UNL     1      -7.479   2.642  63.732  1.00  0.00    -0.066 C  
HETATM   36  C   UNL     1      -7.243   3.750  64.767  1.00  0.00    -0.067 C  
ENDBRANCH  30  31
ENDBRANCH  29  30
ENDBRANCH  28  29
ENDBRANCH  23  28
ENDBRANCH  20  22
ENDBRANCH  10  20
ENDBRANCH   6   9
TORSDOF 7
ENDMDL
MODEL      102
REMARK 921   NORMALIZED FREE ENERGY PREDICTED BY IDOCK:   -5.44 KCAL/MOL
REMARK 922        TOTAL FREE ENERGY PREDICTED BY IDOCK:   -9.75 KCAL/MOL
REMARK 923 INTER-LIGAND FREE ENERGY PREDICTED BY IDOCK:   -8.02 KCAL/MOL
REMARK 924 INTRA-LIGAND FREE ENERGY PREDICTED BY IDOCK:   -1.74 KCAL/MOL
REMARK 927      BINDING AFFINITY PREDICTED BY RF-SCORE:    0.00 PKD
ROOT
HETATM    1  O   UNL     1     -11.635   5.586  73.310  1.00  0.00    -0.511 OA 
HETATM    2  H   UNL     1     -11.186   5.070  73.968  1.00  0.00     0.000 HD 
HETATM    3  C   UNL     1     -11.142   5.728  72.048  1.00  0.00    -0.260 A  
HETATM    4  C   UNL     1     -11.799   6.483  71.084  1.00  0.00    -0.383 A  
HETATM    5  C   UNL     1     -11.285   6.552  69.779  1.00  0.00    -0.456 A  
HETATM    6  C   UNL     1     -10.100   5.884  69.424  1.00  0.00    -0.260 A  
HETATM    7  C   UNL     1      -9.430   5.182  70.445  1.00  0.00    -0.229 A  
HETATM    8  C   UNL     1      -9.956   5.090  71.742  1.00  0.00    -0.250 A  
ENDROOT
BRANCH   6   9
HETATM    9  C   UNL     1      -9.600   5.849  68.015  1.00  0.00    -0.116 A  
HETATM   10  C   UNL     1      -8.997   6.804  67.183  1.00  0.00    -0.116 A  
HETATM   11  C   UNL     1      -7.674   6.045  63.627  1.00  0.00    -0.100 A  
HETATM   12  C   UNL     1      -8.621   6.244  65.886  1.00  0.00    -0.150 A  
HETATM   13  O   UNL     1      -7.907   4.062  62.383  1.00  0.00    -0.059 OA 
HETATM   14  C   UNL     1      -9.047   4.924  65.756  1.00  0.00    -0.148 A  
HETATM   15  H   UNL     1      -7.443   4.466  61.660  1.00  0.00     0.000 HD 
HETATM   16  C   UNL     1      -7.891   6.790  64.790  1.00  0.00    -0.119 A  
HETATM   17  S   UNL     1      -9.853   4.381  67.152  1.00  0.00    -0.140 SA 
HETATM   18  C   UNL     1      -8.818   4.158  64.596  1.00  0.00    -0.136 A  
HETATM   19  C   UNL     1      -8.140   4.748  63.539  1.00  0.00    -0.101 A  
BRANCH  10  20
HETATM   20  C   UNL     1      -8.652   8.153  67.638  1.00  0.00    -0.130 C  
HETATM   21  O   UNL     1      -7.512   8.397  68.035  1.00  0.00    -0.094 OA 
BRANCH  20  22
HETATM   22  C   UNL     1      -9.632   9.283  67.645  1.00  0.00    -0.172 A  
HETATM   23  C   UNL     1     -11.313  11.553  67.355  1.00  0.00    -0.298 A  
HETATM   24  C   UNL     1     -10.937  11.108  68.627  1.00  0.00    -0.268 A  
HETATM   25  C   UNL     1     -10.041   9.724  66.384  1.00  0.00    -0.313 A  
HETATM   26  C   UNL     1     -10.097   9.978  68.775  1.00  0.00    -0.197 A  
HETATM   27  C   UNL     1     -10.845  10.856  66.242  1.00  0.00    -0.191 A  
BRANCH  23  28
HETATM   28  O   UNL     1     -12.140  12.667  67.270  1.00  0.00    -0.448 OA 
BRANCH  28  29
HETATM   29  C   UNL     1     -11.736  13.696  68.189  1.00  0.00    -0.357 C  
BRANCH  29  30
HETATM   30  C   UNL     1     -11.135  14.985  67.599  1.00  0.00    -0.316 C  
BRANCH  30  31
HETATM   31  N   UNL     1     -11.042  16.049  68.638  1.00  0.00    -0.329 NA 
HETATM   32  C   UNL     1     -10.256  15.676  69.828  1.00  0.00    -0.300 C  
HETATM   33  C   UNL     1      -8.798  15.392  69.479  1.00  0.00    -0.217 C  
HETATM   34  C   UNL     1      -8.159  16.653  68.909  1.00  0.00    -0.235 C  
HETATM   35  C   UNL     1      -9.010  17.296  67.808  1.00  0.00    -0.234 C  
HETATM   36  C   UNL     1     -10.514  17.318  68.114  1.00  0.00    -0.382 C  
ENDBRANCH  30  31
ENDBRANCH  29  30
ENDBRANCH  28  29
ENDBRANCH  23  28
ENDBRANCH  20  22
ENDBRANCH  10  20
ENDBRANCH   6   9
TORSDOF 7
ENDMDL
MODEL      103
REMARK 921   NORMALIZED FREE ENERGY PREDICTED BY IDOCK:   -5.39 KCAL/MOL
REMARK 922        TOTAL FREE ENERGY PREDICTED BY IDOCK:   -9.68 KCAL/MOL
REMARK 923 INTER-LIGAND FREE ENERGY PREDICTED BY IDOCK:   -7.38 KCAL/MOL
REMARK 924 INTRA-LIGAND FREE ENERGY PREDICTED BY IDOCK:   -2.30 KCAL/MOL
REMARK 927      BINDING AFFINITY PREDICTED BY RF-SCORE:    0.00 PKD
ROOT
HETATM    1  O   UNL     1     -13.868  11.801  72.447  1.00  0.00    -0.382 OA 
HETATM    2  H   UNL     1     -13.770  12.716  72.211  1.00  0.00     0.000 HD 
HETATM    3  C   UNL     1     -13.132  10.821  71.851  1.00  0.00    -0.451 A  
HETATM    4  C   UNL     1     -13.275   9.484  72.197  1.00  0.00    -0.539 A  
HETATM    5  C   UNL     1     -12.453   8.515  71.600  1.00  0.00    -0.370 A  
HETATM    6  C   UNL     1     -11.491   8.866  70.637  1.00  0.00    -0.280 A  
HETATM    7  C   UNL     1     -11.420  10.223  70.267  1.00  0.00    -0.395 A  
HETATM    8  C   UNL     1     -12.223  11.196  70.882  1.00  0.00    -0.468 A  
ENDROOT
BRANCH   6   9
HETATM    9  C   UNL     1     -10.529   7.868  70.076  1.00  0.00    -0.231 A  
HETATM   10  C   UNL     1      -9.129   7.820  69.994  1.00  0.00    -0.150 A  
HETATM   11  C   UNL     1      -7.147   4.797  68.612  1.00  0.00    -0.057 A  
HETATM   12  C   UNL     1      -8.655   6.568  69.405  1.00  0.00    -0.134 A  
HETATM   13  O   UNL     1      -7.988   2.861  67.575  1.00  0.00    -0.074 OA 
HETATM   14  C   UNL     1      -9.715   5.773  68.974  1.00  0.00    -0.140 A  
HETATM   15  H   UNL     1      -7.101   2.547  67.450  1.00  0.00     0.000 HD 
HETATM   16  C   UNL     1      -7.346   6.033  69.235  1.00  0.00    -0.083 A  
HETATM   17  S   UNL     1     -11.219   6.503  69.286  1.00  0.00    -0.294 SA 
HETATM   18  C   UNL     1      -9.528   4.518  68.362  1.00  0.00    -0.209 A  
HETATM   19  C   UNL     1      -8.231   4.059  68.180  1.00  0.00    -0.091 A  
BRANCH  10  20
HETATM   20  C   UNL     1      -8.261   8.844  70.580  1.00  0.00    -0.162 C  
HETATM   21  O   UNL     1      -7.923   8.763  71.762  1.00  0.00    -0.244 OA 
BRANCH  20  22
HETATM   22  C   UNL     1      -7.746  10.013  69.803  1.00  0.00    -0.173 A  
HETATM   23  C   UNL     1      -6.812  12.018  68.022  1.00  0.00    -0.078 A  
HETATM   24  C   UNL     1      -6.222  11.858  69.281  1.00  0.00    -0.094 A  
HETATM   25  C   UNL     1      -8.342  10.206  68.554  1.00  0.00    -0.116 A  
HETATM   26  C   UNL     1      -6.684  10.858  70.170  1.00  0.00    -0.081 A  
HETATM   27  C   UNL     1      -7.864  11.174  67.669  1.00  0.00    -0.115 A  
BRANCH  23  28
HETATM   28  O   UNL     1      -6.318  13.018  67.192  1.00  0.00    -0.257 OA 
BRANCH  28  29
HETATM   29  C   UNL     1      -6.888  14.298  67.511  1.00  0.00    -0.135 C  
BRANCH  29  30
HETATM   30  C   UNL     1      -8.158  14.725  66.753  1.00  0.00     0.072 C  
BRANCH  30  31
HETATM   31  N   UNL     1      -9.117  15.404  67.669  1.00  0.00    -0.181 NA 
HETATM   32  C   UNL     1     -10.347  15.891  67.017  1.00  0.00    -0.297 C  
HETATM   33  C   UNL     1     -11.168  14.748  66.429  1.00  0.00    -0.342 C  
HETATM   34  C   UNL     1     -11.606  13.811  67.548  1.00  0.00    -0.387 C  
HETATM   35  C   UNL     1     -10.447  13.413  68.468  1.00  0.00    -0.260 C  
HETATM   36  C   UNL     1      -9.502  14.571  68.818  1.00  0.00    -0.183 C  
ENDBRANCH  30  31
ENDBRANCH  29  30
ENDBRANCH  28  29
ENDBRANCH  23  28
ENDBRANCH  20  22
ENDBRANCH  10  20
ENDBRANCH   6   9
TORSDOF 7
ENDMDL
MODEL      104
REMARK 921   NORMALIZED FREE ENERGY PREDICTED BY IDOCK:   -5.39 KCAL/MOL
REMARK 922        TOTAL FREE ENERGY PREDICTED BY IDOCK:   -9.67 KCAL/MOL
REMARK 923 INTER-LIGAND FREE ENERGY PREDICTED BY IDOCK:   -7.50 KCAL/MOL
REMARK 924 INTRA-LIGAND FREE ENERGY PREDICTED BY IDOCK:   -2.17 KCAL/MOL
REMARK 927      BINDING AFFINITY PREDICTED BY RF-SCORE:    0.00 PKD
ROOT
HETATM    1  O   UNL     1      -6.249  13.456  66.967  1.00  0.00    -0.427 OA 
HETATM    2  H   UNL     1      -6.324  14.280  67.434  1.00  0.00     0.000 HD 
HETATM    3  C   UNL     1      -6.581  12.269  67.546  1.00  0.00    -0.141 A  
HETATM    4  C   UNL     1      -6.472  11.065  66.863  1.00  0.00    -0.108 A  
HETATM    5  C   UNL     1      -6.882   9.871  67.479  1.00  0.00    -0.081 A  
HETATM    6  C   UNL     1      -7.388   9.863  68.791  1.00  0.00    -0.078 A  
HETATM    7  C   UNL     1      -7.423  11.095  69.472  1.00  0.00     0.018 A  
HETATM    8  C   UNL     1      -7.038  12.291  68.849  1.00  0.00    -0.088 A  
ENDROOT
BRANCH   6   9
HETATM    9  C   UNL     1      -7.937   8.623  69.421  1.00  0.00    -0.102 A  
HETATM   10  C   UNL     1      -9.185   7.984  69.363  1.00  0.00    -0.152 A  
HETATM   11  C   UNL     1      -9.959   4.594  71.061  1.00  0.00    -0.270 A  
HETATM   12  C   UNL     1      -9.198   6.732  70.119  1.00  0.00    -0.155 A  
HETATM   13  O   UNL     1      -8.592   3.355  72.519  1.00  0.00    -0.083 OA 
HETATM   14  C   UNL     1      -7.998   6.533  70.798  1.00  0.00    -0.115 A  
HETATM   15  H   UNL     1      -9.280   2.705  72.605  1.00  0.00     0.000 HD 
HETATM   16  C   UNL     1     -10.181   5.708  70.245  1.00  0.00    -0.311 A  
HETATM   17  S   UNL     1      -6.896   7.798  70.517  1.00  0.00    -0.042 SA 
HETATM   18  C   UNL     1      -7.756   5.405  71.607  1.00  0.00    -0.106 A  
HETATM   19  C   UNL     1      -8.761   4.456  71.733  1.00  0.00    -0.115 A  
BRANCH  10  20
HETATM   20  C   UNL     1     -10.281   8.452  68.510  1.00  0.00    -0.201 C  
HETATM   21  O   UNL     1     -10.738   7.716  67.634  1.00  0.00    -0.232 OA 
BRANCH  20  22
HETATM   22  C   UNL     1     -10.894   9.809  68.648  1.00  0.00    -0.223 A  
HETATM   23  C   UNL     1     -11.818  12.494  68.642  1.00  0.00    -0.297 A  
HETATM   24  C   UNL     1     -11.723  11.780  69.841  1.00  0.00    -0.399 A  
HETATM   25  C   UNL     1     -11.023  10.527  67.457  1.00  0.00    -0.365 A  
HETATM   26  C   UNL     1     -11.260  10.442  69.848  1.00  0.00    -0.371 A  
HETATM   27  C   UNL     1     -11.451  11.856  67.458  1.00  0.00    -0.396 A  
BRANCH  23  28
HETATM   28  O   UNL     1     -12.280  13.804  68.696  1.00  0.00    -0.347 OA 
BRANCH  28  29
HETATM   29  C   UNL     1     -11.295  14.689  69.256  1.00  0.00    -0.286 C  
BRANCH  29  30
HETATM   30  C   UNL     1     -10.112  15.099  68.360  1.00  0.00    -0.225 C  
BRANCH  30  31
HETATM   31  N   UNL     1     -10.493  16.229  67.466  1.00  0.00    -0.297 NA 
HETATM   32  C   UNL     1     -10.250  17.568  68.033  1.00  0.00    -0.354 C  
HETATM   33  C   UNL     1      -8.768  17.810  68.299  1.00  0.00    -0.277 C  
HETATM   34  C   UNL     1      -8.000  17.745  66.984  1.00  0.00    -0.238 C  
HETATM   35  C   UNL     1      -8.348  16.499  66.162  1.00  0.00    -0.305 C  
HETATM   36  C   UNL     1      -9.845  16.161  66.148  1.00  0.00    -0.333 C  
ENDBRANCH  30  31
ENDBRANCH  29  30
ENDBRANCH  28  29
ENDBRANCH  23  28
ENDBRANCH  20  22
ENDBRANCH  10  20
ENDBRANCH   6   9
TORSDOF 7
ENDMDL
MODEL      105
REMARK 921   NORMALIZED FREE ENERGY PREDICTED BY IDOCK:   -5.38 KCAL/MOL
REMARK 922        TOTAL FREE ENERGY PREDICTED BY IDOCK:   -9.66 KCAL/MOL
REMARK 923 INTER-LIGAND FREE ENERGY PREDICTED BY IDOCK:   -8.23 KCAL/MOL
REMARK 924 INTRA-LIGAND FREE ENERGY PREDICTED BY IDOCK:   -1.43 KCAL/MOL
REMARK 927      BINDING AFFINITY PREDICTED BY RF-SCORE:    0.00 PKD
ROOT
HETATM    1  O   UNL     1      -5.411   4.592  66.426  1.00  0.00    -0.012 OA 
HETATM    2  H   UNL     1      -4.563   5.001  66.306  1.00  0.00     0.000 HD 
HETATM    3  C   UNL     1      -6.377   5.155  67.204  1.00  0.00    -0.036 A  
HETATM    4  C   UNL     1      -7.618   4.557  67.381  1.00  0.00    -0.082 A  
HETATM    5  C   UNL     1      -8.604   5.204  68.143  1.00  0.00    -0.102 A  
HETATM    6  C   UNL     1      -8.359   6.446  68.754  1.00  0.00    -0.121 A  
HETATM    7  C   UNL     1      -7.068   6.989  68.605  1.00  0.00    -0.092 A  
HETATM    8  C   UNL     1      -6.090   6.358  67.822  1.00  0.00    -0.024 A  
ENDROOT
BRANCH   6   9
HETATM    9  C   UNL     1      -9.430   7.204  69.470  1.00  0.00    -0.151 A  
HETATM   10  C   UNL     1     -10.192   8.337  69.145  1.00  0.00    -0.223 A  
HETATM   11  C   UNL     1     -13.050   9.727  71.351  1.00  0.00    -0.489 A  
HETATM   12  C   UNL     1     -11.182   8.648  70.174  1.00  0.00    -0.152 A  
HETATM   13  O   UNL     1     -13.688   9.036  73.507  1.00  0.00    -0.979 OA 
HETATM   14  C   UNL     1     -11.058   7.804  71.276  1.00  0.00    -0.246 A  
HETATM   15  H   UNL     1     -14.359   9.708  73.519  1.00  0.00     0.000 HD 
HETATM   16  C   UNL     1     -12.233   9.610  70.223  1.00  0.00     0.027 A  
HETATM   17  S   UNL     1      -9.806   6.671  71.064  1.00  0.00    -0.182 SA 
HETATM   18  C   UNL     1     -11.888   7.901  72.410  1.00  0.00    -0.402 A  
HETATM   19  C   UNL     1     -12.869   8.882  72.428  1.00  0.00    -0.380 A  
BRANCH  10  20
HETATM   20  C   UNL     1     -10.096   9.015  67.850  1.00  0.00    -0.197 C  
HETATM   21  O   UNL     1     -10.326   8.396  66.810  1.00  0.00    -0.305 OA 
BRANCH  20  22
HETATM   22  C   UNL     1      -9.727  10.458  67.715  1.00  0.00    -0.181 A  
HETATM   23  C   UNL     1      -8.999  13.131  67.091  1.00  0.00    -0.228 A  
HETATM   24  C   UNL     1      -8.521  12.520  68.254  1.00  0.00    -0.165 A  
HETATM   25  C   UNL     1     -10.218  11.094  66.572  1.00  0.00    -0.275 A  
HETATM   26  C   UNL     1      -8.880  11.187  68.568  1.00  0.00    -0.161 A  
HETATM   27  C   UNL     1      -9.838  12.398  66.252  1.00  0.00    -0.257 A  
BRANCH  23  28
HETATM   28  O   UNL     1      -8.615  14.442  66.835  1.00  0.00    -0.215 OA 
BRANCH  28  29
HETATM   29  C   UNL     1      -9.500  15.384  67.464  1.00  0.00    -0.205 C  
BRANCH  29  30
HETATM   30  C   UNL     1      -9.733  16.730  66.753  1.00  0.00    -0.264 C  
BRANCH  30  31
HETATM   31  N   UNL     1      -9.737  17.852  67.734  1.00  0.00    -0.275 NA 
HETATM   32  C   UNL     1      -8.448  18.555  67.867  1.00  0.00    -0.275 C  
HETATM   33  C   UNL     1      -8.031  19.226  66.562  1.00  0.00    -0.306 C  
HETATM   34  C   UNL     1      -9.067  20.277  66.180  1.00  0.00    -0.227 C  
HETATM   35  C   UNL     1     -10.501  19.738  66.241  1.00  0.00    -0.614 C  
HETATM   36  C   UNL     1     -10.781  18.850  67.461  1.00  0.00    -0.434 C  
ENDBRANCH  30  31
ENDBRANCH  29  30
ENDBRANCH  28  29
ENDBRANCH  23  28
ENDBRANCH  20  22
ENDBRANCH  10  20
ENDBRANCH   6   9
TORSDOF 7
ENDMDL
MODEL      106
REMARK 921   NORMALIZED FREE ENERGY PREDICTED BY IDOCK:   -5.38 KCAL/MOL
REMARK 922        TOTAL FREE ENERGY PREDICTED BY IDOCK:   -9.66 KCAL/MOL
REMARK 923 INTER-LIGAND FREE ENERGY PREDICTED BY IDOCK:   -7.48 KCAL/MOL
REMARK 924 INTRA-LIGAND FREE ENERGY PREDICTED BY IDOCK:   -2.18 KCAL/MOL
REMARK 927      BINDING AFFINITY PREDICTED BY RF-SCORE:    0.00 PKD
ROOT
HETATM    1  O   UNL     1     -12.052   8.514  72.421  1.00  0.00    -0.377 OA 
HETATM    2  H   UNL     1     -12.904   8.474  72.839  1.00  0.00     0.000 HD 
HETATM    3  C   UNL     1     -11.802   9.350  71.375  1.00  0.00    -0.374 A  
HETATM    4  C   UNL     1     -10.557   9.409  70.764  1.00  0.00    -0.371 A  
HETATM    5  C   UNL     1     -10.328  10.329  69.728  1.00  0.00    -0.287 A  
HETATM    6  C   UNL     1     -11.344  11.188  69.277  1.00  0.00    -0.349 A  
HETATM    7  C   UNL     1     -12.611  11.054  69.878  1.00  0.00    -0.202 A  
HETATM    8  C   UNL     1     -12.834  10.154  70.931  1.00  0.00    -0.442 A  
ENDROOT
BRANCH   6   9
HETATM    9  C   UNL     1     -11.089  12.253  68.258  1.00  0.00    -0.240 A  
HETATM   10  C   UNL     1     -10.699  12.223  66.911  1.00  0.00    -0.264 A  
HETATM   11  C   UNL     1     -10.424  15.367  64.671  1.00  0.00    -0.010 A  
HETATM   12  C   UNL     1     -10.655  13.561  66.321  1.00  0.00    -0.288 A  
HETATM   13  O   UNL     1     -10.633  17.623  65.302  1.00  0.00    -0.663 OA 
HETATM   14  C   UNL     1     -10.912  14.547  67.272  1.00  0.00    -0.305 A  
HETATM   15  H   UNL     1     -10.454  17.885  64.407  1.00  0.00     0.000 HD 
HETATM   16  C   UNL     1     -10.437  14.004  64.985  1.00  0.00    -0.440 A  
HETATM   17  S   UNL     1     -11.210  13.880  68.808  1.00  0.00    -0.289 SA 
HETATM   18  C   UNL     1     -10.920  15.921  66.963  1.00  0.00    -0.189 A  
HETATM   19  C   UNL     1     -10.659  16.306  65.655  1.00  0.00    -0.346 A  
BRANCH  10  20
HETATM   20  C   UNL     1     -10.517  10.978  66.161  1.00  0.00    -0.244 C  
HETATM   21  O   UNL     1     -11.388  10.597  65.377  1.00  0.00     0.364 OA 
BRANCH  20  22
HETATM   22  C   UNL     1      -9.299  10.120  66.296  1.00  0.00    -0.214 A  
HETATM   23  C   UNL     1      -7.224   8.210  66.629  1.00  0.00    -0.081 A  
HETATM   24  C   UNL     1      -7.055   9.525  67.074  1.00  0.00    -0.086 A  
HETATM   25  C   UNL     1      -9.441   8.810  65.831  1.00  0.00    -0.278 A  
HETATM   26  C   UNL     1      -8.088  10.479  66.911  1.00  0.00    -0.120 A  
HETATM   27  C   UNL     1      -8.431   7.865  66.020  1.00  0.00    -0.145 A  
BRANCH  23  28
HETATM   28  O   UNL     1      -6.176   7.317  66.813  1.00  0.00    -0.040 OA 
BRANCH  28  29
HETATM   29  C   UNL     1      -6.654   6.001  67.138  1.00  0.00    -0.056 C  
BRANCH  29  30
HETATM   30  C   UNL     1      -7.312   5.800  68.515  1.00  0.00    -0.084 C  
BRANCH  30  31
HETATM   31  N   UNL     1      -8.148   4.566  68.527  1.00  0.00    -0.082 NA 
HETATM   32  C   UNL     1      -8.442   4.037  69.871  1.00  0.00    -0.060 C  
HETATM   33  C   UNL     1      -9.254   5.024  70.703  1.00  0.00    -0.195 C  
HETATM   34  C   UNL     1     -10.597   5.272  70.027  1.00  0.00    -0.300 C  
HETATM   35  C   UNL     1     -10.452   5.598  68.536  1.00  0.00    -0.273 C  
HETATM   36  C   UNL     1      -9.419   4.728  67.805  1.00  0.00    -0.146 C  
ENDBRANCH  30  31
ENDBRANCH  29  30
ENDBRANCH  28  29
ENDBRANCH  23  28
ENDBRANCH  20  22
ENDBRANCH  10  20
ENDBRANCH   6   9
TORSDOF 7
ENDMDL
MODEL      107
REMARK 921   NORMALIZED FREE ENERGY PREDICTED BY IDOCK:   -5.38 KCAL/MOL
REMARK 922        TOTAL FREE ENERGY PREDICTED BY IDOCK:   -9.66 KCAL/MOL
REMARK 923 INTER-LIGAND FREE ENERGY PREDICTED BY IDOCK:   -8.30 KCAL/MOL
REMARK 924 INTRA-LIGAND FREE ENERGY PREDICTED BY IDOCK:   -1.36 KCAL/MOL
REMARK 927      BINDING AFFINITY PREDICTED BY RF-SCORE:    0.00 PKD
ROOT
HETATM    1  O   UNL     1      -6.842   4.838  65.248  1.00  0.00    -0.057 OA 
HETATM    2  H   UNL     1      -7.191   4.639  64.387  1.00  0.00     0.000 HD 
HETATM    3  C   UNL     1      -7.511   5.632  66.129  1.00  0.00    -0.082 A  
HETATM    4  C   UNL     1      -7.001   5.923  67.388  1.00  0.00    -0.069 A  
HETATM    5  C   UNL     1      -7.752   6.697  68.286  1.00  0.00    -0.105 A  
HETATM    6  C   UNL     1      -9.014   7.207  67.932  1.00  0.00    -0.122 A  
HETATM    7  C   UNL     1      -9.469   6.944  66.625  1.00  0.00    -0.209 A  
HETATM    8  C   UNL     1      -8.731   6.148  65.736  1.00  0.00    -0.151 A  
ENDROOT
BRANCH   6   9
HETATM    9  C   UNL     1      -9.879   7.933  68.912  1.00  0.00    -0.173 A  
HETATM   10  C   UNL     1      -9.877   9.244  69.412  1.00  0.00    -0.177 A  
HETATM   11  C   UNL     1     -12.575  10.648  71.806  1.00  0.00    -0.411 A  
HETATM   12  C   UNL     1     -11.000   9.489  70.317  1.00  0.00    -0.317 A  
HETATM   13  O   UNL     1     -14.330   9.487  72.857  1.00  0.00    -0.816 OA 
HETATM   14  C   UNL     1     -11.739   8.329  70.541  1.00  0.00    -0.066 A  
HETATM   15  H   UNL     1     -14.596  10.290  73.290  1.00  0.00     0.000 HD 
HETATM   16  C   UNL     1     -11.466  10.676  70.954  1.00  0.00    -0.205 A  
HETATM   17  S   UNL     1     -11.110   7.004  69.679  1.00  0.00    -0.184 SA 
HETATM   18  C   UNL     1     -12.868   8.294  71.382  1.00  0.00    -0.263 A  
HETATM   19  C   UNL     1     -13.257   9.466  72.015  1.00  0.00    -0.449 A  
BRANCH  10  20
HETATM   20  C   UNL     1      -8.945  10.273  68.947  1.00  0.00    -0.164 C  
HETATM   21  O   UNL     1      -7.741  10.168  69.184  1.00  0.00    -0.091 OA 
BRANCH  20  22
HETATM   22  C   UNL     1      -9.384  11.478  68.176  1.00  0.00    -0.185 A  
HETATM   23  C   UNL     1     -10.040  13.966  66.975  1.00  0.00    -0.256 A  
HETATM   24  C   UNL     1     -10.963  12.914  66.976  1.00  0.00    -0.290 A  
HETATM   25  C   UNL     1      -8.464  12.529  68.140  1.00  0.00    -0.180 A  
HETATM   26  C   UNL     1     -10.639  11.673  67.576  1.00  0.00    -0.245 A  
HETATM   27  C   UNL     1      -8.798  13.760  67.574  1.00  0.00    -0.197 A  
BRANCH  23  28
HETATM   28  O   UNL     1     -10.411  15.161  66.370  1.00  0.00    -0.281 OA 
BRANCH  28  29
HETATM   29  C   UNL     1      -9.289  16.045  66.215  1.00  0.00    -0.322 C  
BRANCH  29  30
HETATM   30  C   UNL     1      -9.377  17.435  66.872  1.00  0.00    -0.263 C  
BRANCH  30  31
HETATM   31  N   UNL     1      -9.336  18.511  65.842  1.00  0.00    -0.445 NA 
HETATM   32  C   UNL     1     -10.535  19.368  65.802  1.00  0.00    -0.392 C  
HETATM   33  C   UNL     1     -10.728  20.133  67.108  1.00  0.00    -0.230 C  
HETATM   34  C   UNL     1      -9.537  21.056  67.335  1.00  0.00    -0.261 C  
HETATM   35  C   UNL     1      -8.195  20.336  67.161  1.00  0.00    -0.385 C  
HETATM   36  C   UNL     1      -8.153  19.376  65.964  1.00  0.00    -0.250 C  
ENDBRANCH  30  31
ENDBRANCH  29  30
ENDBRANCH  28  29
ENDBRANCH  23  28
ENDBRANCH  20  22
ENDBRANCH  10  20
ENDBRANCH   6   9
TORSDOF 7
ENDMDL
MODEL      108
REMARK 921   NORMALIZED FREE ENERGY PREDICTED BY IDOCK:   -5.38 KCAL/MOL
REMARK 922        TOTAL FREE ENERGY PREDICTED BY IDOCK:   -9.66 KCAL/MOL
REMARK 923 INTER-LIGAND FREE ENERGY PREDICTED BY IDOCK:   -8.67 KCAL/MOL
REMARK 924 INTRA-LIGAND FREE ENERGY PREDICTED BY IDOCK:   -0.99 KCAL/MOL
REMARK 927      BINDING AFFINITY PREDICTED BY RF-SCORE:    0.00 PKD
ROOT
HETATM    1  O   UNL     1     -13.664  15.536  71.970  1.00  0.00    -0.458 OA 
HETATM    2  H   UNL     1     -14.295  15.266  72.627  1.00  0.00     0.000 HD 
HETATM    3  C   UNL     1     -13.016  14.633  71.182  1.00  0.00    -0.350 A  
HETATM    4  C   UNL     1     -12.094  15.028  70.221  1.00  0.00    -0.378 A  
HETATM    5  C   UNL     1     -11.495  14.067  69.390  1.00  0.00    -0.343 A  
HETATM    6  C   UNL     1     -11.794  12.700  69.521  1.00  0.00    -0.376 A  
HETATM    7  C   UNL     1     -12.685  12.334  70.548  1.00  0.00    -0.058 A  
HETATM    8  C   UNL     1     -13.305  13.294  71.361  1.00  0.00    -0.241 A  
ENDROOT
BRANCH   6   9
HETATM    9  C   UNL     1     -11.257  11.676  68.572  1.00  0.00    -0.256 A  
HETATM   10  C   UNL     1     -10.719  11.750  67.278  1.00  0.00    -0.279 A  
HETATM   11  C   UNL     1      -9.242   8.721  65.375  1.00  0.00    -0.155 A  
HETATM   12  C   UNL     1     -10.261  10.447  66.798  1.00  0.00    -0.282 A  
HETATM   13  O   UNL     1      -9.268   6.456  66.008  1.00  0.00    -0.261 OA 
HETATM   14  C   UNL     1     -10.566   9.432  67.703  1.00  0.00    -0.271 A  
HETATM   15  H   UNL     1      -8.823   6.230  65.200  1.00  0.00     0.000 HD 
HETATM   16  C   UNL     1      -9.554  10.061  65.622  1.00  0.00    -0.313 A  
HETATM   17  S   UNL     1     -11.357  10.035  69.083  1.00  0.00    -0.027 SA 
HETATM   18  C   UNL     1     -10.240   8.081  67.474  1.00  0.00    -0.311 A  
HETATM   19  C   UNL     1      -9.590   7.750  66.293  1.00  0.00    -0.108 A  
BRANCH  10  20
HETATM   20  C   UNL     1     -10.506  13.017  66.575  1.00  0.00    -0.277 C  
HETATM   21  O   UNL     1     -11.359  13.442  65.795  1.00  0.00    -0.301 OA 
BRANCH  20  22
HETATM   22  C   UNL     1      -9.276  13.849  66.757  1.00  0.00    -0.267 A  
HETATM   23  C   UNL     1      -6.876  15.220  67.408  1.00  0.00    -0.154 A  
HETATM   24  C   UNL     1      -7.972  15.917  66.892  1.00  0.00    -0.287 A  
HETATM   25  C   UNL     1      -8.161  13.164  67.246  1.00  0.00    -0.172 A  
HETATM   26  C   UNL     1      -9.171  15.237  66.568  1.00  0.00    -0.321 A  
HETATM   27  C   UNL     1      -6.992  13.842  67.592  1.00  0.00    -0.189 A  
BRANCH  23  28
HETATM   28  O   UNL     1      -5.724  15.939  67.706  1.00  0.00    -0.127 OA 
BRANCH  28  29
HETATM   29  C   UNL     1      -5.764  16.470  69.041  1.00  0.00    -0.138 C  
BRANCH  29  30
HETATM   30  C   UNL     1      -5.505  17.978  69.218  1.00  0.00    -0.196 C  
BRANCH  30  31
HETATM   31  N   UNL     1      -6.790  18.727  69.311  1.00  0.00    -0.270 NA 
HETATM   32  C   UNL     1      -6.648  20.142  69.701  1.00  0.00    -0.250 C  
HETATM   33  C   UNL     1      -5.847  20.936  68.674  1.00  0.00    -0.373 C  
HETATM   34  C   UNL     1      -6.582  20.921  67.338  1.00  0.00    -0.412 C  
HETATM   35  C   UNL     1      -7.014  19.511  66.921  1.00  0.00    -0.213 C  
HETATM   36  C   UNL     1      -7.580  18.667  68.072  1.00  0.00    -0.260 C  
ENDBRANCH  30  31
ENDBRANCH  29  30
ENDBRANCH  28  29
ENDBRANCH  23  28
ENDBRANCH  20  22
ENDBRANCH  10  20
ENDBRANCH   6   9
TORSDOF 7
ENDMDL
MODEL      109
REMARK 921   NORMALIZED FREE ENERGY PREDICTED BY IDOCK:   -5.36 KCAL/MOL
REMARK 922        TOTAL FREE ENERGY PREDICTED BY IDOCK:   -9.63 KCAL/MOL
REMARK 923 INTER-LIGAND FREE ENERGY PREDICTED BY IDOCK:   -7.20 KCAL/MOL
REMARK 924 INTRA-LIGAND FREE ENERGY PREDICTED BY IDOCK:   -2.42 KCAL/MOL
REMARK 927      BINDING AFFINITY PREDICTED BY RF-SCORE:    0.00 PKD
ROOT
HETATM    1  O   UNL     1     -11.956   5.629  72.759  1.00  0.00    -0.518 OA 
HETATM    2  H   UNL     1     -12.261   5.742  73.652  1.00  0.00     0.000 HD 
HETATM    3  C   UNL     1     -11.708   6.692  71.944  1.00  0.00    -0.313 A  
HETATM    4  C   UNL     1     -11.262   6.527  70.639  1.00  0.00    -0.386 A  
HETATM    5  C   UNL     1     -10.962   7.653  69.855  1.00  0.00    -0.208 A  
HETATM    6  C   UNL     1     -11.120   8.956  70.357  1.00  0.00    -0.270 A  
HETATM    7  C   UNL     1     -11.635   9.083  71.662  1.00  0.00    -0.426 A  
HETATM    8  C   UNL     1     -11.911   7.959  72.456  1.00  0.00    -0.390 A  
ENDROOT
BRANCH   6   9
HETATM    9  C   UNL     1     -10.697  10.162  69.581  1.00  0.00    -0.264 A  
HETATM   10  C   UNL     1      -9.499  10.528  68.946  1.00  0.00    -0.199 A  
HETATM   11  C   UNL     1      -9.065  13.747  66.843  1.00  0.00    -0.253 A  
HETATM   12  C   UNL     1      -9.617  11.807  68.247  1.00  0.00    -0.199 A  
HETATM   13  O   UNL     1     -10.587  15.518  66.568  1.00  0.00    -0.299 OA 
HETATM   14  C   UNL     1     -10.858  12.399  68.468  1.00  0.00    -0.242 A  
HETATM   15  H   UNL     1      -9.956  15.971  66.021  1.00  0.00     0.000 HD 
HETATM   16  C   UNL     1      -8.722  12.504  67.384  1.00  0.00    -0.189 A  
HETATM   17  S   UNL     1     -11.846  11.439  69.466  1.00  0.00    -0.371 SA 
HETATM   18  C   UNL     1     -11.221  13.642  67.913  1.00  0.00    -0.300 A  
HETATM   19  C   UNL     1     -10.299  14.303  67.115  1.00  0.00    -0.262 A  
BRANCH  10  20
HETATM   20  C   UNL     1      -8.334   9.644  68.873  1.00  0.00    -0.116 C  
HETATM   21  O   UNL     1      -7.620   9.480  69.863  1.00  0.00    -0.090 OA 
BRANCH  20  22
HETATM   22  C   UNL     1      -7.953   8.905  67.629  1.00  0.00    -0.102 A  
HETATM   23  C   UNL     1      -7.581   7.375  65.266  1.00  0.00    -0.098 A  
HETATM   24  C   UNL     1      -6.558   7.473  66.215  1.00  0.00    -0.049 A  
HETATM   25  C   UNL     1      -8.953   8.820  66.658  1.00  0.00    -0.168 A  
HETATM   26  C   UNL     1      -6.741   8.234  67.395  1.00  0.00    -0.063 A  
HETATM   27  C   UNL     1      -8.780   8.045  65.510  1.00  0.00    -0.134 A  
BRANCH  23  28
HETATM   28  O   UNL     1      -7.345   6.616  64.126  1.00  0.00    -0.065 OA 
BRANCH  28  29
HETATM   29  C   UNL     1      -8.210   5.470  64.066  1.00  0.00    -0.117 C  
BRANCH  29  30
HETATM   30  C   UNL     1      -7.885   4.281  64.989  1.00  0.00    -0.089 C  
BRANCH  30  31
HETATM   31  N   UNL     1      -9.125   3.535  65.347  1.00  0.00    -0.139 NA 
HETATM   32  C   UNL     1      -8.931   2.466  66.344  1.00  0.00    -0.115 C  
HETATM   33  C   UNL     1      -8.450   3.018  67.682  1.00  0.00    -0.101 C  
HETATM   34  C   UNL     1      -9.505   3.960  68.249  1.00  0.00    -0.212 C  
HETATM   35  C   UNL     1      -9.986   4.991  67.221  1.00  0.00    -0.220 C  
HETATM   36  C   UNL     1     -10.207   4.413  65.817  1.00  0.00    -0.234 C  
ENDBRANCH  30  31
ENDBRANCH  29  30
ENDBRANCH  28  29
ENDBRANCH  23  28
ENDBRANCH  20  22
ENDBRANCH  10  20
ENDBRANCH   6   9
TORSDOF 7
ENDMDL
MODEL      110
REMARK 921   NORMALIZED FREE ENERGY PREDICTED BY IDOCK:   -5.31 KCAL/MOL
REMARK 922        TOTAL FREE ENERGY PREDICTED BY IDOCK:   -9.57 KCAL/MOL
REMARK 923 INTER-LIGAND FREE ENERGY PREDICTED BY IDOCK:   -7.66 KCAL/MOL
REMARK 924 INTRA-LIGAND FREE ENERGY PREDICTED BY IDOCK:   -1.90 KCAL/MOL
REMARK 927      BINDING AFFINITY PREDICTED BY RF-SCORE:    0.00 PKD
ROOT
HETATM    1  O   UNL     1      -7.468   8.087  66.377  1.00  0.00    -0.084 OA 
HETATM    2  H   UNL     1      -6.988   7.586  67.026  1.00  0.00     0.000 HD 
HETATM    3  C   UNL     1      -7.904   9.354  66.625  1.00  0.00    -0.104 A  
HETATM    4  C   UNL     1      -8.604  10.087  65.676  1.00  0.00    -0.166 A  
HETATM    5  C   UNL     1      -8.982  11.411  65.953  1.00  0.00    -0.184 A  
HETATM    6  C   UNL     1      -8.681  12.013  67.187  1.00  0.00    -0.183 A  
HETATM    7  C   UNL     1      -8.026  11.216  68.147  1.00  0.00    -0.125 A  
HETATM    8  C   UNL     1      -7.625   9.902  67.862  1.00  0.00    -0.090 A  
ENDROOT
BRANCH   6   9
HETATM    9  C   UNL     1      -8.970  13.455  67.458  1.00  0.00    -0.207 A  
HETATM   10  C   UNL     1     -10.152  14.172  67.702  1.00  0.00    -0.236 A  
HETATM   11  C   UNL     1     -10.251  17.936  68.592  1.00  0.00    -0.387 A  
HETATM   12  C   UNL     1      -9.890  15.582  67.986  1.00  0.00    -0.212 A  
HETATM   13  O   UNL     1      -8.470  19.473  68.606  1.00  0.00    -0.357 OA 
HETATM   14  C   UNL     1      -8.539  15.891  67.842  1.00  0.00    -0.163 A  
HETATM   15  H   UNL     1      -9.074  20.163  68.853  1.00  0.00     0.000 HD 
HETATM   16  C   UNL     1     -10.747  16.643  68.400  1.00  0.00    -0.353 A  
HETATM   17  S   UNL     1      -7.624  14.527  67.400  1.00  0.00    -0.137 SA 
HETATM   18  C   UNL     1      -8.026  17.186  68.050  1.00  0.00    -0.212 A  
HETATM   19  C   UNL     1      -8.907  18.196  68.411  1.00  0.00    -0.293 A  
BRANCH  10  20
HETATM   20  C   UNL     1     -11.464  13.530  67.812  1.00  0.00    -0.315 C  
HETATM   21  O   UNL     1     -12.408  13.938  67.134  1.00  0.00    -0.372 OA 
BRANCH  20  22
HETATM   22  C   UNL     1     -11.729  12.375  68.724  1.00  0.00    -0.379 A  
HETATM   23  C   UNL     1     -12.062  10.385  70.723  1.00  0.00    -0.364 A  
HETATM   24  C   UNL     1     -11.771  10.023  69.404  1.00  0.00    -0.012 A  
HETATM   25  C   UNL     1     -12.048  12.718  70.040  1.00  0.00    -0.355 A  
HETATM   26  C   UNL     1     -11.602  11.013  68.405  1.00  0.00    -0.372 A  
HETATM   27  C   UNL     1     -12.184  11.741  71.028  1.00  0.00    -0.303 A  
BRANCH  23  28
HETATM   28  O   UNL     1     -12.219   9.371  71.660  1.00  0.00    -0.341 OA 
BRANCH  28  29
HETATM   29  C   UNL     1     -11.176   8.387  71.553  1.00  0.00    -0.267 C  
BRANCH  29  30
HETATM   30  C   UNL     1     -10.308   8.128  72.799  1.00  0.00    -0.313 C  
BRANCH  30  31
HETATM   31  N   UNL     1      -9.333   7.031  72.544  1.00  0.00    -0.138 NA 
HETATM   32  C   UNL     1      -8.280   7.361  71.566  1.00  0.00    -0.104 C  
HETATM   33  C   UNL     1      -7.402   8.513  72.046  1.00  0.00    -0.110 C  
HETATM   34  C   UNL     1      -6.693   8.107  73.333  1.00  0.00    -0.129 C  
HETATM   35  C   UNL     1      -7.652   7.506  74.367  1.00  0.00    -0.169 C  
HETATM   36  C   UNL     1      -8.686   6.541  73.771  1.00  0.00    -0.125 C  
ENDBRANCH  30  31
ENDBRANCH  29  30
ENDBRANCH  28  29
ENDBRANCH  23  28
ENDBRANCH  20  22
ENDBRANCH  10  20
ENDBRANCH   6   9
TORSDOF 7
ENDMDL
MODEL      111
REMARK 921   NORMALIZED FREE ENERGY PREDICTED BY IDOCK:   -5.31 KCAL/MOL
REMARK 922        TOTAL FREE ENERGY PREDICTED BY IDOCK:   -9.56 KCAL/MOL
REMARK 923 INTER-LIGAND FREE ENERGY PREDICTED BY IDOCK:   -7.44 KCAL/MOL
REMARK 924 INTRA-LIGAND FREE ENERGY PREDICTED BY IDOCK:   -2.12 KCAL/MOL
REMARK 927      BINDING AFFINITY PREDICTED BY RF-SCORE:    0.00 PKD
ROOT
HETATM    1  O   UNL     1      -5.224  11.219  70.567  1.00  0.00    -0.084 OA 
HETATM    2  H   UNL     1      -4.642  11.362  71.304  1.00  0.00     0.000 HD 
HETATM    3  C   UNL     1      -6.022  12.208  70.078  1.00  0.00    -0.156 A  
HETATM    4  C   UNL     1      -6.872  11.998  69.000  1.00  0.00    -0.105 A  
HETATM    5  C   UNL     1      -7.632  13.064  68.491  1.00  0.00    -0.121 A  
HETATM    6  C   UNL     1      -7.568  14.346  69.063  1.00  0.00    -0.106 A  
HETATM    7  C   UNL     1      -6.743  14.503  70.193  1.00  0.00    -0.089 A  
HETATM    8  C   UNL     1      -5.962  13.446  70.687  1.00  0.00    -0.105 A  
ENDROOT
BRANCH   6   9
HETATM    9  C   UNL     1      -8.278  15.518  68.465  1.00  0.00    -0.148 A  
HETATM   10  C   UNL     1      -9.536  16.100  68.689  1.00  0.00    -0.227 A  
HETATM   11  C   UNL     1     -10.756  19.341  66.963  1.00  0.00    -0.565 A  
HETATM   12  C   UNL     1      -9.738  17.302  67.880  1.00  0.00    -0.273 A  
HETATM   13  O   UNL     1      -9.708  20.553  65.242  1.00  0.00    -0.369 OA 
HETATM   14  C   UNL     1      -8.672  17.516  67.009  1.00  0.00    -0.240 A  
HETATM   15  H   UNL     1     -10.436  21.163  65.233  1.00  0.00     0.000 HD 
HETATM   16  C   UNL     1     -10.784  18.269  67.860  1.00  0.00    -0.335 A  
HETATM   17  S   UNL     1      -7.471  16.324  67.175  1.00  0.00    -0.226 SA 
HETATM   18  C   UNL     1      -8.625  18.603  66.114  1.00  0.00    -0.155 A  
HETATM   19  C   UNL     1      -9.689  19.494  66.101  1.00  0.00    -0.387 A  
BRANCH  10  20
HETATM   20  C   UNL     1     -10.455  15.633  69.729  1.00  0.00    -0.308 C  
HETATM   21  O   UNL     1     -10.682  16.338  70.714  1.00  0.00    -0.051 OA 
BRANCH  20  22
HETATM   22  C   UNL     1     -11.156  14.313  69.661  1.00  0.00    -0.218 A  
HETATM   23  C   UNL     1     -12.400  11.772  69.896  1.00  0.00    -0.132 A  
HETATM   24  C   UNL     1     -11.700  12.113  68.734  1.00  0.00    -0.374 A  
HETATM   25  C   UNL     1     -11.884  13.967  70.802  1.00  0.00    -0.289 A  
HETATM   26  C   UNL     1     -11.076  13.379  68.615  1.00  0.00    -0.295 A  
HETATM   27  C   UNL     1     -12.472  12.707  70.928  1.00  0.00    -0.368 A  
BRANCH  23  28
HETATM   28  O   UNL     1     -12.994  10.517  69.956  1.00  0.00    -0.161 OA 
BRANCH  28  29
HETATM   29  C   UNL     1     -12.410   9.705  70.989  1.00  0.00    -0.310 C  
BRANCH  29  30
HETATM   30  C   UNL     1     -10.874   9.598  71.030  1.00  0.00    -0.342 C  
BRANCH  30  31
HETATM   31  N   UNL     1     -10.420   8.294  70.470  1.00  0.00    -0.207 NA 
HETATM   32  C   UNL     1     -10.418   8.226  68.998  1.00  0.00    -0.197 C  
HETATM   33  C   UNL     1      -9.448   9.232  68.385  1.00  0.00    -0.145 C  
HETATM   34  C   UNL     1      -8.030   8.909  68.841  1.00  0.00    -0.104 C  
HETATM   35  C   UNL     1      -7.932   8.707  70.358  1.00  0.00    -0.101 C  
HETATM   36  C   UNL     1      -9.090   7.894  70.953  1.00  0.00    -0.151 C  
ENDBRANCH  30  31
ENDBRANCH  29  30
ENDBRANCH  28  29
ENDBRANCH  23  28
ENDBRANCH  20  22
ENDBRANCH  10  20
ENDBRANCH   6   9
TORSDOF 7
ENDMDL
MODEL      112
REMARK 921   NORMALIZED FREE ENERGY PREDICTED BY IDOCK:   -5.30 KCAL/MOL
REMARK 922        TOTAL FREE ENERGY PREDICTED BY IDOCK:   -9.55 KCAL/MOL
REMARK 923 INTER-LIGAND FREE ENERGY PREDICTED BY IDOCK:   -7.87 KCAL/MOL
REMARK 924 INTRA-LIGAND FREE ENERGY PREDICTED BY IDOCK:   -1.68 KCAL/MOL
REMARK 927      BINDING AFFINITY PREDICTED BY RF-SCORE:    0.00 PKD
ROOT
HETATM    1  O   UNL     1     -12.143  16.408  72.719  1.00  0.00    -0.523 OA 
HETATM    2  H   UNL     1     -11.861  17.311  72.808  1.00  0.00     0.000 HD 
HETATM    3  C   UNL     1     -11.983  15.716  71.556  1.00  0.00    -0.417 A  
HETATM    4  C   UNL     1     -12.395  14.397  71.425  1.00  0.00    -0.433 A  
HETATM    5  C   UNL     1     -12.156  13.704  70.227  1.00  0.00    -0.427 A  
HETATM    6  C   UNL     1     -11.519  14.326  69.139  1.00  0.00    -0.330 A  
HETATM    7  C   UNL     1     -11.174  15.683  69.288  1.00  0.00    -0.320 A  
HETATM    8  C   UNL     1     -11.389  16.369  70.493  1.00  0.00    -0.211 A  
ENDROOT
BRANCH   6   9
HETATM    9  C   UNL     1     -11.151  13.574  67.900  1.00  0.00    -0.265 A  
HETATM   10  C   UNL     1     -10.034  12.806  67.535  1.00  0.00    -0.210 A  
HETATM   11  C   UNL     1      -9.746  10.861  64.202  1.00  0.00    -0.347 A  
HETATM   12  C   UNL     1     -10.189  12.207  66.210  1.00  0.00    -0.249 A  
HETATM   13  O   UNL     1     -11.214  10.901  62.366  1.00  0.00     0.042 OA 
HETATM   14  C   UNL     1     -11.363  12.630  65.591  1.00  0.00    -0.322 A  
HETATM   15  H   UNL     1     -10.642  10.302  61.900  1.00  0.00     0.000 HD 
HETATM   16  C   UNL     1      -9.388  11.275  65.489  1.00  0.00    -0.243 A  
HETATM   17  S   UNL     1     -12.250  13.692  66.580  1.00  0.00    -0.347 SA 
HETATM   18  C   UNL     1     -11.744  12.205  64.303  1.00  0.00    -0.451 A  
HETATM   19  C   UNL     1     -10.908  11.330  63.623  1.00  0.00    -0.333 A  
BRANCH  10  20
HETATM   20  C   UNL     1      -8.928  12.523  68.452  1.00  0.00    -0.130 C  
HETATM   21  O   UNL     1      -8.030  13.352  68.610  1.00  0.00    -0.130 OA 
BRANCH  20  22
HETATM   22  C   UNL     1      -8.824  11.250  69.230  1.00  0.00     0.249 A  
HETATM   23  C   UNL     1      -8.918   8.960  70.907  1.00  0.00    -0.222 A  
HETATM   24  C   UNL     1      -7.690   9.480  70.485  1.00  0.00    -0.177 A  
HETATM   25  C   UNL     1     -10.042  10.701  69.636  1.00  0.00    -0.120 A  
HETATM   26  C   UNL     1      -7.639  10.623  69.651  1.00  0.00    -0.100 A  
HETATM   27  C   UNL     1     -10.087   9.592  70.483  1.00  0.00    -0.347 A  
BRANCH  23  28
HETATM   28  O   UNL     1      -8.907   7.836  71.724  1.00  0.00    -0.113 OA 
BRANCH  28  29
HETATM   29  C   UNL     1      -8.173   6.755  71.124  1.00  0.00    -0.119 C  
BRANCH  29  30
HETATM   30  C   UNL     1      -8.373   5.344  71.709  1.00  0.00    -0.119 C  
BRANCH  30  31
HETATM   31  N   UNL     1      -9.750   4.848  71.429  1.00  0.00    -0.166 NA 
HETATM   32  C   UNL     1     -10.121   4.837  70.002  1.00  0.00    -0.238 C  
HETATM   33  C   UNL     1      -9.233   3.897  69.193  1.00  0.00    -0.222 C  
HETATM   34  C   UNL     1      -9.409   2.471  69.702  1.00  0.00    -0.171 C  
HETATM   35  C   UNL     1      -9.291   2.373  71.227  1.00  0.00    -0.204 C  
HETATM   36  C   UNL     1     -10.000   3.508  71.981  1.00  0.00    -0.157 C  
ENDBRANCH  30  31
ENDBRANCH  29  30
ENDBRANCH  28  29
ENDBRANCH  23  28
ENDBRANCH  20  22
ENDBRANCH  10  20
ENDBRANCH   6   9
TORSDOF 7
ENDMDL
MODEL      113
REMARK 921   NORMALIZED FREE ENERGY PREDICTED BY IDOCK:   -5.29 KCAL/MOL
REMARK 922        TOTAL FREE ENERGY PREDICTED BY IDOCK:   -9.53 KCAL/MOL
REMARK 923 INTER-LIGAND FREE ENERGY PREDICTED BY IDOCK:   -7.44 KCAL/MOL
REMARK 924 INTRA-LIGAND FREE ENERGY PREDICTED BY IDOCK:   -2.09 KCAL/MOL
REMARK 927      BINDING AFFINITY PREDICTED BY RF-SCORE:    0.00 PKD
ROOT
HETATM    1  O   UNL     1      -6.050   8.558  67.974  1.00  0.00    -0.049 OA 
HETATM    2  H   UNL     1      -6.277   7.999  68.707  1.00  0.00     0.000 HD 
HETATM    3  C   UNL     1      -6.306   9.896  67.984  1.00  0.00    -0.055 A  
HETATM    4  C   UNL     1      -5.974  10.715  66.912  1.00  0.00    -0.063 A  
HETATM    5  C   UNL     1      -6.201  12.098  66.991  1.00  0.00    -0.098 A  
HETATM    6  C   UNL     1      -6.779  12.680  68.133  1.00  0.00    -0.082 A  
HETATM    7  C   UNL     1      -7.159  11.809  69.173  1.00  0.00    -0.071 A  
HETATM    8  C   UNL     1      -6.909  10.430  69.107  1.00  0.00    -0.066 A  
ENDROOT
BRANCH   6   9
HETATM    9  C   UNL     1      -6.921  14.160  68.284  1.00  0.00    -0.106 A  
HETATM   10  C   UNL     1      -7.852  15.093  67.802  1.00  0.00    -0.161 A  
HETATM   11  C   UNL     1      -7.838  18.846  68.744  1.00  0.00    -0.359 A  
HETATM   12  C   UNL     1      -7.588  16.442  68.301  1.00  0.00    -0.163 A  
HETATM   13  O   UNL     1      -6.224  20.026  69.983  1.00  0.00    -0.330 OA 
HETATM   14  C   UNL     1      -6.414  16.489  69.050  1.00  0.00    -0.182 A  
HETATM   15  H   UNL     1      -6.720  20.827  69.859  1.00  0.00     0.000 HD 
HETATM   16  C   UNL     1      -8.318  17.660  68.182  1.00  0.00    -0.259 A  
HETATM   17  S   UNL     1      -5.674  14.962  69.160  1.00  0.00    -0.097 SA 
HETATM   18  C   UNL     1      -5.930  17.675  69.637  1.00  0.00    -0.254 A  
HETATM   19  C   UNL     1      -6.655  18.845  69.456  1.00  0.00    -0.226 A  
BRANCH  10  20
HETATM   20  C   UNL     1      -9.032  14.711  67.024  1.00  0.00    -0.240 C  
HETATM   21  O   UNL     1      -9.229  15.211  65.915  1.00  0.00    -0.296 OA 
BRANCH  20  22
HETATM   22  C   UNL     1     -10.040  13.718  67.511  1.00  0.00    -0.241 A  
HETATM   23  C   UNL     1     -11.872  11.959  68.781  1.00  0.00    -0.313 A  
HETATM   24  C   UNL     1     -11.128  11.531  67.676  1.00  0.00    -0.324 A  
HETATM   25  C   UNL     1     -10.811  14.138  68.597  1.00  0.00    -0.268 A  
HETATM   26  C   UNL     1     -10.213  12.405  67.042  1.00  0.00    -0.232 A  
HETATM   27  C   UNL     1     -11.691  13.264  69.238  1.00  0.00    -0.380 A  
BRANCH  23  28
HETATM   28  O   UNL     1     -12.757  11.059  69.362  1.00  0.00    -0.279 OA 
BRANCH  28  29
HETATM   29  C   UNL     1     -12.302  10.631  70.656  1.00  0.00    -0.369 C  
BRANCH  29  30
HETATM   30  C   UNL     1     -12.258   9.117  70.934  1.00  0.00    -0.183 C  
BRANCH  30  31
HETATM   31  N   UNL     1     -11.076   8.768  71.772  1.00  0.00    -0.322 NA 
HETATM   32  C   UNL     1     -11.354   7.804  72.852  1.00  0.00    -0.349 C  
HETATM   33  C   UNL     1     -11.812   6.455  72.305  1.00  0.00    -0.315 C  
HETATM   34  C   UNL     1     -10.702   5.851  71.453  1.00  0.00    -0.319 C  
HETATM   35  C   UNL     1     -10.140   6.845  70.430  1.00  0.00    -0.201 C  
HETATM   36  C   UNL     1      -9.942   8.263  70.983  1.00  0.00    -0.187 C  
ENDBRANCH  30  31
ENDBRANCH  29  30
ENDBRANCH  28  29
ENDBRANCH  23  28
ENDBRANCH  20  22
ENDBRANCH  10  20
ENDBRANCH   6   9
TORSDOF 7
ENDMDL
MODEL      114
REMARK 921   NORMALIZED FREE ENERGY PREDICTED BY IDOCK:   -5.27 KCAL/MOL
REMARK 922        TOTAL FREE ENERGY PREDICTED BY IDOCK:   -9.50 KCAL/MOL
REMARK 923 INTER-LIGAND FREE ENERGY PREDICTED BY IDOCK:   -7.34 KCAL/MOL
REMARK 924 INTRA-LIGAND FREE ENERGY PREDICTED BY IDOCK:   -2.16 KCAL/MOL
REMARK 927      BINDING AFFINITY PREDICTED BY RF-SCORE:    0.00 PKD
ROOT
HETATM    1  O   UNL     1      -5.822  14.127  67.544  1.00  0.00    -0.343 OA 
HETATM    2  H   UNL     1      -6.247  14.819  68.036  1.00  0.00     0.000 HD 
HETATM    3  C   UNL     1      -6.249  12.835  67.604  1.00  0.00    -0.153 A  
HETATM    4  C   UNL     1      -5.627  11.823  66.884  1.00  0.00    -0.128 A  
HETATM    5  C   UNL     1      -6.138  10.516  66.929  1.00  0.00    -0.064 A  
HETATM    6  C   UNL     1      -7.266  10.199  67.706  1.00  0.00    -0.087 A  
HETATM    7  C   UNL     1      -7.830  11.239  68.471  1.00  0.00    -0.138 A  
HETATM    8  C   UNL     1      -7.336  12.551  68.407  1.00  0.00    -0.114 A  
ENDROOT
BRANCH   6   9
HETATM    9  C   UNL     1      -7.895   8.843  67.676  1.00  0.00    -0.101 A  
HETATM   10  C   UNL     1      -8.700   8.175  66.741  1.00  0.00    -0.145 A  
HETATM   11  C   UNL     1      -9.855   4.501  67.117  1.00  0.00    -0.225 A  
HETATM   12  C   UNL     1      -9.004   6.806  67.155  1.00  0.00    -0.116 A  
HETATM   13  O   UNL     1      -9.572   3.072  68.963  1.00  0.00    -0.147 OA 
HETATM   14  C   UNL     1      -8.505   6.534  68.427  1.00  0.00    -0.120 A  
HETATM   15  H   UNL     1     -10.046   2.389  68.502  1.00  0.00     0.000 HD 
HETATM   16  C   UNL     1      -9.669   5.736  66.489  1.00  0.00    -0.185 A  
HETATM   17  S   UNL     1      -7.688   7.874  69.084  1.00  0.00    -0.102 SA 
HETATM   18  C   UNL     1      -8.670   5.288  69.062  1.00  0.00    -0.104 A  
HETATM   19  C   UNL     1      -9.363   4.291  68.390  1.00  0.00    -0.153 A  
BRANCH  10  20
HETATM   20  C   UNL     1      -9.049   8.746  65.438  1.00  0.00    -0.134 C  
HETATM   21  O   UNL     1      -8.633   8.223  64.403  1.00  0.00    -0.063 OA 
BRANCH  20  22
HETATM   22  C   UNL     1      -9.908   9.961  65.289  1.00  0.00    -0.373 A  
HETATM   23  C   UNL     1     -11.258  12.412  64.803  1.00  0.00    -0.310 A  
HETATM   24  C   UNL     1     -11.374  11.772  66.041  1.00  0.00    -0.335 A  
HETATM   25  C   UNL     1      -9.826  10.599  64.048  1.00  0.00    -0.399 A  
HETATM   26  C   UNL     1     -10.702  10.551  66.287  1.00  0.00    -0.139 A  
HETATM   27  C   UNL     1     -10.467  11.818  63.820  1.00  0.00    -0.466 A  
BRANCH  23  28
HETATM   28  O   UNL     1     -11.942  13.608  64.617  1.00  0.00    -0.373 OA 
BRANCH  28  29
HETATM   29  C   UNL     1     -11.039  14.715  64.461  1.00  0.00    -0.257 C  
BRANCH  29  30
HETATM   30  C   UNL     1     -11.172  15.890  65.448  1.00  0.00    -0.100 C  
BRANCH  30  31
HETATM   31  N   UNL     1      -9.835  16.463  65.771  1.00  0.00    -0.492 NA 
HETATM   32  C   UNL     1      -9.876  17.734  66.516  1.00  0.00    -0.329 C  
HETATM   33  C   UNL     1     -10.532  17.569  67.884  1.00  0.00    -0.384 C  
HETATM   34  C   UNL     1      -9.713  16.596  68.723  1.00  0.00    -0.254 C  
HETATM   35  C   UNL     1      -9.381  15.304  67.968  1.00  0.00    -0.197 C  
HETATM   36  C   UNL     1      -8.972  15.525  66.505  1.00  0.00    -0.312 C  
ENDBRANCH  30  31
ENDBRANCH  29  30
ENDBRANCH  28  29
ENDBRANCH  23  28
ENDBRANCH  20  22
ENDBRANCH  10  20
ENDBRANCH   6   9
TORSDOF 7
ENDMDL
MODEL      115
REMARK 921   NORMALIZED FREE ENERGY PREDICTED BY IDOCK:   -5.25 KCAL/MOL
REMARK 922        TOTAL FREE ENERGY PREDICTED BY IDOCK:   -9.48 KCAL/MOL
REMARK 923 INTER-LIGAND FREE ENERGY PREDICTED BY IDOCK:   -7.67 KCAL/MOL
REMARK 924 INTRA-LIGAND FREE ENERGY PREDICTED BY IDOCK:   -1.81 KCAL/MOL
REMARK 927      BINDING AFFINITY PREDICTED BY RF-SCORE:    0.00 PKD
ROOT
HETATM    1  O   UNL     1     -11.555   5.165  73.356  1.00  0.00    -0.499 OA 
HETATM    2  H   UNL     1     -10.826   4.976  73.934  1.00  0.00     0.000 HD 
HETATM    3  C   UNL     1     -11.625   6.324  72.643  1.00  0.00    -0.175 A  
HETATM    4  C   UNL     1     -12.691   6.602  71.798  1.00  0.00    -0.280 A  
HETATM    5  C   UNL     1     -12.693   7.783  71.037  1.00  0.00    -0.118 A  
HETATM    6  C   UNL     1     -11.639   8.709  71.125  1.00  0.00    -0.330 A  
HETATM    7  C   UNL     1     -10.608   8.422  72.041  1.00  0.00    -0.387 A  
HETATM    8  C   UNL     1     -10.592   7.231  72.782  1.00  0.00    -0.322 A  
ENDROOT
BRANCH   6   9
HETATM    9  C   UNL     1     -11.564   9.912  70.240  1.00  0.00    -0.250 A  
HETATM   10  C   UNL     1     -11.106  10.117  68.929  1.00  0.00    -0.251 A  
HETATM   11  C   UNL     1     -11.394  13.482  67.041  1.00  0.00    -0.348 A  
HETATM   12  C   UNL     1     -11.320  11.493  68.481  1.00  0.00    -0.337 A  
HETATM   13  O   UNL     1     -12.116  15.559  67.876  1.00  0.00    -0.331 OA 
HETATM   14  C   UNL     1     -11.832  12.289  69.503  1.00  0.00    -0.315 A  
HETATM   15  H   UNL     1     -11.950  15.953  67.028  1.00  0.00     0.000 HD 
HETATM   16  C   UNL     1     -11.130  12.120  67.216  1.00  0.00    -0.341 A  
HETATM   17  S   UNL     1     -12.062  11.405  70.938  1.00  0.00    -0.174 SA 
HETATM   18  C   UNL     1     -12.119  13.658  69.332  1.00  0.00    -0.364 A  
HETATM   19  C   UNL     1     -11.877  14.234  68.093  1.00  0.00    -0.339 A  
BRANCH  10  20
HETATM   20  C   UNL     1     -10.621   9.030  68.076  1.00  0.00    -0.186 C  
HETATM   21  O   UNL     1     -10.630   9.157  66.850  1.00  0.00    -0.238 OA 
BRANCH  20  22
HETATM   22  C   UNL     1     -10.100   7.739  68.623  1.00  0.00    -0.211 A  
HETATM   23  C   UNL     1      -8.791   5.370  69.481  1.00  0.00    -0.105 A  
HETATM   24  C   UNL     1     -10.149   5.348  69.149  1.00  0.00    -0.293 A  
HETATM   25  C   UNL     1      -8.751   7.749  68.986  1.00  0.00    -0.135 A  
HETATM   26  C   UNL     1     -10.805   6.527  68.719  1.00  0.00    -0.357 A  
HETATM   27  C   UNL     1      -8.101   6.578  69.381  1.00  0.00    -0.119 A  
BRANCH  23  28
HETATM   28  O   UNL     1      -8.200   4.183  69.899  1.00  0.00    -0.058 OA 
BRANCH  28  29
HETATM   29  C   UNL     1      -7.307   3.658  68.903  1.00  0.00    -0.053 C  
BRANCH  29  30
HETATM   30  C   UNL     1      -7.931   3.012  67.652  1.00  0.00    -0.075 C  
BRANCH  30  31
HETATM   31  N   UNL     1      -7.246   3.482  66.416  1.00  0.00    -0.063 NA 
HETATM   32  C   UNL     1      -7.601   2.736  65.195  1.00  0.00    -0.076 C  
HETATM   33  C   UNL     1      -9.082   2.876  64.856  1.00  0.00    -0.141 C  
HETATM   34  C   UNL     1      -9.401   4.341  64.582  1.00  0.00    -0.162 C  
HETATM   35  C   UNL     1      -8.862   5.274  65.673  1.00  0.00    -0.152 C  
HETATM   36  C   UNL     1      -7.450   4.916  66.157  1.00  0.00    -0.086 C  
ENDBRANCH  30  31
ENDBRANCH  29  30
ENDBRANCH  28  29
ENDBRANCH  23  28
ENDBRANCH  20  22
ENDBRANCH  10  20
ENDBRANCH   6   9
TORSDOF 7
ENDMDL
MODEL      116
REMARK 921   NORMALIZED FREE ENERGY PREDICTED BY IDOCK:   -5.25 KCAL/MOL
REMARK 922        TOTAL FREE ENERGY PREDICTED BY IDOCK:   -9.48 KCAL/MOL
REMARK 923 INTER-LIGAND FREE ENERGY PREDICTED BY IDOCK:   -7.25 KCAL/MOL
REMARK 924 INTRA-LIGAND FREE ENERGY PREDICTED BY IDOCK:   -2.22 KCAL/MOL
REMARK 927      BINDING AFFINITY PREDICTED BY RF-SCORE:    0.00 PKD
ROOT
HETATM    1  O   UNL     1      -5.224   7.637  70.866  1.00  0.00    -0.026 OA 
HETATM    2  H   UNL     1      -5.419   7.478  71.781  1.00  0.00     0.000 HD 
HETATM    3  C   UNL     1      -5.924   8.545  70.129  1.00  0.00    -0.030 A  
HETATM    4  C   UNL     1      -5.639   8.779  68.790  1.00  0.00    -0.040 A  
HETATM    5  C   UNL     1      -6.346   9.767  68.087  1.00  0.00    -0.055 A  
HETATM    6  C   UNL     1      -7.358  10.522  68.705  1.00  0.00    -0.091 A  
HETATM    7  C   UNL     1      -7.661  10.211  70.045  1.00  0.00    -0.164 A  
HETATM    8  C   UNL     1      -6.938   9.242  70.757  1.00  0.00    -0.110 A  
ENDROOT
BRANCH   6   9
HETATM    9  C   UNL     1      -8.040  11.655  68.009  1.00  0.00    -0.139 A  
HETATM   10  C   UNL     1      -9.289  11.790  67.381  1.00  0.00    -0.174 A  
HETATM   11  C   UNL     1     -10.631  15.117  65.931  1.00  0.00    -0.347 A  
HETATM   12  C   UNL     1      -9.521  13.153  66.905  1.00  0.00    -0.244 A  
HETATM   13  O   UNL     1      -9.501  17.168  65.714  1.00  0.00    -0.525 OA 
HETATM   14  C   UNL     1      -8.402  13.960  67.099  1.00  0.00    -0.154 A  
HETATM   15  H   UNL     1     -10.271  17.544  65.306  1.00  0.00     0.000 HD 
HETATM   16  C   UNL     1     -10.665  13.777  66.330  1.00  0.00    -0.285 A  
HETATM   17  S   UNL     1      -7.131  13.108  67.843  1.00  0.00    -0.148 SA 
HETATM   18  C   UNL     1      -8.362  15.316  66.719  1.00  0.00    -0.258 A  
HETATM   19  C   UNL     1      -9.488  15.867  66.122  1.00  0.00    -0.340 A  
BRANCH  10  20
HETATM   20  C   UNL     1     -10.289  10.720  67.360  1.00  0.00    -0.211 C  
HETATM   21  O   UNL     1     -10.786  10.361  66.291  1.00  0.00    -0.151 OA 
BRANCH  20  22
HETATM   22  C   UNL     1     -10.752  10.017  68.596  1.00  0.00    -0.256 A  
HETATM   23  C   UNL     1     -11.503   8.981  71.131  1.00  0.00    -0.308 A  
HETATM   24  C   UNL     1     -11.000   8.132  70.139  1.00  0.00    -0.223 A  
HETATM   25  C   UNL     1     -11.282  10.846  69.588  1.00  0.00    -0.348 A  
HETATM   26  C   UNL     1     -10.623   8.646  68.875  1.00  0.00    -0.166 A  
HETATM   27  C   UNL     1     -11.625  10.340  70.843  1.00  0.00    -0.454 A  
BRANCH  23  28
HETATM   28  O   UNL     1     -11.859   8.421  72.352  1.00  0.00    -0.372 OA 
BRANCH  28  29
HETATM   29  C   UNL     1     -10.734   7.798  72.996  1.00  0.00    -0.384 C  
BRANCH  29  30
HETATM   30  C   UNL     1     -10.769   6.269  73.172  1.00  0.00    -0.261 C  
BRANCH  30  31
HETATM   31  N   UNL     1      -9.387   5.712  73.226  1.00  0.00    -0.136 NA 
HETATM   32  C   UNL     1      -9.313   4.293  73.620  1.00  0.00    -0.103 C  
HETATM   33  C   UNL     1     -10.022   3.388  72.618  1.00  0.00    -0.219 C  
HETATM   34  C   UNL     1      -9.338   3.502  71.261  1.00  0.00    -0.209 C  
HETATM   35  C   UNL     1      -9.125   4.958  70.831  1.00  0.00    -0.184 C  
HETATM   36  C   UNL     1      -8.652   5.880  71.963  1.00  0.00    -0.137 C  
ENDBRANCH  30  31
ENDBRANCH  29  30
ENDBRANCH  28  29
ENDBRANCH  23  28
ENDBRANCH  20  22
ENDBRANCH  10  20
ENDBRANCH   6   9
TORSDOF 7
ENDMDL
MODEL      117
REMARK 921   NORMALIZED FREE ENERGY PREDICTED BY IDOCK:   -5.25 KCAL/MOL
REMARK 922        TOTAL FREE ENERGY PREDICTED BY IDOCK:   -9.48 KCAL/MOL
REMARK 923 INTER-LIGAND FREE ENERGY PREDICTED BY IDOCK:   -8.02 KCAL/MOL
REMARK 924 INTRA-LIGAND FREE ENERGY PREDICTED BY IDOCK:   -1.45 KCAL/MOL
REMARK 927      BINDING AFFINITY PREDICTED BY RF-SCORE:    0.00 PKD
ROOT
HETATM    1  O   UNL     1     -11.997   8.959  71.076  1.00  0.00    -0.290 OA 
HETATM    2  H   UNL     1     -12.561   8.941  71.839  1.00  0.00     0.000 HD 
HETATM    3  C   UNL     1     -11.730  10.115  70.406  1.00  0.00    -0.308 A  
HETATM    4  C   UNL     1     -10.905  10.142  69.289  1.00  0.00    -0.269 A  
HETATM    5  C   UNL     1     -10.610  11.365  68.666  1.00  0.00    -0.229 A  
HETATM    6  C   UNL     1     -11.150  12.574  69.138  1.00  0.00    -0.254 A  
HETATM    7  C   UNL     1     -12.033  12.498  70.233  1.00  0.00    -0.364 A  
HETATM    8  C   UNL     1     -12.307  11.280  70.873  1.00  0.00    -0.490 A  
ENDROOT
BRANCH   6   9
HETATM    9  C   UNL     1     -10.756  13.897  68.562  1.00  0.00    -0.257 A  
HETATM   10  C   UNL     1     -10.987  14.516  67.324  1.00  0.00    -0.307 A  
HETATM   11  C   UNL     1      -9.895  18.131  66.478  1.00  0.00    -0.362 A  
HETATM   12  C   UNL     1     -10.441  15.872  67.277  1.00  0.00    -0.310 A  
HETATM   13  O   UNL     1      -8.574  19.588  67.768  1.00  0.00    -0.300 OA 
HETATM   14  C   UNL     1      -9.733  16.178  68.437  1.00  0.00    -0.219 A  
HETATM   15  H   UNL     1      -8.632  20.241  67.081  1.00  0.00     0.000 HD 
HETATM   16  C   UNL     1     -10.535  16.901  66.296  1.00  0.00    -0.263 A  
HETATM   17  S   UNL     1      -9.746  14.887  69.544  1.00  0.00     0.043 SA 
HETATM   18  C   UNL     1      -9.100  17.420  68.640  1.00  0.00    -0.261 A  
HETATM   19  C   UNL     1      -9.184  18.376  67.636  1.00  0.00    -0.266 A  
BRANCH  10  20
HETATM   20  C   UNL     1     -11.817  13.917  66.277  1.00  0.00    -0.408 C  
HETATM   21  O   UNL     1     -12.989  14.271  66.140  1.00  0.00    -0.219 OA 
BRANCH  20  22
HETATM   22  C   UNL     1     -11.308  12.872  65.335  1.00  0.00    -0.336 A  
HETATM   23  C   UNL     1     -10.005  11.057  63.583  1.00  0.00    -0.361 A  
HETATM   24  C   UNL     1     -11.312  11.480  63.321  1.00  0.00    -0.208 A  
HETATM   25  C   UNL     1     -10.013  12.417  65.597  1.00  0.00    -0.261 A  
HETATM   26  C   UNL     1     -11.964  12.387  64.191  1.00  0.00    -0.518 A  
HETATM   27  C   UNL     1      -9.363  11.546  64.721  1.00  0.00    -0.059 A  
BRANCH  23  28
HETATM   28  O   UNL     1      -9.416  10.165  62.695  1.00  0.00    -0.295 OA 
BRANCH  28  29
HETATM   29  C   UNL     1      -7.982  10.191  62.793  1.00  0.00    -0.145 C  
BRANCH  29  30
HETATM   30  C   UNL     1      -7.308   9.131  63.684  1.00  0.00    -0.100 C  
BRANCH  30  31
HETATM   31  N   UNL     1      -8.212   7.965  63.895  1.00  0.00    -0.077 NA 
HETATM   32  C   UNL     1      -7.778   6.724  63.228  1.00  0.00    -0.106 C  
HETATM   33  C   UNL     1      -6.435   6.234  63.761  1.00  0.00    -0.029 C  
HETATM   34  C   UNL     1      -6.567   5.911  65.245  1.00  0.00    -0.043 C  
HETATM   35  C   UNL     1      -7.241   7.039  66.034  1.00  0.00    -0.074 C  
HETATM   36  C   UNL     1      -8.443   7.669  65.317  1.00  0.00    -0.076 C  
ENDBRANCH  30  31
ENDBRANCH  29  30
ENDBRANCH  28  29
ENDBRANCH  23  28
ENDBRANCH  20  22
ENDBRANCH  10  20
ENDBRANCH   6   9
TORSDOF 7
ENDMDL
MODEL      118
REMARK 921   NORMALIZED FREE ENERGY PREDICTED BY IDOCK:   -5.24 KCAL/MOL
REMARK 922        TOTAL FREE ENERGY PREDICTED BY IDOCK:   -9.46 KCAL/MOL
REMARK 923 INTER-LIGAND FREE ENERGY PREDICTED BY IDOCK:   -7.52 KCAL/MOL
REMARK 924 INTRA-LIGAND FREE ENERGY PREDICTED BY IDOCK:   -1.94 KCAL/MOL
REMARK 927      BINDING AFFINITY PREDICTED BY RF-SCORE:    0.00 PKD
ROOT
HETATM    1  O   UNL     1      -5.359  14.349  67.767  1.00  0.00    -0.259 OA 
HETATM    2  H   UNL     1      -5.646  15.018  68.378  1.00  0.00     0.000 HD 
HETATM    3  C   UNL     1      -5.932  13.114  67.732  1.00  0.00    -0.148 A  
HETATM    4  C   UNL     1      -5.513  12.136  66.839  1.00  0.00    -0.002 A  
HETATM    5  C   UNL     1      -6.172  10.897  66.797  1.00  0.00    -0.093 A  
HETATM    6  C   UNL     1      -7.245  10.611  67.658  1.00  0.00    -0.089 A  
HETATM    7  C   UNL     1      -7.599  11.604  68.592  1.00  0.00    -0.133 A  
HETATM    8  C   UNL     1      -6.959  12.853  68.618  1.00  0.00    -0.101 A  
ENDROOT
BRANCH   6   9
HETATM    9  C   UNL     1      -8.034   9.346  67.550  1.00  0.00    -0.102 A  
HETATM   10  C   UNL     1      -9.322   9.049  67.076  1.00  0.00    -0.190 A  
HETATM   11  C   UNL     1     -10.760   5.466  66.824  1.00  0.00    -0.289 A  
HETATM   12  C   UNL     1      -9.607   7.616  67.120  1.00  0.00    -0.211 A  
HETATM   13  O   UNL     1      -9.810   3.462  67.604  1.00  0.00    -0.226 OA 
HETATM   14  C   UNL     1      -8.568   6.905  67.717  1.00  0.00    -0.122 A  
HETATM   15  H   UNL     1     -10.574   2.986  67.301  1.00  0.00     0.000 HD 
HETATM   16  C   UNL     1     -10.710   6.852  66.641  1.00  0.00    -0.161 A  
HETATM   17  S   UNL     1      -7.294   7.928  68.190  1.00  0.00    -0.101 SA 
HETATM   18  C   UNL     1      -8.599   5.508  67.890  1.00  0.00    -0.104 A  
HETATM   19  C   UNL     1      -9.716   4.813  67.446  1.00  0.00    -0.176 A  
BRANCH  10  20
HETATM   20  C   UNL     1     -10.197  10.054  66.468  1.00  0.00    -0.224 C  
HETATM   21  O   UNL     1     -10.447  10.006  65.263  1.00  0.00    -0.139 OA 
BRANCH  20  22
HETATM   22  C   UNL     1     -10.824  11.165  67.250  1.00  0.00    -0.326 A  
HETATM   23  C   UNL     1     -11.846  13.505  68.492  1.00  0.00    -0.362 A  
HETATM   24  C   UNL     1     -11.451  12.408  69.264  1.00  0.00    -0.349 A  
HETATM   25  C   UNL     1     -11.250  12.258  66.492  1.00  0.00    -0.373 A  
HETATM   26  C   UNL     1     -10.939  11.240  68.648  1.00  0.00    -0.266 A  
HETATM   27  C   UNL     1     -11.726  13.419  67.105  1.00  0.00    -0.424 A  
BRANCH  23  28
HETATM   28  O   UNL     1     -12.342  14.624  69.150  1.00  0.00    -0.220 OA 
BRANCH  28  29
HETATM   29  C   UNL     1     -11.327  15.265  69.941  1.00  0.00    -0.289 C  
BRANCH  29  30
HETATM   30  C   UNL     1     -10.058  15.751  69.217  1.00  0.00    -0.255 C  
BRANCH  30  31
HETATM   31  N   UNL     1     -10.401  16.742  68.158  1.00  0.00    -0.301 NA 
HETATM   32  C   UNL     1      -9.967  18.121  68.445  1.00  0.00    -0.380 C  
HETATM   33  C   UNL     1      -8.449  18.227  68.553  1.00  0.00    -0.325 C  
HETATM   34  C   UNL     1      -7.819  17.838  67.221  1.00  0.00    -0.225 C  
HETATM   35  C   UNL     1      -8.371  16.517  66.674  1.00  0.00    -0.297 C  
HETATM   36  C   UNL     1      -9.890  16.364  66.832  1.00  0.00    -0.261 C  
ENDBRANCH  30  31
ENDBRANCH  29  30
ENDBRANCH  28  29
ENDBRANCH  23  28
ENDBRANCH  20  22
ENDBRANCH  10  20
ENDBRANCH   6   9
TORSDOF 7
ENDMDL
MODEL      119
REMARK 921   NORMALIZED FREE ENERGY PREDICTED BY IDOCK:   -5.21 KCAL/MOL
REMARK 922        TOTAL FREE ENERGY PREDICTED BY IDOCK:   -9.42 KCAL/MOL
REMARK 923 INTER-LIGAND FREE ENERGY PREDICTED BY IDOCK:   -7.06 KCAL/MOL
REMARK 924 INTRA-LIGAND FREE ENERGY PREDICTED BY IDOCK:   -2.36 KCAL/MOL
REMARK 927      BINDING AFFINITY PREDICTED BY RF-SCORE:    0.00 PKD
ROOT
HETATM    1  O   UNL     1     -10.236   4.193  70.990  1.00  0.00    -0.119 OA 
HETATM    2  H   UNL     1     -11.131   4.160  71.305  1.00  0.00     0.000 HD 
HETATM    3  C   UNL     1      -9.686   5.342  70.507  1.00  0.00    -0.190 A  
HETATM    4  C   UNL     1      -8.377   5.391  70.047  1.00  0.00    -0.107 A  
HETATM    5  C   UNL     1      -7.832   6.610  69.614  1.00  0.00    -0.115 A  
HETATM    6  C   UNL     1      -8.593   7.792  69.618  1.00  0.00    -0.135 A  
HETATM    7  C   UNL     1      -9.935   7.689  70.032  1.00  0.00    -0.190 A  
HETATM    8  C   UNL     1     -10.473   6.477  70.489  1.00  0.00    -0.251 A  
ENDROOT
BRANCH   6   9
HETATM    9  C   UNL     1      -7.998   9.120  69.272  1.00  0.00    -0.097 A  
HETATM   10  C   UNL     1      -8.026   9.918  68.118  1.00  0.00    -0.100 A  
HETATM   11  C   UNL     1      -6.461  13.450  67.892  1.00  0.00    -0.151 A  
HETATM   12  C   UNL     1      -7.333  11.191  68.312  1.00  0.00    -0.090 A  
HETATM   13  O   UNL     1      -5.134  14.554  69.489  1.00  0.00    -0.088 OA 
HETATM   14  C   UNL     1      -6.724  11.256  69.563  1.00  0.00    -0.128 A  
HETATM   15  H   UNL     1      -5.046  15.293  68.899  1.00  0.00     0.000 HD 
HETATM   16  C   UNL     1      -7.209  12.342  67.481  1.00  0.00    -0.139 A  
HETATM   17  S   UNL     1      -6.996   9.843  70.471  1.00  0.00    -0.066 SA 
HETATM   18  C   UNL     1      -5.984  12.374  69.995  1.00  0.00    -0.149 A  
HETATM   19  C   UNL     1      -5.856  13.454  69.133  1.00  0.00    -0.082 A  
BRANCH  10  20
HETATM   20  C   UNL     1      -8.801   9.566  66.925  1.00  0.00    -0.127 C  
HETATM   21  O   UNL     1      -8.577   8.509  66.334  1.00  0.00    -0.115 OA 
BRANCH  20  22
HETATM   22  C   UNL     1      -9.879  10.441  66.370  1.00  0.00    -0.266 A  
HETATM   23  C   UNL     1     -11.665  12.235  65.083  1.00  0.00    -0.361 A  
HETATM   24  C   UNL     1     -11.756  12.011  66.460  1.00  0.00    -0.330 A  
HETATM   25  C   UNL     1      -9.820  10.655  64.991  1.00  0.00    -0.353 A  
HETATM   26  C   UNL     1     -10.866  11.118  67.106  1.00  0.00    -0.326 A  
HETATM   27  C   UNL     1     -10.680  11.558  64.363  1.00  0.00    -0.404 A  
BRANCH  23  28
HETATM   28  O   UNL     1     -12.566  13.121  64.503  1.00  0.00    -0.594 OA 
BRANCH  28  29
HETATM   29  C   UNL     1     -11.915  14.326  64.066  1.00  0.00    -0.297 C  
BRANCH  29  30
HETATM   30  C   UNL     1     -11.872  15.511  65.048  1.00  0.00     0.058 C  
BRANCH  30  31
HETATM   31  N   UNL     1     -10.490  16.056  65.159  1.00  0.00    -0.574 NA 
HETATM   32  C   UNL     1     -10.394  17.348  65.861  1.00  0.00    -0.269 C  
HETATM   33  C   UNL     1     -10.850  17.240  67.313  1.00  0.00    -0.124 C  
HETATM   34  C   UNL     1      -9.942  16.268  68.057  1.00  0.00    -0.240 C  
HETATM   35  C   UNL     1      -9.752  14.947  67.303  1.00  0.00    -0.228 C  
HETATM   36  C   UNL     1      -9.552  15.116  65.791  1.00  0.00    -0.309 C  
ENDBRANCH  30  31
ENDBRANCH  29  30
ENDBRANCH  28  29
ENDBRANCH  23  28
ENDBRANCH  20  22
ENDBRANCH  10  20
ENDBRANCH   6   9
TORSDOF 7
ENDMDL
MODEL      120
REMARK 921   NORMALIZED FREE ENERGY PREDICTED BY IDOCK:   -5.19 KCAL/MOL
REMARK 922        TOTAL FREE ENERGY PREDICTED BY IDOCK:   -9.39 KCAL/MOL
REMARK 923 INTER-LIGAND FREE ENERGY PREDICTED BY IDOCK:   -8.35 KCAL/MOL
REMARK 924 INTRA-LIGAND FREE ENERGY PREDICTED BY IDOCK:   -1.04 KCAL/MOL
REMARK 927      BINDING AFFINITY PREDICTED BY RF-SCORE:    0.00 PKD
ROOT
HETATM    1  O   UNL     1     -12.600  13.360  62.861  1.00  0.00    -0.741 OA 
HETATM    2  H   UNL     1     -12.362  12.479  62.596  1.00  0.00     0.000 HD 
HETATM    3  C   UNL     1     -11.918  14.027  63.833  1.00  0.00    -0.287 A  
HETATM    4  C   UNL     1     -12.265  15.315  64.220  1.00  0.00    -0.205 A  
HETATM    5  C   UNL     1     -11.496  15.987  65.184  1.00  0.00     0.052 A  
HETATM    6  C   UNL     1     -10.382  15.376  65.785  1.00  0.00    -0.381 A  
HETATM    7  C   UNL     1     -10.100  14.047  65.412  1.00  0.00    -0.343 A  
HETATM    8  C   UNL     1     -10.851  13.384  64.431  1.00  0.00    -0.422 A  
ENDROOT
BRANCH   6   9
HETATM    9  C   UNL     1      -9.483  16.115  66.725  1.00  0.00    -0.238 A  
HETATM   10  C   UNL     1      -8.587  15.704  67.725  1.00  0.00    -0.168 A  
HETATM   11  C   UNL     1      -6.308  18.122  69.709  1.00  0.00    -0.123 A  
HETATM   12  C   UNL     1      -7.878  16.834  68.324  1.00  0.00    -0.194 A  
HETATM   13  O   UNL     1      -6.299  20.473  69.665  1.00  0.00    -0.279 OA 
HETATM   14  C   UNL     1      -8.341  18.050  67.828  1.00  0.00    -0.249 A  
HETATM   15  H   UNL     1      -5.609  20.478  70.319  1.00  0.00     0.000 HD 
HETATM   16  C   UNL     1      -6.813  16.894  69.269  1.00  0.00    -0.228 A  
HETATM   17  S   UNL     1      -9.569  17.834  66.671  1.00  0.00    -0.318 SA 
HETATM   18  C   UNL     1      -7.827  19.292  68.250  1.00  0.00    -0.354 A  
HETATM   19  C   UNL     1      -6.820  19.300  69.204  1.00  0.00    -0.336 A  
BRANCH  10  20
HETATM   20  C   UNL     1      -8.298  14.296  68.006  1.00  0.00    -0.157 C  
HETATM   21  O   UNL     1      -7.172  13.844  67.795  1.00  0.00    -0.131 OA 
BRANCH  20  22
HETATM   22  C   UNL     1      -9.321  13.351  68.552  1.00  0.00    -0.097 A  
HETATM   23  C   UNL     1     -11.142  11.315  69.327  1.00  0.00    -0.255 A  
HETATM   24  C   UNL     1     -11.531  12.659  69.347  1.00  0.00    -0.330 A  
HETATM   25  C   UNL     1      -8.940  12.007  68.566  1.00  0.00    -0.098 A  
HETATM   26  C   UNL     1     -10.625  13.676  68.959  1.00  0.00    -0.147 A  
HETATM   27  C   UNL     1      -9.845  11.005  68.921  1.00  0.00    -0.189 A  
BRANCH  23  28
HETATM   28  O   UNL     1     -12.072  10.360  69.720  1.00  0.00    -0.228 OA 
BRANCH  28  29
HETATM   29  C   UNL     1     -11.617   9.619  70.865  1.00  0.00    -0.344 C  
BRANCH  29  30
HETATM   30  C   UNL     1     -11.736   8.085  70.817  1.00  0.00    -0.206 C  
BRANCH  30  31
HETATM   31  N   UNL     1     -11.909   7.525  72.187  1.00  0.00    -0.295 NA 
HETATM   32  C   UNL     1     -11.851   6.054  72.261  1.00  0.00    -0.250 C  
HETATM   33  C   UNL     1     -10.490   5.519  71.828  1.00  0.00    -0.287 C  
HETATM   34  C   UNL     1      -9.415   6.048  72.770  1.00  0.00    -0.154 C  
HETATM   35  C   UNL     1      -9.514   7.563  72.982  1.00  0.00    -0.255 C  
HETATM   36  C   UNL     1     -10.950   8.075  73.157  1.00  0.00    -0.110 C  
ENDBRANCH  30  31
ENDBRANCH  29  30
ENDBRANCH  28  29
ENDBRANCH  23  28
ENDBRANCH  20  22
ENDBRANCH  10  20
ENDBRANCH   6   9
TORSDOF 7
ENDMDL
MODEL      121
REMARK 921   NORMALIZED FREE ENERGY PREDICTED BY IDOCK:   -5.18 KCAL/MOL
REMARK 922        TOTAL FREE ENERGY PREDICTED BY IDOCK:   -9.38 KCAL/MOL
REMARK 923 INTER-LIGAND FREE ENERGY PREDICTED BY IDOCK:   -7.72 KCAL/MOL
REMARK 924 INTRA-LIGAND FREE ENERGY PREDICTED BY IDOCK:   -1.66 KCAL/MOL
REMARK 927      BINDING AFFINITY PREDICTED BY RF-SCORE:    0.00 PKD
ROOT
HETATM    1  O   UNL     1      -8.382   8.621  74.542  1.00  0.00    -0.386 OA 
HETATM    2  H   UNL     1      -7.542   8.605  74.986  1.00  0.00     0.000 HD 
HETATM    3  C   UNL     1      -8.534   8.151  73.273  1.00  0.00    -0.230 A  
HETATM    4  C   UNL     1      -9.762   8.174  72.625  1.00  0.00    -0.360 A  
HETATM    5  C   UNL     1      -9.884   7.624  71.338  1.00  0.00    -0.195 A  
HETATM    6  C   UNL     1      -8.779   7.061  70.676  1.00  0.00    -0.149 A  
HETATM    7  C   UNL     1      -7.538   7.115  71.341  1.00  0.00    -0.088 A  
HETATM    8  C   UNL     1      -7.419   7.640  72.636  1.00  0.00    -0.098 A  
ENDROOT
BRANCH   6   9
HETATM    9  C   UNL     1      -8.913   6.368  69.358  1.00  0.00    -0.131 A  
HETATM   10  C   UNL     1      -8.842   6.806  68.027  1.00  0.00    -0.119 A  
HETATM   11  C   UNL     1      -9.036   4.450  64.963  1.00  0.00    -0.145 A  
HETATM   12  C   UNL     1      -8.972   5.701  67.077  1.00  0.00    -0.114 A  
HETATM   13  O   UNL     1      -9.506   2.146  64.930  1.00  0.00    -0.239 OA 
HETATM   14  C   UNL     1      -9.237   4.497  67.726  1.00  0.00    -0.131 A  
HETATM   15  H   UNL     1      -9.443   2.151  63.983  1.00  0.00     0.000 HD 
HETATM   16  C   UNL     1      -8.843   5.647  65.659  1.00  0.00    -0.150 A  
HETATM   17  S   UNL     1      -9.309   4.693  69.414  1.00  0.00    -0.157 SA 
HETATM   18  C   UNL     1      -9.414   3.282  67.037  1.00  0.00    -0.161 A  
HETATM   19  C   UNL     1      -9.323   3.288  65.652  1.00  0.00    -0.128 A  
BRANCH  10  20
HETATM   20  C   UNL     1      -8.517   8.186  67.659  1.00  0.00    -0.131 C  
HETATM   21  O   UNL     1      -7.343   8.555  67.622  1.00  0.00    -0.086 OA 
BRANCH  20  22
HETATM   22  C   UNL     1      -9.561   9.200  67.313  1.00  0.00    -0.200 A  
HETATM   23  C   UNL     1     -11.272  11.299  66.458  1.00  0.00    -0.152 A  
HETATM   24  C   UNL     1     -11.383  10.776  67.750  1.00  0.00    -0.354 A  
HETATM   25  C   UNL     1      -9.482   9.715  66.016  1.00  0.00    -0.284 A  
HETATM   26  C   UNL     1     -10.530   9.730  68.180  1.00  0.00    -0.258 A  
HETATM   27  C   UNL     1     -10.305  10.766  65.606  1.00  0.00    -0.297 A  
BRANCH  23  28
HETATM   28  O   UNL     1     -12.137  12.323  66.090  1.00  0.00    -0.625 OA 
BRANCH  28  29
HETATM   29  C   UNL     1     -11.915  13.509  66.872  1.00  0.00    -0.399 C  
BRANCH  29  30
HETATM   30  C   UNL     1     -10.528  14.171  66.787  1.00  0.00    -0.277 C  
BRANCH  30  31
HETATM   31  N   UNL     1     -10.648  15.656  66.824  1.00  0.00    -0.306 NA 
HETATM   32  C   UNL     1     -10.785  16.226  68.177  1.00  0.00    -0.322 C  
HETATM   33  C   UNL     1      -9.556  15.948  69.037  1.00  0.00    -0.247 C  
HETATM   34  C   UNL     1      -8.336  16.608  68.404  1.00  0.00    -0.208 C  
HETATM   35  C   UNL     1      -8.206  16.292  66.909  1.00  0.00    -0.261 C  
HETATM   36  C   UNL     1      -9.537  16.339  66.145  1.00  0.00    -0.331 C  
ENDBRANCH  30  31
ENDBRANCH  29  30
ENDBRANCH  28  29
ENDBRANCH  23  28
ENDBRANCH  20  22
ENDBRANCH  10  20
ENDBRANCH   6   9
TORSDOF 7
ENDMDL
MODEL      122
REMARK 921   NORMALIZED FREE ENERGY PREDICTED BY IDOCK:   -5.17 KCAL/MOL
REMARK 922        TOTAL FREE ENERGY PREDICTED BY IDOCK:   -9.36 KCAL/MOL
REMARK 923 INTER-LIGAND FREE ENERGY PREDICTED BY IDOCK:   -7.52 KCAL/MOL
REMARK 924 INTRA-LIGAND FREE ENERGY PREDICTED BY IDOCK:   -1.84 KCAL/MOL
REMARK 927      BINDING AFFINITY PREDICTED BY RF-SCORE:    0.00 PKD
ROOT
HETATM    1  O   UNL     1     -12.762  15.859  70.666  1.00  0.00    -0.470 OA 
HETATM    2  H   UNL     1     -13.529  15.673  71.194  1.00  0.00     0.000 HD 
HETATM    3  C   UNL     1     -12.050  14.869  70.059  1.00  0.00    -0.338 A  
HETATM    4  C   UNL     1     -10.929  15.140  69.285  1.00  0.00    -0.260 A  
HETATM    5  C   UNL     1     -10.261  14.093  68.629  1.00  0.00    -0.238 A  
HETATM    6  C   UNL     1     -10.693  12.761  68.752  1.00  0.00    -0.246 A  
HETATM    7  C   UNL     1     -11.794  12.519  69.595  1.00  0.00    -0.382 A  
HETATM    8  C   UNL     1     -12.479  13.567  70.230  1.00  0.00    -0.309 A  
ENDROOT
BRANCH   6   9
HETATM    9  C   UNL     1     -10.068  11.650  67.970  1.00  0.00    -0.189 A  
HETATM   10  C   UNL     1     -10.295  11.128  66.687  1.00  0.00    -0.286 A  
HETATM   11  C   UNL     1      -8.152   8.335  65.080  1.00  0.00    -0.142 A  
HETATM   12  C   UNL     1      -9.350  10.064  66.352  1.00  0.00    -0.211 A  
HETATM   13  O   UNL     1      -6.444   7.062  66.076  1.00  0.00    -0.048 OA 
HETATM   14  C   UNL     1      -8.522   9.757  67.429  1.00  0.00    -0.121 A  
HETATM   15  H   UNL     1      -6.338   6.578  65.265  1.00  0.00     0.000 HD 
HETATM   16  C   UNL     1      -9.122   9.340  65.145  1.00  0.00    -0.263 A  
HETATM   17  S   UNL     1      -8.861  10.729  68.783  1.00  0.00    -0.154 SA 
HETATM   18  C   UNL     1      -7.529   8.760  67.369  1.00  0.00    -0.089 A  
HETATM   19  C   UNL     1      -7.374   8.052  66.185  1.00  0.00    -0.074 A  
BRANCH  10  20
HETATM   20  C   UNL     1     -11.264  11.705  65.752  1.00  0.00    -0.230 C  
HETATM   21  O   UNL     1     -12.081  10.979  65.185  1.00  0.00     0.712 OA 
BRANCH  20  22
HETATM   22  C   UNL     1     -11.320  13.167  65.441  1.00  0.00    -0.323 A  
HETATM   23  C   UNL     1     -11.099  15.969  65.033  1.00  0.00    -0.336 A  
HETATM   24  C   UNL     1     -12.345  15.385  65.287  1.00  0.00     0.537 A  
HETATM   25  C   UNL     1     -10.088  13.762  65.157  1.00  0.00    -0.314 A  
HETATM   26  C   UNL     1     -12.458  13.989  65.493  1.00  0.00    -0.533 A  
HETATM   27  C   UNL     1      -9.976  15.143  64.984  1.00  0.00    -0.178 A  
BRANCH  23  28
HETATM   28  O   UNL     1     -11.049  17.344  64.837  1.00  0.00    -0.849 OA 
BRANCH  28  29
HETATM   29  C   UNL     1     -10.672  18.035  66.040  1.00  0.00    -0.133 C  
BRANCH  29  30
HETATM   30  C   UNL     1      -9.169  18.158  66.352  1.00  0.00    -0.255 C  
BRANCH  30  31
HETATM   31  N   UNL     1      -8.763  19.589  66.445  1.00  0.00    -0.350 NA 
HETATM   32  C   UNL     1      -8.834  20.159  67.802  1.00  0.00    -0.265 C  
HETATM   33  C   UNL     1      -7.879  19.457  68.763  1.00  0.00    -0.392 C  
HETATM   34  C   UNL     1      -6.446  19.647  68.281  1.00  0.00    -0.286 C  
HETATM   35  C   UNL     1      -6.278  19.318  66.793  1.00  0.00    -0.181 C  
HETATM   36  C   UNL     1      -7.418  19.839  65.907  1.00  0.00    -0.324 C  
ENDBRANCH  30  31
ENDBRANCH  29  30
ENDBRANCH  28  29
ENDBRANCH  23  28
ENDBRANCH  20  22
ENDBRANCH  10  20
ENDBRANCH   6   9
TORSDOF 7
ENDMDL
MODEL      123
REMARK 921   NORMALIZED FREE ENERGY PREDICTED BY IDOCK:   -5.15 KCAL/MOL
REMARK 922        TOTAL FREE ENERGY PREDICTED BY IDOCK:   -9.33 KCAL/MOL
REMARK 923 INTER-LIGAND FREE ENERGY PREDICTED BY IDOCK:   -8.68 KCAL/MOL
REMARK 924 INTRA-LIGAND FREE ENERGY PREDICTED BY IDOCK:   -0.66 KCAL/MOL
REMARK 927      BINDING AFFINITY PREDICTED BY RF-SCORE:    0.00 PKD
ROOT
HETATM    1  O   UNL     1     -10.148  17.369  65.821  1.00  0.00    -0.544 OA 
HETATM    2  H   UNL     1     -10.410  18.237  66.102  1.00  0.00     0.000 HD 
HETATM    3  C   UNL     1     -10.317  16.274  66.613  1.00  0.00    -0.302 A  
HETATM    4  C   UNL     1      -9.934  15.004  66.202  1.00  0.00    -0.313 A  
HETATM    5  C   UNL     1     -10.182  13.896  67.028  1.00  0.00    -0.254 A  
HETATM    6  C   UNL     1     -10.799  14.044  68.283  1.00  0.00    -0.268 A  
HETATM    7  C   UNL     1     -11.115  15.355  68.691  1.00  0.00    -0.290 A  
HETATM    8  C   UNL     1     -10.891  16.459  67.856  1.00  0.00    -0.328 A  
ENDROOT
BRANCH   6   9
HETATM    9  C   UNL     1     -11.177  12.867  69.124  1.00  0.00    -0.237 A  
HETATM   10  C   UNL     1     -10.648  11.576  69.269  1.00  0.00    -0.120 A  
HETATM   11  C   UNL     1     -11.938   8.986  71.838  1.00  0.00    -0.445 A  
HETATM   12  C   UNL     1     -11.349  10.806  70.296  1.00  0.00    -0.374 A  
HETATM   13  O   UNL     1     -13.817   9.147  73.244  1.00  0.00    -1.118 OA 
HETATM   14  C   UNL     1     -12.438  11.508  70.808  1.00  0.00    -0.349 A  
HETATM   15  H   UNL     1     -13.636   8.276  73.578  1.00  0.00     0.000 HD 
HETATM   16  C   UNL     1     -11.094   9.523  70.862  1.00  0.00    -0.406 A  
HETATM   17  S   UNL     1     -12.594  13.042  70.088  1.00  0.00     0.123 SA 
HETATM   18  C   UNL     1     -13.284  10.985  71.804  1.00  0.00    -0.505 A  
HETATM   19  C   UNL     1     -13.020   9.713  72.293  1.00  0.00    -0.356 A  
BRANCH  10  20
HETATM   20  C   UNL     1      -9.437  11.129  68.576  1.00  0.00    -0.193 C  
HETATM   21  O   UNL     1      -8.438  11.849  68.554  1.00  0.00    -0.159 OA 
BRANCH  20  22
HETATM   22  C   UNL     1      -9.342   9.811  67.876  1.00  0.00    -0.139 A  
HETATM   23  C   UNL     1      -8.876   7.459  66.354  1.00  0.00    -0.156 A  
HETATM   24  C   UNL     1     -10.181   7.848  66.677  1.00  0.00    -0.303 A  
HETATM   25  C   UNL     1      -8.045   9.392  67.570  1.00  0.00    -0.110 A  
HETATM   26  C   UNL     1     -10.416   9.021  67.433  1.00  0.00    -0.338 A  
HETATM   27  C   UNL     1      -7.818   8.251  66.798  1.00  0.00    -0.095 A  
BRANCH  23  28
HETATM   28  O   UNL     1      -8.705   6.297  65.611  1.00  0.00    -0.154 OA 
BRANCH  28  29
HETATM   29  C   UNL     1      -7.458   5.651  65.920  1.00  0.00    -0.078 C  
BRANCH  29  30
HETATM   30  C   UNL     1      -7.373   4.856  67.236  1.00  0.00    -0.082 C  
BRANCH  30  31
HETATM   31  N   UNL     1      -8.359   3.739  67.243  1.00  0.00    -0.097 NA 
HETATM   32  C   UNL     1      -8.033   2.639  68.168  1.00  0.00    -0.058 C  
HETATM   33  C   UNL     1      -8.015   3.106  69.620  1.00  0.00    -0.058 C  
HETATM   34  C   UNL     1      -9.401   3.608  70.008  1.00  0.00    -0.248 C  
HETATM   35  C   UNL     1      -9.976   4.593  68.983  1.00  0.00    -0.186 C  
HETATM   36  C   UNL     1      -9.731   4.187  67.523  1.00  0.00    -0.134 C  
ENDBRANCH  30  31
ENDBRANCH  29  30
ENDBRANCH  28  29
ENDBRANCH  23  28
ENDBRANCH  20  22
ENDBRANCH  10  20
ENDBRANCH   6   9
TORSDOF 7
ENDMDL
MODEL      124
REMARK 921   NORMALIZED FREE ENERGY PREDICTED BY IDOCK:   -5.14 KCAL/MOL
REMARK 922        TOTAL FREE ENERGY PREDICTED BY IDOCK:   -9.32 KCAL/MOL
REMARK 923 INTER-LIGAND FREE ENERGY PREDICTED BY IDOCK:   -8.11 KCAL/MOL
REMARK 924 INTRA-LIGAND FREE ENERGY PREDICTED BY IDOCK:   -1.21 KCAL/MOL
REMARK 927      BINDING AFFINITY PREDICTED BY RF-SCORE:    0.00 PKD
ROOT
HETATM    1  O   UNL     1     -13.468  10.542  72.184  1.00  0.00    -0.531 OA 
HETATM    2  H   UNL     1     -13.963  10.739  72.970  1.00  0.00     0.000 HD 
HETATM    3  C   UNL     1     -13.017  11.522  71.352  1.00  0.00    -0.348 A  
HETATM    4  C   UNL     1     -12.293  11.233  70.203  1.00  0.00    -0.354 A  
HETATM    5  C   UNL     1     -11.797  12.279  69.407  1.00  0.00    -0.370 A  
HETATM    6  C   UNL     1     -12.033  13.624  69.738  1.00  0.00    -0.404 A  
HETATM    7  C   UNL     1     -12.825  13.875  70.876  1.00  0.00    -0.370 A  
HETATM    8  C   UNL     1     -13.299  12.833  71.686  1.00  0.00    -0.345 A  
ENDROOT
BRANCH   6   9
HETATM    9  C   UNL     1     -11.417  14.750  68.972  1.00  0.00    -0.293 A  
HETATM   10  C   UNL     1     -11.199  14.979  67.604  1.00  0.00    -0.331 A  
HETATM   11  C   UNL     1      -9.738  18.263  66.169  1.00  0.00    -0.229 A  
HETATM   12  C   UNL     1     -10.611  16.295  67.354  1.00  0.00    -0.307 A  
HETATM   13  O   UNL     1      -8.860  20.099  67.348  1.00  0.00    -0.330 OA 
HETATM   14  C   UNL     1     -10.316  16.958  68.543  1.00  0.00    -0.336 A  
HETATM   15  H   UNL     1      -8.659  20.527  66.524  1.00  0.00     0.000 HD 
HETATM   16  C   UNL     1     -10.333  16.998  66.146  1.00  0.00    -0.326 A  
HETATM   17  S   UNL     1     -10.748  16.034  69.905  1.00  0.00    -0.332 SA 
HETATM   18  C   UNL     1      -9.735  18.240  68.579  1.00  0.00    -0.379 A  
HETATM   19  C   UNL     1      -9.442  18.866  67.375  1.00  0.00    -0.297 A  
BRANCH  10  20
HETATM   20  C   UNL     1     -11.659  14.062  66.559  1.00  0.00    -0.374 C  
HETATM   21  O   UNL     1     -12.748  14.245  66.013  1.00  0.00    -0.430 OA 
BRANCH  20  22
HETATM   22  C   UNL     1     -10.859  12.883  66.104  1.00  0.00    -0.300 A  
HETATM   23  C   UNL     1      -9.587  10.435  65.430  1.00  0.00    -0.246 A  
HETATM   24  C   UNL     1      -8.827  11.577  65.703  1.00  0.00    -0.016 A  
HETATM   25  C   UNL     1     -11.604  11.741  65.800  1.00  0.00    -0.194 A  
HETATM   26  C   UNL     1      -9.458  12.799  66.041  1.00  0.00    -0.127 A  
HETATM   27  C   UNL     1     -10.977  10.531  65.496  1.00  0.00     0.229 A  
BRANCH  23  28
HETATM   28  O   UNL     1      -8.914   9.264  65.101  1.00  0.00    -0.197 OA 
BRANCH  28  29
HETATM   29  C   UNL     1      -7.498   9.393  65.310  1.00  0.00    -0.100 C  
BRANCH  29  30
HETATM   30  C   UNL     1      -6.941   9.000  66.691  1.00  0.00    -0.081 C  
BRANCH  30  31
HETATM   31  N   UNL     1      -6.677  10.212  67.518  1.00  0.00    -0.071 NA 
HETATM   32  C   UNL     1      -7.733  10.526  68.498  1.00  0.00    -0.104 C  
HETATM   33  C   UNL     1      -7.894   9.417  69.533  1.00  0.00    -0.091 C  
HETATM   34  C   UNL     1      -6.597   9.266  70.320  1.00  0.00    -0.062 C  
HETATM   35  C   UNL     1      -5.367   9.174  69.410  1.00  0.00    -0.035 C  
HETATM   36  C   UNL     1      -5.391  10.153  68.228  1.00  0.00    -0.035 C  
ENDBRANCH  30  31
ENDBRANCH  29  30
ENDBRANCH  28  29
ENDBRANCH  23  28
ENDBRANCH  20  22
ENDBRANCH  10  20
ENDBRANCH   6   9
TORSDOF 7
ENDMDL
MODEL      125
REMARK 921   NORMALIZED FREE ENERGY PREDICTED BY IDOCK:   -5.13 KCAL/MOL
REMARK 922        TOTAL FREE ENERGY PREDICTED BY IDOCK:   -9.31 KCAL/MOL
REMARK 923 INTER-LIGAND FREE ENERGY PREDICTED BY IDOCK:   -8.70 KCAL/MOL
REMARK 924 INTRA-LIGAND FREE ENERGY PREDICTED BY IDOCK:   -0.61 KCAL/MOL
REMARK 927      BINDING AFFINITY PREDICTED BY RF-SCORE:    0.00 PKD
ROOT
HETATM    1  O   UNL     1      -9.246   4.039  69.212  1.00  0.00    -0.122 OA 
HETATM    2  H   UNL     1      -9.791   3.422  68.737  1.00  0.00     0.000 HD 
HETATM    3  C   UNL     1      -9.611   5.340  69.380  1.00  0.00    -0.156 A  
HETATM    4  C   UNL     1      -8.814   6.241  70.075  1.00  0.00    -0.142 A  
HETATM    5  C   UNL     1      -9.258   7.558  70.275  1.00  0.00    -0.157 A  
HETATM    6  C   UNL     1     -10.494   7.998  69.768  1.00  0.00    -0.227 A  
HETATM    7  C   UNL     1     -11.243   7.073  69.015  1.00  0.00    -0.054 A  
HETATM    8  C   UNL     1     -10.813   5.749  68.837  1.00  0.00    -0.305 A  
ENDROOT
BRANCH   6   9
HETATM    9  C   UNL     1     -11.036   9.358  70.070  1.00  0.00    -0.221 A  
HETATM   10  C   UNL     1     -10.824  10.627  69.508  1.00  0.00    -0.303 A  
HETATM   11  C   UNL     1     -12.737  13.814  70.582  1.00  0.00    -0.330 A  
HETATM   12  C   UNL     1     -11.665  11.650  70.127  1.00  0.00    -0.381 A  
HETATM   13  O   UNL     1     -14.243  14.070  72.369  1.00  0.00    -0.587 OA 
HETATM   14  C   UNL     1     -12.397  11.134  71.193  1.00  0.00    -0.346 A  
HETATM   15  H   UNL     1     -14.339  14.990  72.151  1.00  0.00     0.000 HD 
HETATM   16  C   UNL     1     -11.878  13.023  69.812  1.00  0.00    -0.381 A  
HETATM   17  S   UNL     1     -12.092   9.476  71.425  1.00  0.00    -0.403 SA 
HETATM   18  C   UNL     1     -13.279  11.916  71.964  1.00  0.00    -0.461 A  
HETATM   19  C   UNL     1     -13.420  13.260  71.645  1.00  0.00    -0.269 A  
BRANCH  10  20
HETATM   20  C   UNL     1      -9.973  10.846  68.336  1.00  0.00    -0.178 C  
HETATM   21  O   UNL     1      -9.386   9.898  67.813  1.00  0.00    -0.140 OA 
BRANCH  20  22
HETATM   22  C   UNL     1      -9.773  12.194  67.719  1.00  0.00    -0.197 A  
HETATM   23  C   UNL     1      -9.299  14.870  66.894  1.00  0.00    -0.241 A  
HETATM   24  C   UNL     1     -10.350  14.133  66.339  1.00  0.00    -0.287 A  
HETATM   25  C   UNL     1      -8.710  12.935  68.242  1.00  0.00    -0.168 A  
HETATM   26  C   UNL     1     -10.590  12.799  66.750  1.00  0.00    -0.266 A  
HETATM   27  C   UNL     1      -8.495  14.259  67.857  1.00  0.00    -0.168 A  
BRANCH  23  28
HETATM   28  O   UNL     1      -9.109  16.174  66.452  1.00  0.00    -0.248 OA 
BRANCH  28  29
HETATM   29  C   UNL     1      -9.029  17.098  67.550  1.00  0.00    -0.221 C  
BRANCH  29  30
HETATM   30  C   UNL     1      -7.774  17.985  67.647  1.00  0.00    -0.215 C  
BRANCH  30  31
HETATM   31  N   UNL     1      -7.907  19.187  66.776  1.00  0.00    -0.249 NA 
HETATM   32  C   UNL     1      -7.732  20.473  67.475  1.00  0.00    -0.297 C  
HETATM   33  C   UNL     1      -6.330  20.613  68.061  1.00  0.00    -0.357 C  
HETATM   34  C   UNL     1      -5.305  20.583  66.934  1.00  0.00    -0.198 C  
HETATM   35  C   UNL     1      -5.525  19.411  65.971  1.00  0.00    -0.170 C  
HETATM   36  C   UNL     1      -6.998  19.161  65.620  1.00  0.00    -0.260 C  
ENDBRANCH  30  31
ENDBRANCH  29  30
ENDBRANCH  28  29
ENDBRANCH  23  28
ENDBRANCH  20  22
ENDBRANCH  10  20
ENDBRANCH   6   9
TORSDOF 7
ENDMDL
MODEL      126
REMARK 921   NORMALIZED FREE ENERGY PREDICTED BY IDOCK:   -5.10 KCAL/MOL
REMARK 922        TOTAL FREE ENERGY PREDICTED BY IDOCK:   -9.27 KCAL/MOL
REMARK 923 INTER-LIGAND FREE ENERGY PREDICTED BY IDOCK:   -7.93 KCAL/MOL
REMARK 924 INTRA-LIGAND FREE ENERGY PREDICTED BY IDOCK:   -1.34 KCAL/MOL
REMARK 927      BINDING AFFINITY PREDICTED BY RF-SCORE:    0.00 PKD
ROOT
HETATM    1  O   UNL     1      -5.158  15.818  71.177  1.00  0.00    -0.176 OA 
HETATM    2  H   UNL     1      -5.281  16.691  71.530  1.00  0.00     0.000 HD 
HETATM    3  C   UNL     1      -6.026  15.277  70.277  1.00  0.00    -0.130 A  
HETATM    4  C   UNL     1      -5.846  14.000  69.761  1.00  0.00    -0.115 A  
HETATM    5  C   UNL     1      -6.733  13.507  68.790  1.00  0.00    -0.105 A  
HETATM    6  C   UNL     1      -7.821  14.273  68.337  1.00  0.00    -0.140 A  
HETATM    7  C   UNL     1      -8.006  15.537  68.931  1.00  0.00    -0.187 A  
HETATM    8  C   UNL     1      -7.106  16.042  69.881  1.00  0.00     0.138 A  
ENDROOT
BRANCH   6   9
HETATM    9  C   UNL     1      -8.706  13.814  67.223  1.00  0.00    -0.219 A  
HETATM   10  C   UNL     1      -9.014  12.550  66.696  1.00  0.00    -0.174 A  
HETATM   11  C   UNL     1     -11.620  11.954  63.897  1.00  0.00    -0.515 A  
HETATM   12  C   UNL     1     -10.013  12.628  65.630  1.00  0.00    -0.253 A  
HETATM   13  O   UNL     1     -12.782  13.557  62.629  1.00  0.00    -0.501 OA 
HETATM   14  C   UNL     1     -10.337  13.949  65.329  1.00  0.00    -0.378 A  
HETATM   15  H   UNL     1     -13.204  12.860  62.142  1.00  0.00     0.000 HD 
HETATM   16  C   UNL     1     -10.706  11.619  64.902  1.00  0.00    -0.352 A  
HETATM   17  S   UNL     1      -9.482  15.048  66.306  1.00  0.00    -0.314 SA 
HETATM   18  C   UNL     1     -11.269  14.298  64.332  1.00  0.00    -0.262 A  
HETATM   19  C   UNL     1     -11.887  13.279  63.620  1.00  0.00    -0.458 A  
BRANCH  10  20
HETATM   20  C   UNL     1      -8.504  11.302  67.268  1.00  0.00    -0.144 C  
HETATM   21  O   UNL     1      -7.521  10.752  66.769  1.00  0.00    -0.115 OA 
BRANCH  20  22
HETATM   22  C   UNL     1      -9.124  10.641  68.457  1.00  0.00    -0.159 A  
HETATM   23  C   UNL     1     -10.547   9.672  70.716  1.00  0.00    -0.322 A  
HETATM   24  C   UNL     1      -9.155   9.545  70.646  1.00  0.00    -0.236 A  
HETATM   25  C   UNL     1     -10.517  10.734  68.530  1.00  0.00    -0.208 A  
HETATM   26  C   UNL     1      -8.443  10.029  69.522  1.00  0.00    -0.186 A  
HETATM   27  C   UNL     1     -11.212  10.282  69.653  1.00  0.00    -0.322 A  
BRANCH  23  28
HETATM   28  O   UNL     1     -11.193   9.177  71.842  1.00  0.00    -0.364 OA 
BRANCH  28  29
HETATM   29  C   UNL     1     -10.389   8.202  72.527  1.00  0.00    -0.330 C  
BRANCH  29  30
HETATM   30  C   UNL     1     -10.986   6.798  72.730  1.00  0.00    -0.270 C  
BRANCH  30  31
HETATM   31  N   UNL     1     -10.496   6.193  74.001  1.00  0.00    -0.285 NA 
HETATM   32  C   UNL     1     -10.705   4.738  74.109  1.00  0.00    -0.271 C  
HETATM   33  C   UNL     1      -9.938   3.974  73.034  1.00  0.00    -0.194 C  
HETATM   34  C   UNL     1      -8.443   4.217  73.209  1.00  0.00    -0.089 C  
HETATM   35  C   UNL     1      -8.104   5.704  73.360  1.00  0.00    -0.113 C  
HETATM   36  C   UNL     1      -9.076   6.477  74.261  1.00  0.00    -0.179 C  
ENDBRANCH  30  31
ENDBRANCH  29  30
ENDBRANCH  28  29
ENDBRANCH  23  28
ENDBRANCH  20  22
ENDBRANCH  10  20
ENDBRANCH   6   9
TORSDOF 7
ENDMDL
MODEL      127
REMARK 921   NORMALIZED FREE ENERGY PREDICTED BY IDOCK:   -5.10 KCAL/MOL
REMARK 922        TOTAL FREE ENERGY PREDICTED BY IDOCK:   -9.26 KCAL/MOL
REMARK 923 INTER-LIGAND FREE ENERGY PREDICTED BY IDOCK:   -6.95 KCAL/MOL
REMARK 924 INTRA-LIGAND FREE ENERGY PREDICTED BY IDOCK:   -2.31 KCAL/MOL
REMARK 927      BINDING AFFINITY PREDICTED BY RF-SCORE:    0.00 PKD
ROOT
HETATM    1  O   UNL     1     -11.941   4.928  72.971  1.00  0.00    -0.347 OA 
HETATM    2  H   UNL     1     -11.216   4.632  73.508  1.00  0.00     0.000 HD 
HETATM    3  C   UNL     1     -12.027   6.211  72.521  1.00  0.00    -0.124 A  
HETATM    4  C   UNL     1     -13.087   6.644  71.735  1.00  0.00    -0.147 A  
HETATM    5  C   UNL     1     -13.103   7.959  71.244  1.00  0.00    -0.219 A  
HETATM    6  C   UNL     1     -12.070   8.864  71.546  1.00  0.00    -0.395 A  
HETATM    7  C   UNL     1     -11.046   8.407  72.397  1.00  0.00    -0.431 A  
HETATM    8  C   UNL     1     -11.015   7.086  72.867  1.00  0.00    -0.337 A  
ENDROOT
BRANCH   6   9
HETATM    9  C   UNL     1     -12.009  10.229  70.939  1.00  0.00    -0.375 A  
HETATM   10  C   UNL     1     -11.438  10.736  69.761  1.00  0.00    -0.386 A  
HETATM   11  C   UNL     1     -11.820  14.400  68.576  1.00  0.00    -0.369 A  
HETATM   12  C   UNL     1     -11.722  12.159  69.580  1.00  0.00    -0.402 A  
HETATM   13  O   UNL     1     -12.802  16.202  69.724  1.00  0.00    -0.516 OA 
HETATM   14  C   UNL     1     -12.404  12.687  70.674  1.00  0.00    -0.290 A  
HETATM   15  H   UNL     1     -12.584  16.777  68.999  1.00  0.00     0.000 HD 
HETATM   16  C   UNL     1     -11.459  13.051  68.500  1.00  0.00    -0.340 A  
HETATM   17  S   UNL     1     -12.703  11.507  71.861  1.00  0.00     0.010 SA 
HETATM   18  C   UNL     1     -12.790  14.040  70.752  1.00  0.00    -0.355 A  
HETATM   19  C   UNL     1     -12.472  14.880  69.694  1.00  0.00    -0.139 A  
BRANCH  10  20
HETATM   20  C   UNL     1     -10.775   9.887  68.768  1.00  0.00    -0.220 C  
HETATM   21  O   UNL     1     -11.050  10.006  67.573  1.00  0.00    -0.274 OA 
BRANCH  20  22
HETATM   22  C   UNL     1      -9.754   8.857  69.133  1.00  0.00    -0.168 A  
HETATM   23  C   UNL     1      -7.560   7.146  69.700  1.00  0.00    -0.104 A  
HETATM   24  C   UNL     1      -8.761   6.620  69.215  1.00  0.00    -0.131 A  
HETATM   25  C   UNL     1      -8.557   9.362  69.645  1.00  0.00    -0.171 A  
HETATM   26  C   UNL     1      -9.857   7.471  68.930  1.00  0.00    -0.159 A  
HETATM   27  C   UNL     1      -7.469   8.524  69.897  1.00  0.00    -0.063 A  
BRANCH  23  28
HETATM   28  O   UNL     1      -6.519   6.264  69.965  1.00  0.00    -0.040 OA 
BRANCH  28  29
HETATM   29  C   UNL     1      -6.814   4.941  69.488  1.00  0.00    -0.053 C  
BRANCH  29  30
HETATM   30  C   UNL     1      -6.697   3.777  70.490  1.00  0.00    -0.033 C  
BRANCH  30  31
HETATM   31  N   UNL     1      -8.045   3.329  70.940  1.00  0.00    -0.053 NA 
HETATM   32  C   UNL     1      -8.082   1.966  71.501  1.00  0.00    -0.040 C  
HETATM   33  C   UNL     1      -7.231   1.848  72.761  1.00  0.00    -0.031 C  
HETATM   34  C   UNL     1      -7.783   2.780  73.834  1.00  0.00    -0.055 C  
HETATM   35  C   UNL     1      -8.029   4.199  73.310  1.00  0.00    -0.089 C  
HETATM   36  C   UNL     1      -8.660   4.246  71.911  1.00  0.00    -0.107 C  
ENDBRANCH  30  31
ENDBRANCH  29  30
ENDBRANCH  28  29
ENDBRANCH  23  28
ENDBRANCH  20  22
ENDBRANCH  10  20
ENDBRANCH   6   9
TORSDOF 7
ENDMDL
MODEL      128
REMARK 921   NORMALIZED FREE ENERGY PREDICTED BY IDOCK:   -5.10 KCAL/MOL
REMARK 922        TOTAL FREE ENERGY PREDICTED BY IDOCK:   -9.26 KCAL/MOL
REMARK 923 INTER-LIGAND FREE ENERGY PREDICTED BY IDOCK:   -7.38 KCAL/MOL
REMARK 924 INTRA-LIGAND FREE ENERGY PREDICTED BY IDOCK:   -1.87 KCAL/MOL
REMARK 927      BINDING AFFINITY PREDICTED BY RF-SCORE:    0.00 PKD
ROOT
HETATM    1  O   UNL     1     -13.340  12.953  71.768  1.00  0.00    -0.420 OA 
HETATM    2  H   UNL     1     -13.533  13.875  71.646  1.00  0.00     0.000 HD 
HETATM    3  C   UNL     1     -12.549  12.263  70.899  1.00  0.00    -0.241 A  
HETATM    4  C   UNL     1     -12.266  10.916  71.078  1.00  0.00    -0.464 A  
HETATM    5  C   UNL     1     -11.398  10.259  70.190  1.00  0.00    -0.388 A  
HETATM    6  C   UNL     1     -10.816  10.935  69.104  1.00  0.00    -0.280 A  
HETATM    7  C   UNL     1     -11.177  12.284  68.920  1.00  0.00    -0.323 A  
HETATM    8  C   UNL     1     -12.024  12.948  69.820  1.00  0.00    -0.365 A  
ENDROOT
BRANCH   6   9
HETATM    9  C   UNL     1      -9.800  10.287  68.219  1.00  0.00    -0.146 A  
HETATM   10  C   UNL     1      -8.402  10.378  68.128  1.00  0.00    -0.117 A  
HETATM   11  C   UNL     1      -6.247   8.229  65.739  1.00  0.00    -0.052 A  
HETATM   12  C   UNL     1      -7.856   9.468  67.122  1.00  0.00    -0.095 A  
HETATM   13  O   UNL     1      -6.975   6.750  64.060  1.00  0.00    -0.047 OA 
HETATM   14  C   UNL     1      -8.867   8.809  66.426  1.00  0.00    -0.147 A  
HETATM   15  H   UNL     1      -6.070   6.571  63.832  1.00  0.00     0.000 HD 
HETATM   16  C   UNL     1      -6.516   9.132  66.771  1.00  0.00    -0.067 A  
HETATM   17  S   UNL     1     -10.411   9.259  66.980  1.00  0.00    -0.201 SA 
HETATM   18  C   UNL     1      -8.607   7.883  65.397  1.00  0.00    -0.118 A  
HETATM   19  C   UNL     1      -7.286   7.621  65.062  1.00  0.00    -0.073 A  
BRANCH  10  20
HETATM   20  C   UNL     1      -7.594  11.177  69.052  1.00  0.00    -0.119 C  
HETATM   21  O   UNL     1      -7.247  10.705  70.136  1.00  0.00    -0.169 OA 
BRANCH  20  22
HETATM   22  C   UNL     1      -7.153  12.573  68.745  1.00  0.00    -0.092 A  
HETATM   23  C   UNL     1      -6.400  15.144  67.804  1.00  0.00    -0.160 A  
HETATM   24  C   UNL     1      -5.672  14.521  68.823  1.00  0.00    -0.086 A  
HETATM   25  C   UNL     1      -7.886  13.222  67.748  1.00  0.00    -0.157 A  
HETATM   26  C   UNL     1      -6.044  13.238  69.293  1.00  0.00    -0.100 A  
HETATM   27  C   UNL     1      -7.499  14.474  67.267  1.00  0.00    -0.126 A  
BRANCH  23  28
HETATM   28  O   UNL     1      -5.990  16.404  67.384  1.00  0.00    -0.139 OA 
BRANCH  28  29
HETATM   29  C   UNL     1      -6.313  17.415  68.353  1.00  0.00    -0.175 C  
BRANCH  29  30
HETATM   30  C   UNL     1      -7.031  18.682  67.852  1.00  0.00    -0.221 C  
BRANCH  30  31
HETATM   31  N   UNL     1      -8.203  18.324  67.003  1.00  0.00    -0.233 NA 
HETATM   32  C   UNL     1      -9.309  17.673  67.728  1.00  0.00    -0.255 C  
HETATM   33  C   UNL     1      -9.908  18.589  68.790  1.00  0.00    -0.411 C  
HETATM   34  C   UNL     1     -10.491  19.828  68.121  1.00  0.00    -0.494 C  
HETATM   35  C   UNL     1      -9.514  20.477  67.135  1.00  0.00    -0.544 C  
HETATM   36  C   UNL     1      -8.747  19.473  66.264  1.00  0.00    -0.359 C  
ENDBRANCH  30  31
ENDBRANCH  29  30
ENDBRANCH  28  29
ENDBRANCH  23  28
ENDBRANCH  20  22
ENDBRANCH  10  20
ENDBRANCH   6   9
TORSDOF 7
ENDMDL
MODEL      129
REMARK 921   NORMALIZED FREE ENERGY PREDICTED BY IDOCK:   -5.08 KCAL/MOL
REMARK 922        TOTAL FREE ENERGY PREDICTED BY IDOCK:   -9.24 KCAL/MOL
REMARK 923 INTER-LIGAND FREE ENERGY PREDICTED BY IDOCK:   -6.85 KCAL/MOL
REMARK 924 INTRA-LIGAND FREE ENERGY PREDICTED BY IDOCK:   -2.39 KCAL/MOL
REMARK 927      BINDING AFFINITY PREDICTED BY RF-SCORE:    0.00 PKD
ROOT
HETATM    1  O   UNL     1     -12.863  14.188  65.661  1.00  0.00    -0.529 OA 
HETATM    2  H   UNL     1     -13.073  14.508  64.791  1.00  0.00     0.000 HD 
HETATM    3  C   UNL     1     -12.050  13.112  65.855  1.00  0.00    -0.444 A  
HETATM    4  C   UNL     1     -11.743  12.645  67.126  1.00  0.00    -0.438 A  
HETATM    5  C   UNL     1     -10.853  11.570  67.280  1.00  0.00    -0.301 A  
HETATM    6  C   UNL     1     -10.274  10.936  66.167  1.00  0.00    -0.304 A  
HETATM    7  C   UNL     1     -10.660  11.397  64.893  1.00  0.00    -0.368 A  
HETATM    8  C   UNL     1     -11.528  12.488  64.738  1.00  0.00    -0.369 A  
ENDROOT
BRANCH   6   9
HETATM    9  C   UNL     1      -9.237   9.868  66.313  1.00  0.00    -0.168 A  
HETATM   10  C   UNL     1      -8.474   9.407  67.397  1.00  0.00    -0.125 A  
HETATM   11  C   UNL     1      -6.066   6.384  67.215  1.00  0.00    -0.025 A  
HETATM   12  C   UNL     1      -7.632   8.268  67.032  1.00  0.00    -0.092 A  
HETATM   13  O   UNL     1      -5.429   5.147  65.319  1.00  0.00    -0.013 OA 
HETATM   14  C   UNL     1      -7.718   7.985  65.671  1.00  0.00    -0.094 A  
HETATM   15  H   UNL     1      -4.860   4.615  65.862  1.00  0.00     0.000 HD 
HETATM   16  C   UNL     1      -6.800   7.413  67.811  1.00  0.00    -0.074 A  
HETATM   17  S   UNL     1      -8.784   9.041  64.872  1.00  0.00    -0.132 SA 
HETATM   18  C   UNL     1      -6.997   6.938  65.062  1.00  0.00    -0.051 A  
HETATM   19  C   UNL     1      -6.166   6.160  65.856  1.00  0.00    -0.037 A  
BRANCH  10  20
HETATM   20  C   UNL     1      -8.635   9.919  68.759  1.00  0.00    -0.130 C  
HETATM   21  O   UNL     1      -8.050  10.946  69.106  1.00  0.00    -0.149 OA 
BRANCH  20  22
HETATM   22  C   UNL     1      -9.497   9.248  69.782  1.00  0.00    -0.203 A  
HETATM   23  C   UNL     1     -10.813   7.843  71.869  1.00  0.00    -0.243 A  
HETATM   24  C   UNL     1     -11.375   7.901  70.590  1.00  0.00    -0.267 A  
HETATM   25  C   UNL     1      -8.964   9.205  71.072  1.00  0.00    -0.281 A  
HETATM   26  C   UNL     1     -10.721   8.599  69.546  1.00  0.00    -0.189 A  
HETATM   27  C   UNL     1      -9.597   8.490  72.091  1.00  0.00    -0.382 A  
BRANCH  23  28
HETATM   28  O   UNL     1     -11.500   7.145  72.855  1.00  0.00    -0.248 OA 
BRANCH  28  29
HETATM   29  C   UNL     1     -11.510   5.732  72.593  1.00  0.00    -0.287 C  
BRANCH  29  30
HETATM   30  C   UNL     1     -10.187   4.964  72.769  1.00  0.00    -0.180 C  
BRANCH  30  31
HETATM   31  N   UNL     1     -10.011   3.958  71.683  1.00  0.00    -0.179 NA 
HETATM   32  C   UNL     1      -9.848   4.534  70.336  1.00  0.00    -0.232 C  
HETATM   33  C   UNL     1      -8.590   5.391  70.234  1.00  0.00    -0.126 C  
HETATM   34  C   UNL     1      -7.364   4.523  70.491  1.00  0.00    -0.049 C  
HETATM   35  C   UNL     1      -7.504   3.669  71.756  1.00  0.00    -0.056 C  
HETATM   36  C   UNL     1      -8.892   3.037  71.931  1.00  0.00    -0.082 C  
ENDBRANCH  30  31
ENDBRANCH  29  30
ENDBRANCH  28  29
ENDBRANCH  23  28
ENDBRANCH  20  22
ENDBRANCH  10  20
ENDBRANCH   6   9
TORSDOF 7
ENDMDL
MODEL      130
REMARK 921   NORMALIZED FREE ENERGY PREDICTED BY IDOCK:   -5.08 KCAL/MOL
REMARK 922        TOTAL FREE ENERGY PREDICTED BY IDOCK:   -9.24 KCAL/MOL
REMARK 923 INTER-LIGAND FREE ENERGY PREDICTED BY IDOCK:   -7.41 KCAL/MOL
REMARK 924 INTRA-LIGAND FREE ENERGY PREDICTED BY IDOCK:   -1.83 KCAL/MOL
REMARK 927      BINDING AFFINITY PREDICTED BY RF-SCORE:    0.00 PKD
ROOT
HETATM    1  O   UNL     1     -11.482  17.215  68.575  1.00  0.00    -0.021 OA 
HETATM    2  H   UNL     1     -10.922  17.982  68.583  1.00  0.00     0.000 HD 
HETATM    3  C   UNL     1     -11.128  16.072  67.924  1.00  0.00    -0.307 A  
HETATM    4  C   UNL     1     -11.946  14.950  67.912  1.00  0.00    -0.206 A  
HETATM    5  C   UNL     1     -11.513  13.774  67.279  1.00  0.00    -0.367 A  
HETATM    6  C   UNL     1     -10.266  13.709  66.634  1.00  0.00    -0.276 A  
HETATM    7  C   UNL     1      -9.492  14.886  66.613  1.00  0.00    -0.286 A  
HETATM    8  C   UNL     1      -9.912  16.054  67.268  1.00  0.00    -0.242 A  
ENDROOT
BRANCH   6   9
HETATM    9  C   UNL     1      -9.737  12.435  66.057  1.00  0.00    -0.244 A  
HETATM   10  C   UNL     1      -8.947  11.397  66.575  1.00  0.00    -0.192 A  
HETATM   11  C   UNL     1      -8.080   8.165  64.631  1.00  0.00    -0.148 A  
HETATM   12  C   UNL     1      -8.761  10.314  65.610  1.00  0.00    -0.176 A  
HETATM   13  O   UNL     1      -8.539   7.657  62.381  1.00  0.00    -0.383 OA 
HETATM   14  C   UNL     1      -9.327  10.626  64.376  1.00  0.00    -0.251 A  
HETATM   15  H   UNL     1      -8.098   6.822  62.484  1.00  0.00     0.000 HD 
HETATM   16  C   UNL     1      -8.151   9.032  65.726  1.00  0.00    -0.109 A  
HETATM   17  S   UNL     1     -10.069  12.156  64.390  1.00  0.00    -0.247 SA 
HETATM   18  C   UNL     1      -9.279   9.753  63.271  1.00  0.00    -0.219 A  
HETATM   19  C   UNL     1      -8.635   8.533  63.421  1.00  0.00     0.055 A  
BRANCH  10  20
HETATM   20  C   UNL     1      -8.507  11.352  67.971  1.00  0.00    -0.145 C  
HETATM   21  O   UNL     1      -7.541  12.024  68.335  1.00  0.00    -0.115 OA 
BRANCH  20  22
HETATM   22  C   UNL     1      -9.183  10.514  69.009  1.00  0.00    -0.193 A  
HETATM   23  C   UNL     1     -10.667   9.232  71.063  1.00  0.00    -0.316 A  
HETATM   24  C   UNL     1      -9.313   8.934  70.875  1.00  0.00    -0.295 A  
HETATM   25  C   UNL     1     -10.543  10.778  69.192  1.00  0.00    -0.254 A  
HETATM   26  C   UNL     1      -8.570   9.573  69.853  1.00  0.00    -0.217 A  
HETATM   27  C   UNL     1     -11.264  10.168  70.220  1.00  0.00    -0.387 A  
BRANCH  23  28
HETATM   28  O   UNL     1     -11.346   8.572  72.081  1.00  0.00    -0.328 OA 
BRANCH  28  29
HETATM   29  C   UNL     1     -11.489   7.170  71.798  1.00  0.00    -0.267 C  
BRANCH  29  30
HETATM   30  C   UNL     1     -11.156   6.176  72.926  1.00  0.00    -0.247 C  
BRANCH  30  31
HETATM   31  N   UNL     1      -9.754   5.688  72.803  1.00  0.00    -0.156 NA 
HETATM   32  C   UNL     1      -9.434   4.524  73.649  1.00  0.00    -0.123 C  
HETATM   33  C   UNL     1     -10.269   3.303  73.274  1.00  0.00    -0.224 C  
HETATM   34  C   UNL     1      -9.959   2.900  71.837  1.00  0.00    -0.213 C  
HETATM   35  C   UNL     1     -10.016   4.087  70.869  1.00  0.00    -0.167 C  
HETATM   36  C   UNL     1      -9.377   5.370  71.418  1.00  0.00    -0.147 C  
ENDBRANCH  30  31
ENDBRANCH  29  30
ENDBRANCH  28  29
ENDBRANCH  23  28
ENDBRANCH  20  22
ENDBRANCH  10  20
ENDBRANCH   6   9
TORSDOF 7
ENDMDL
MODEL      131
REMARK 921   NORMALIZED FREE ENERGY PREDICTED BY IDOCK:   -5.05 KCAL/MOL
REMARK 922        TOTAL FREE ENERGY PREDICTED BY IDOCK:   -9.19 KCAL/MOL
REMARK 923 INTER-LIGAND FREE ENERGY PREDICTED BY IDOCK:   -8.20 KCAL/MOL
REMARK 924 INTRA-LIGAND FREE ENERGY PREDICTED BY IDOCK:   -0.99 KCAL/MOL
REMARK 927      BINDING AFFINITY PREDICTED BY RF-SCORE:    0.00 PKD
ROOT
HETATM    1  O   UNL     1     -11.350   8.279  71.042  1.00  0.00    -0.261 OA 
HETATM    2  H   UNL     1     -12.119   8.177  71.589  1.00  0.00     0.000 HD 
HETATM    3  C   UNL     1     -11.191   9.352  70.217  1.00  0.00    -0.246 A  
HETATM    4  C   UNL     1     -10.066   9.501  69.416  1.00  0.00    -0.206 A  
HETATM    5  C   UNL     1      -9.917  10.653  68.626  1.00  0.00    -0.188 A  
HETATM    6  C   UNL     1     -10.898  11.660  68.611  1.00  0.00    -0.253 A  
HETATM    7  C   UNL     1     -12.053  11.442  69.387  1.00  0.00    -0.358 A  
HETATM    8  C   UNL     1     -12.191  10.305  70.197  1.00  0.00    -0.251 A  
ENDROOT
BRANCH   6   9
HETATM    9  C   UNL     1     -10.705  12.944  67.869  1.00  0.00    -0.220 A  
HETATM   10  C   UNL     1     -10.843  13.308  66.521  1.00  0.00    -0.288 A  
HETATM   11  C   UNL     1     -10.426  16.923  65.205  1.00  0.00    -0.017 A  
HETATM   12  C   UNL     1     -10.603  14.735  66.309  1.00  0.00    -0.306 A  
HETATM   13  O   UNL     1      -9.700  18.823  66.385  1.00  0.00    -0.333 OA 
HETATM   14  C   UNL     1     -10.194  15.364  67.483  1.00  0.00    -0.244 A  
HETATM   15  H   UNL     1      -9.776  19.340  65.591  1.00  0.00     0.000 HD 
HETATM   16  C   UNL     1     -10.743  15.562  65.157  1.00  0.00    -0.460 A  
HETATM   17  S   UNL     1     -10.122  14.277  68.790  1.00  0.00    -0.182 SA 
HETATM   18  C   UNL     1      -9.890  16.738  67.547  1.00  0.00    -0.255 A  
HETATM   19  C   UNL     1     -10.001  17.493  66.388  1.00  0.00    -0.325 A  
BRANCH  10  20
HETATM   20  C   UNL     1     -11.326  12.384  65.492  1.00  0.00    -0.346 C  
HETATM   21  O   UNL     1     -12.534  12.272  65.281  1.00  0.00    -0.585 OA 
BRANCH  20  22
HETATM   22  C   UNL     1     -10.409  11.547  64.657  1.00  0.00    -0.349 A  
HETATM   23  C   UNL     1      -8.484   9.886  63.393  1.00  0.00    -0.182 A  
HETATM   24  C   UNL     1      -8.962  11.033  62.750  1.00  0.00    -0.327 A  
HETATM   25  C   UNL     1      -9.943  10.383  65.272  1.00  0.00    -0.376 A  
HETATM   26  C   UNL     1      -9.920  11.864  63.379  1.00  0.00    -0.435 A  
HETATM   27  C   UNL     1      -8.976   9.582  64.662  1.00  0.00    -0.266 A  
BRANCH  23  28
HETATM   28  O   UNL     1      -7.546   9.107  62.727  1.00  0.00    -0.105 OA 
BRANCH  28  29
HETATM   29  C   UNL     1      -7.265   7.892  63.442  1.00  0.00    -0.091 C  
BRANCH  29  30
HETATM   30  C   UNL     1      -8.463   7.083  63.974  1.00  0.00     0.321 C  
BRANCH  30  31
HETATM   31  N   UNL     1      -8.034   6.152  65.055  1.00  0.00    -0.117 NA 
HETATM   32  C   UNL     1      -8.338   6.617  66.421  1.00  0.00    -0.121 C  
HETATM   33  C   UNL     1      -9.839   6.760  66.650  1.00  0.00    -0.214 C  
HETATM   34  C   UNL     1     -10.508   5.399  66.492  1.00  0.00    -0.352 C  
HETATM   35  C   UNL     1     -10.081   4.682  65.206  1.00  0.00    -0.124 C  
HETATM   36  C   UNL     1      -8.582   4.796  64.896  1.00  0.00    -0.145 C  
ENDBRANCH  30  31
ENDBRANCH  29  30
ENDBRANCH  28  29
ENDBRANCH  23  28
ENDBRANCH  20  22
ENDBRANCH  10  20
ENDBRANCH   6   9
TORSDOF 7
ENDMDL
MODEL      132
REMARK 921   NORMALIZED FREE ENERGY PREDICTED BY IDOCK:   -5.04 KCAL/MOL
REMARK 922        TOTAL FREE ENERGY PREDICTED BY IDOCK:   -9.18 KCAL/MOL
REMARK 923 INTER-LIGAND FREE ENERGY PREDICTED BY IDOCK:   -6.66 KCAL/MOL
REMARK 924 INTRA-LIGAND FREE ENERGY PREDICTED BY IDOCK:   -2.52 KCAL/MOL
REMARK 927      BINDING AFFINITY PREDICTED BY RF-SCORE:    0.00 PKD
ROOT
HETATM    1  O   UNL     1     -11.014   6.830  70.481  1.00  0.00    -0.249 OA 
HETATM    2  H   UNL     1     -10.880   6.010  70.022  1.00  0.00     0.000 HD 
HETATM    3  C   UNL     1     -10.848   8.034  69.866  1.00  0.00    -0.217 A  
HETATM    4  C   UNL     1     -11.045   9.234  70.538  1.00  0.00    -0.317 A  
HETATM    5  C   UNL     1     -10.921  10.450  69.847  1.00  0.00    -0.364 A  
HETATM    6  C   UNL     1     -10.582  10.486  68.484  1.00  0.00    -0.234 A  
HETATM    7  C   UNL     1     -10.329   9.251  67.854  1.00  0.00    -0.279 A  
HETATM    8  C   UNL     1     -10.477   8.034  68.535  1.00  0.00    -0.200 A  
ENDROOT
BRANCH   6   9
HETATM    9  C   UNL     1     -10.560  11.761  67.704  1.00  0.00    -0.205 A  
HETATM   10  C   UNL     1      -9.644  12.821  67.615  1.00  0.00    -0.192 A  
HETATM   11  C   UNL     1     -10.027  15.811  65.189  1.00  0.00    -0.050 A  
HETATM   12  C   UNL     1     -10.057  13.824  66.635  1.00  0.00    -0.277 A  
HETATM   13  O   UNL     1     -11.853  16.330  63.800  1.00  0.00    -1.445 OA 
HETATM   14  C   UNL     1     -11.312  13.534  66.103  1.00  0.00    -0.308 A  
HETATM   15  H   UNL     1     -11.401  17.112  63.506  1.00  0.00     0.000 HD 
HETATM   16  C   UNL     1      -9.403  14.984  66.128  1.00  0.00    -0.327 A  
HETATM   17  S   UNL     1     -11.954  12.098  66.751  1.00  0.00     0.106 SA 
HETATM   18  C   UNL     1     -11.942  14.349  65.143  1.00  0.00    -0.391 A  
HETATM   19  C   UNL     1     -11.283  15.492  64.713  1.00  0.00    -0.390 A  
BRANCH  10  20
HETATM   20  C   UNL     1      -8.357  12.821  68.314  1.00  0.00    -0.161 C  
HETATM   21  O   UNL     1      -7.949  13.850  68.855  1.00  0.00    -0.101 OA 
BRANCH  20  22
HETATM   22  C   UNL     1      -7.486  11.609  68.411  1.00  0.00    -0.107 A  
HETATM   23  C   UNL     1      -6.021   9.179  68.297  1.00  0.00    -0.045 A  
HETATM   24  C   UNL     1      -6.364   9.743  69.531  1.00  0.00    -0.045 A  
HETATM   25  C   UNL     1      -7.110  11.048  67.188  1.00  0.00    -0.104 A  
HETATM   26  C   UNL     1      -7.096  10.953  69.591  1.00  0.00    -0.117 A  
HETATM   27  C   UNL     1      -6.414   9.839  67.133  1.00  0.00    -0.069 A  
BRANCH  23  28
HETATM   28  O   UNL     1      -5.300   7.991  68.299  1.00  0.00    -0.030 OA 
BRANCH  28  29
HETATM   29  C   UNL     1      -6.115   6.878  67.893  1.00  0.00    -0.033 C  
BRANCH  29  30
HETATM   30  C   UNL     1      -7.113   6.312  68.919  1.00  0.00    -0.082 C  
BRANCH  30  31
HETATM   31  N   UNL     1      -6.395   5.658  70.050  1.00  0.00    -0.029 NA 
HETATM   32  C   UNL     1      -6.214   6.514  71.237  1.00  0.00    -0.041 C  
HETATM   33  C   UNL     1      -7.549   6.921  71.852  1.00  0.00    -0.093 C  
HETATM   34  C   UNL     1      -8.292   5.675  72.319  1.00  0.00    -0.119 C  
HETATM   35  C   UNL     1      -8.343   4.584  71.243  1.00  0.00    -0.107 C  
HETATM   36  C   UNL     1      -7.025   4.400  70.479  1.00  0.00    -0.037 C  
ENDBRANCH  30  31
ENDBRANCH  29  30
ENDBRANCH  28  29
ENDBRANCH  23  28
ENDBRANCH  20  22
ENDBRANCH  10  20
ENDBRANCH   6   9
TORSDOF 7
ENDMDL
MODEL      133
REMARK 921   NORMALIZED FREE ENERGY PREDICTED BY IDOCK:   -5.01 KCAL/MOL
REMARK 922        TOTAL FREE ENERGY PREDICTED BY IDOCK:   -9.14 KCAL/MOL
REMARK 923 INTER-LIGAND FREE ENERGY PREDICTED BY IDOCK:   -7.28 KCAL/MOL
REMARK 924 INTRA-LIGAND FREE ENERGY PREDICTED BY IDOCK:   -1.86 KCAL/MOL
REMARK 927      BINDING AFFINITY PREDICTED BY RF-SCORE:    0.00 PKD
ROOT
HETATM    1  O   UNL     1      -5.392  12.316  69.973  1.00  0.00    -0.080 OA 
HETATM    2  H   UNL     1      -5.778  12.744  70.728  1.00  0.00     0.000 HD 
HETATM    3  C   UNL     1      -5.872  11.135  69.492  1.00  0.00    -0.061 A  
HETATM    4  C   UNL     1      -5.308  10.510  68.388  1.00  0.00    -0.033 A  
HETATM    5  C   UNL     1      -5.873   9.324  67.891  1.00  0.00    -0.041 A  
HETATM    6  C   UNL     1      -6.997   8.739  68.501  1.00  0.00    -0.065 A  
HETATM    7  C   UNL     1      -7.500   9.369  69.656  1.00  0.00    -0.084 A  
HETATM    8  C   UNL     1      -6.953  10.567  70.138  1.00  0.00    -0.119 A  
ENDROOT
BRANCH   6   9
HETATM    9  C   UNL     1      -7.682   7.544  67.919  1.00  0.00    -0.116 A  
HETATM   10  C   UNL     1      -8.610   7.376  66.879  1.00  0.00    -0.120 A  
HETATM   11  C   UNL     1      -9.874   3.933  65.645  1.00  0.00    -0.149 A  
HETATM   12  C   UNL     1      -8.926   5.967  66.647  1.00  0.00    -0.129 A  
HETATM   13  O   UNL     1      -9.457   1.814  66.576  1.00  0.00    -0.345 OA 
HETATM   14  C   UNL     1      -8.307   5.143  67.583  1.00  0.00    -0.105 A  
HETATM   15  H   UNL     1     -10.006   1.418  65.910  1.00  0.00     0.000 HD 
HETATM   16  C   UNL     1      -9.703   5.321  65.642  1.00  0.00    -0.031 A  
HETATM   17  S   UNL     1      -7.368   6.035  68.687  1.00  0.00    -0.087 SA 
HETATM   18  C   UNL     1      -8.456   3.742  67.585  1.00  0.00    -0.104 A  
HETATM   19  C   UNL     1      -9.259   3.163  66.611  1.00  0.00    -0.146 A  
BRANCH  10  20
HETATM   20  C   UNL     1      -9.071   8.482  66.037  1.00  0.00    -0.194 C  
HETATM   21  O   UNL     1      -8.829   8.481  64.830  1.00  0.00    -0.090 OA 
BRANCH  20  22
HETATM   22  C   UNL     1      -9.843   9.645  66.576  1.00  0.00    -0.298 A  
HETATM   23  C   UNL     1     -11.004  12.059  67.517  1.00  0.00    -0.253 A  
HETATM   24  C   UNL     1     -11.245  10.851  68.180  1.00  0.00    -0.363 A  
HETATM   25  C   UNL     1      -9.637  10.855  65.909  1.00  0.00    -0.257 A  
HETATM   26  C   UNL     1     -10.665   9.646  67.715  1.00  0.00    -0.316 A  
HETATM   27  C   UNL     1     -10.186  12.046  66.388  1.00  0.00    -0.243 A  
BRANCH  23  28
HETATM   28  O   UNL     1     -11.601  13.210  68.018  1.00  0.00    -0.291 OA 
BRANCH  28  29
HETATM   29  C   UNL     1     -12.258  12.962  69.272  1.00  0.00    -0.065 C  
BRANCH  29  30
HETATM   30  C   UNL     1     -11.822  13.803  70.486  1.00  0.00    -0.223 C  
BRANCH  30  31
HETATM   31  N   UNL     1     -12.452  15.153  70.447  1.00  0.00    -0.358 NA 
HETATM   32  C   UNL     1     -13.857  15.187  70.894  1.00  0.00    -0.241 C  
HETATM   33  C   UNL     1     -13.997  14.771  72.355  1.00  0.00    -0.575 C  
HETATM   34  C   UNL     1     -13.233  15.753  73.236  1.00  0.00    -0.687 C  
HETATM   35  C   UNL     1     -11.807  16.005  72.734  1.00  0.00    -0.584 C  
HETATM   36  C   UNL     1     -11.700  16.160  71.211  1.00  0.00    -0.425 C  
ENDBRANCH  30  31
ENDBRANCH  29  30
ENDBRANCH  28  29
ENDBRANCH  23  28
ENDBRANCH  20  22
ENDBRANCH  10  20
ENDBRANCH   6   9
TORSDOF 7
ENDMDL
MODEL      134
REMARK 921   NORMALIZED FREE ENERGY PREDICTED BY IDOCK:   -4.99 KCAL/MOL
REMARK 922        TOTAL FREE ENERGY PREDICTED BY IDOCK:   -9.12 KCAL/MOL
REMARK 923 INTER-LIGAND FREE ENERGY PREDICTED BY IDOCK:   -8.50 KCAL/MOL
REMARK 924 INTRA-LIGAND FREE ENERGY PREDICTED BY IDOCK:   -0.62 KCAL/MOL
REMARK 927      BINDING AFFINITY PREDICTED BY RF-SCORE:    0.00 PKD
ROOT
HETATM    1  O   UNL     1      -9.655  11.671  62.456  1.00  0.00    -0.434 OA 
HETATM    2  H   UNL     1     -10.340  12.074  61.935  1.00  0.00     0.000 HD 
HETATM    3  C   UNL     1      -9.835  11.371  63.772  1.00  0.00    -0.319 A  
HETATM    4  C   UNL     1      -8.834  10.782  64.534  1.00  0.00    -0.143 A  
HETATM    5  C   UNL     1      -9.085  10.435  65.871  1.00  0.00    -0.192 A  
HETATM    6  C   UNL     1     -10.331  10.688  66.470  1.00  0.00    -0.299 A  
HETATM    7  C   UNL     1     -11.299  11.343  65.684  1.00  0.00    -0.069 A  
HETATM    8  C   UNL     1     -11.059  11.667  64.340  1.00  0.00    -0.382 A  
ENDROOT
BRANCH   6   9
HETATM    9  C   UNL     1     -10.656  10.221  67.853  1.00  0.00    -0.239 A  
HETATM   10  C   UNL     1     -11.093  10.878  69.014  1.00  0.00    -0.302 A  
HETATM   11  C   UNL     1     -12.015   9.064  72.305  1.00  0.00    -0.332 A  
HETATM   12  C   UNL     1     -11.341   9.945  70.112  1.00  0.00    -0.335 A  
HETATM   13  O   UNL     1     -11.753   6.787  72.831  1.00  0.00    -0.491 OA 
HETATM   14  C   UNL     1     -10.984   8.643  69.769  1.00  0.00    -0.127 A  
HETATM   15  H   UNL     1     -12.099   6.952  73.700  1.00  0.00     0.000 HD 
HETATM   16  C   UNL     1     -11.897  10.132  71.411  1.00  0.00    -0.414 A  
HETATM   17  S   UNL     1     -10.390   8.551  68.178  1.00  0.00    -0.184 SA 
HETATM   18  C   UNL     1     -11.116   7.556  70.655  1.00  0.00    -0.280 A  
HETATM   19  C   UNL     1     -11.622   7.797  71.924  1.00  0.00    -0.287 A  
BRANCH  10  20
HETATM   20  C   UNL     1     -11.409  12.308  69.049  1.00  0.00    -0.280 C  
HETATM   21  O   UNL     1     -12.305  12.724  69.785  1.00  0.00    -0.170 OA 
BRANCH  20  22
HETATM   22  C   UNL     1     -10.682  13.320  68.221  1.00  0.00    -0.267 A  
HETATM   23  C   UNL     1      -9.587  15.206  66.404  1.00  0.00    -0.284 A  
HETATM   24  C   UNL     1      -8.752  14.325  67.099  1.00  0.00    -0.243 A  
HETATM   25  C   UNL     1     -11.498  14.227  67.541  1.00  0.00    -0.368 A  
HETATM   26  C   UNL     1      -9.296  13.381  68.004  1.00  0.00    -0.217 A  
HETATM   27  C   UNL     1     -10.962  15.135  66.627  1.00  0.00    -0.318 A  
BRANCH  23  28
HETATM   28  O   UNL     1      -8.998  16.112  65.529  1.00  0.00    -0.304 OA 
BRANCH  28  29
HETATM   29  C   UNL     1      -8.185  17.069  66.229  1.00  0.00    -0.287 C  
BRANCH  29  30
HETATM   30  C   UNL     1      -8.107  16.955  67.763  1.00  0.00    -0.181 C  
BRANCH  30  31
HETATM   31  N   UNL     1      -6.794  17.452  68.264  1.00  0.00    -0.184 NA 
HETATM   32  C   UNL     1      -6.493  17.085  69.660  1.00  0.00    -0.175 C  
HETATM   33  C   UNL     1      -6.393  15.574  69.840  1.00  0.00    -0.151 C  
HETATM   34  C   UNL     1      -5.249  15.037  68.988  1.00  0.00    -0.097 C  
HETATM   35  C   UNL     1      -5.302  15.547  67.544  1.00  0.00    -0.000 C  
HETATM   36  C   UNL     1      -5.664  17.034  67.421  1.00  0.00    -0.147 C  
ENDBRANCH  30  31
ENDBRANCH  29  30
ENDBRANCH  28  29
ENDBRANCH  23  28
ENDBRANCH  20  22
ENDBRANCH  10  20
ENDBRANCH   6   9
TORSDOF 7
ENDMDL
MODEL      135
REMARK 921   NORMALIZED FREE ENERGY PREDICTED BY IDOCK:   -4.98 KCAL/MOL
REMARK 922        TOTAL FREE ENERGY PREDICTED BY IDOCK:   -9.10 KCAL/MOL
REMARK 923 INTER-LIGAND FREE ENERGY PREDICTED BY IDOCK:   -8.44 KCAL/MOL
REMARK 924 INTRA-LIGAND FREE ENERGY PREDICTED BY IDOCK:   -0.66 KCAL/MOL
REMARK 927      BINDING AFFINITY PREDICTED BY RF-SCORE:    0.00 PKD
ROOT
HETATM    1  O   UNL     1      -5.134   8.959  70.336  1.00  0.00    -0.021 OA 
HETATM    2  H   UNL     1      -4.444   9.492  70.713  1.00  0.00     0.000 HD 
HETATM    3  C   UNL     1      -6.205   9.512  69.703  1.00  0.00    -0.040 A  
HETATM    4  C   UNL     1      -7.214   8.733  69.151  1.00  0.00    -0.067 A  
HETATM    5  C   UNL     1      -8.269   9.344  68.455  1.00  0.00    -0.113 A  
HETATM    6  C   UNL     1      -8.340  10.741  68.317  1.00  0.00    -0.125 A  
HETATM    7  C   UNL     1      -7.333  11.500  68.944  1.00  0.00    -0.116 A  
HETATM    8  C   UNL     1      -6.264  10.890  69.618  1.00  0.00    -0.085 A  
ENDROOT
BRANCH   6   9
HETATM    9  C   UNL     1      -9.390  11.403  67.482  1.00  0.00    -0.164 A  
HETATM   10  C   UNL     1     -10.633  11.982  67.778  1.00  0.00    -0.234 A  
HETATM   11  C   UNL     1     -12.849  13.794  65.173  1.00  0.00    -0.386 A  
HETATM   12  C   UNL     1     -11.261  12.572  66.596  1.00  0.00    -0.357 A  
HETATM   13  O   UNL     1     -12.528  13.945  62.848  1.00  0.00    -1.034 OA 
HETATM   14  C   UNL     1     -10.517  12.323  65.445  1.00  0.00    -0.269 A  
HETATM   15  H   UNL     1     -13.336  14.439  62.773  1.00  0.00     0.000 HD 
HETATM   16  C   UNL     1     -12.440  13.355  66.437  1.00  0.00    -0.297 A  
HETATM   17  S   UNL     1      -9.109  11.430  65.783  1.00  0.00    -0.143 SA 
HETATM   18  C   UNL     1     -10.908  12.776  64.170  1.00  0.00    -0.437 A  
HETATM   19  C   UNL     1     -12.088  13.499  64.060  1.00  0.00    -0.441 A  
BRANCH  10  20
HETATM   20  C   UNL     1     -11.148  12.109  69.143  1.00  0.00    -0.205 C  
HETATM   21  O   UNL     1     -11.290  13.224  69.648  1.00  0.00    -0.217 OA 
BRANCH  20  22
HETATM   22  C   UNL     1     -11.524  10.929  69.982  1.00  0.00    -0.411 A  
HETATM   23  C   UNL     1     -12.292   8.507  71.250  1.00  0.00    -0.271 A  
HETATM   24  C   UNL     1     -12.683   9.740  71.782  1.00  0.00    -0.519 A  
HETATM   25  C   UNL     1     -11.118   9.690  69.481  1.00  0.00    -0.198 A  
HETATM   26  C   UNL     1     -12.303  10.950  71.151  1.00  0.00    -0.479 A  
HETATM   27  C   UNL     1     -11.519   8.499  70.089  1.00  0.00     0.002 A  
BRANCH  23  28
HETATM   28  O   UNL     1     -12.691   7.353  71.913  1.00  0.00    -0.313 OA 
BRANCH  28  29
HETATM   29  C   UNL     1     -11.620   6.399  72.005  1.00  0.00    -0.321 C  
BRANCH  29  30
HETATM   30  C   UNL     1     -11.803   5.209  72.966  1.00  0.00    -0.057 C  
BRANCH  30  31
HETATM   31  N   UNL     1     -10.524   4.889  73.660  1.00  0.00    -0.215 NA 
HETATM   32  C   UNL     1     -10.553   3.650  74.458  1.00  0.00    -0.134 C  
HETATM   33  C   UNL     1     -10.803   2.421  73.590  1.00  0.00    -0.281 C  
HETATM   34  C   UNL     1      -9.665   2.270  72.587  1.00  0.00    -0.172 C  
HETATM   35  C   UNL     1      -9.358   3.576  71.846  1.00  0.00    -0.191 C  
HETATM   36  C   UNL     1      -9.376   4.821  72.743  1.00  0.00    -0.128 C  
ENDBRANCH  30  31
ENDBRANCH  29  30
ENDBRANCH  28  29
ENDBRANCH  23  28
ENDBRANCH  20  22
ENDBRANCH  10  20
ENDBRANCH   6   9
TORSDOF 7
ENDMDL
MODEL      136
REMARK 921   NORMALIZED FREE ENERGY PREDICTED BY IDOCK:   -4.98 KCAL/MOL
REMARK 922        TOTAL FREE ENERGY PREDICTED BY IDOCK:   -9.10 KCAL/MOL
REMARK 923 INTER-LIGAND FREE ENERGY PREDICTED BY IDOCK:   -7.38 KCAL/MOL
REMARK 924 INTRA-LIGAND FREE ENERGY PREDICTED BY IDOCK:   -1.72 KCAL/MOL
REMARK 927      BINDING AFFINITY PREDICTED BY RF-SCORE:    0.00 PKD
ROOT
HETATM    1  O   UNL     1      -5.140  10.238  69.257  1.00  0.00    -0.039 OA 
HETATM    2  H   UNL     1      -4.667  10.198  70.080  1.00  0.00     0.000 HD 
HETATM    3  C   UNL     1      -5.924  11.302  68.929  1.00  0.00    -0.044 A  
HETATM    4  C   UNL     1      -6.615  11.361  67.726  1.00  0.00    -0.069 A  
HETATM    5  C   UNL     1      -7.363  12.504  67.403  1.00  0.00    -0.147 A  
HETATM    6  C   UNL     1      -7.446  13.596  68.284  1.00  0.00    -0.124 A  
HETATM    7  C   UNL     1      -6.783  13.473  69.521  1.00  0.00    -0.011 A  
HETATM    8  C   UNL     1      -6.014  12.342  69.834  1.00  0.00    -0.146 A  
ENDROOT
BRANCH   6   9
HETATM    9  C   UNL     1      -8.139  14.867  67.910  1.00  0.00    -0.142 A  
HETATM   10  C   UNL     1      -9.484  15.269  67.916  1.00  0.00    -0.197 A  
HETATM   11  C   UNL     1     -10.673  18.847  67.043  1.00  0.00    -0.477 A  
HETATM   12  C   UNL     1      -9.641  16.668  67.518  1.00  0.00    -0.242 A  
HETATM   13  O   UNL     1      -9.397  20.639  66.212  1.00  0.00    -0.609 OA 
HETATM   14  C   UNL     1      -8.426  17.229  67.131  1.00  0.00    -0.205 A  
HETATM   15  H   UNL     1     -10.180  21.176  66.179  1.00  0.00     0.000 HD 
HETATM   16  C   UNL     1     -10.777  17.527  67.493  1.00  0.00    -0.280 A  
HETATM   17  S   UNL     1      -7.146  16.116  67.261  1.00  0.00    -0.211 SA 
HETATM   18  C   UNL     1      -8.305  18.563  66.694  1.00  0.00    -0.285 A  
HETATM   19  C   UNL     1      -9.449  19.347  66.646  1.00  0.00    -0.350 A  
BRANCH  10  20
HETATM   20  C   UNL     1     -10.567  14.420  68.417  1.00  0.00    -0.247 C  
HETATM   21  O   UNL     1     -11.390  14.875  69.212  1.00  0.00    -0.264 OA 
BRANCH  20  22
HETATM   22  C   UNL     1     -10.736  12.993  68.004  1.00  0.00    -0.248 A  
HETATM   23  C   UNL     1     -10.853  10.196  67.524  1.00  0.00    -0.290 A  
HETATM   24  C   UNL     1     -10.733  11.094  66.458  1.00  0.00    -0.314 A  
HETATM   25  C   UNL     1     -10.884  12.084  69.055  1.00  0.00    -0.223 A  
HETATM   26  C   UNL     1     -10.673  12.489  66.694  1.00  0.00    -0.261 A  
HETATM   27  C   UNL     1     -10.913  10.708  68.820  1.00  0.00    -0.292 A  
BRANCH  23  28
HETATM   28  O   UNL     1     -10.909   8.839  67.232  1.00  0.00    -0.214 OA 
BRANCH  28  29
HETATM   29  C   UNL     1      -9.621   8.216  67.364  1.00  0.00    -0.160 C  
BRANCH  29  30
HETATM   30  C   UNL     1      -8.912   8.324  68.727  1.00  0.00    -0.144 C  
BRANCH  30  31
HETATM   31  N   UNL     1      -9.276   7.176  69.605  1.00  0.00    -0.147 NA 
HETATM   32  C   UNL     1      -8.183   6.695  70.470  1.00  0.00    -0.118 C  
HETATM   33  C   UNL     1      -7.727   7.765  71.456  1.00  0.00    -0.087 C  
HETATM   34  C   UNL     1      -8.886   8.131  72.377  1.00  0.00    -0.260 C  
HETATM   35  C   UNL     1     -10.179   8.423  71.606  1.00  0.00    -0.310 C  
HETATM   36  C   UNL     1     -10.448   7.449  70.450  1.00  0.00    -0.221 C  
ENDBRANCH  30  31
ENDBRANCH  29  30
ENDBRANCH  28  29
ENDBRANCH  23  28
ENDBRANCH  20  22
ENDBRANCH  10  20
ENDBRANCH   6   9
TORSDOF 7
ENDMDL
MODEL      137
REMARK 921   NORMALIZED FREE ENERGY PREDICTED BY IDOCK:   -4.98 KCAL/MOL
REMARK 922        TOTAL FREE ENERGY PREDICTED BY IDOCK:   -9.10 KCAL/MOL
REMARK 923 INTER-LIGAND FREE ENERGY PREDICTED BY IDOCK:   -7.11 KCAL/MOL
REMARK 924 INTRA-LIGAND FREE ENERGY PREDICTED BY IDOCK:   -1.99 KCAL/MOL
REMARK 927      BINDING AFFINITY PREDICTED BY RF-SCORE:    0.00 PKD
ROOT
HETATM    1  O   UNL     1      -9.047  18.420  67.433  1.00  0.00    -0.262 OA 
HETATM    2  H   UNL     1      -8.127  18.586  67.602  1.00  0.00     0.000 HD 
HETATM    3  C   UNL     1      -9.645  17.250  67.794  1.00  0.00    -0.262 A  
HETATM    4  C   UNL     1     -10.990  17.008  67.549  1.00  0.00    -0.119 A  
HETATM    5  C   UNL     1     -11.578  15.812  67.992  1.00  0.00    -0.213 A  
HETATM    6  C   UNL     1     -10.827  14.836  68.670  1.00  0.00    -0.257 A  
HETATM    7  C   UNL     1      -9.453  15.091  68.843  1.00  0.00    -0.211 A  
HETATM    8  C   UNL     1      -8.869  16.296  68.424  1.00  0.00    -0.202 A  
ENDROOT
BRANCH   6   9
HETATM    9  C   UNL     1     -11.458  13.612  69.251  1.00  0.00    -0.291 A  
HETATM   10  C   UNL     1     -11.681  12.316  68.760  1.00  0.00    -0.390 A  
HETATM   11  C   UNL     1     -13.183   9.436  70.863  1.00  0.00    -0.092 A  
HETATM   12  C   UNL     1     -12.284  11.443  69.766  1.00  0.00    -0.332 A  
HETATM   13  O   UNL     1     -14.081   9.538  73.034  1.00  0.00    -0.802 OA 
HETATM   14  C   UNL     1     -12.586  12.140  70.934  1.00  0.00    -0.247 A  
HETATM   15  H   UNL     1     -14.288   8.612  72.988  1.00  0.00     0.000 HD 
HETATM   16  C   UNL     1     -12.573  10.047  69.763  1.00  0.00     0.358 A  
HETATM   17  S   UNL     1     -12.140  13.778  70.824  1.00  0.00    -0.261 SA 
HETATM   18  C   UNL     1     -13.182  11.530  72.055  1.00  0.00    -0.443 A  
HETATM   19  C   UNL     1     -13.484  10.177  71.988  1.00  0.00    -0.316 A  
BRANCH  10  20
HETATM   20  C   UNL     1     -11.211  11.871  67.446  1.00  0.00    -0.305 C  
HETATM   21  O   UNL     1     -11.953  11.951  66.466  1.00  0.00    -0.588 OA 
BRANCH  20  22
HETATM   22  C   UNL     1      -9.843  11.311  67.220  1.00  0.00    -0.203 A  
HETATM   23  C   UNL     1      -7.385  10.097  66.477  1.00  0.00    -0.108 A  
HETATM   24  C   UNL     1      -7.772  10.150  67.820  1.00  0.00    -0.090 A  
HETATM   25  C   UNL     1      -9.428  11.276  65.887  1.00  0.00    -0.247 A  
HETATM   26  C   UNL     1      -8.998  10.752  68.194  1.00  0.00    -0.140 A  
HETATM   27  C   UNL     1      -8.233  10.654  65.519  1.00  0.00    -0.141 A  
BRANCH  23  28
HETATM   28  O   UNL     1      -6.171   9.496  66.169  1.00  0.00    -0.065 OA 
BRANCH  28  29
HETATM   29  C   UNL     1      -6.344   8.388  65.269  1.00  0.00    -0.052 C  
BRANCH  29  30
HETATM   30  C   UNL     1      -6.812   7.049  65.865  1.00  0.00    -0.057 C  
BRANCH  30  31
HETATM   31  N   UNL     1      -8.207   6.740  65.440  1.00  0.00    -0.133 NA 
HETATM   32  C   UNL     1      -8.383   5.405  64.839  1.00  0.00    -0.142 C  
HETATM   33  C   UNL     1      -8.059   4.290  65.828  1.00  0.00    -0.101 C  
HETATM   34  C   UNL     1      -9.017   4.368  67.011  1.00  0.00    -0.125 C  
HETATM   35  C   UNL     1      -9.120   5.783  67.591  1.00  0.00    -0.106 C  
HETATM   36  C   UNL     1      -9.185   6.889  66.528  1.00  0.00    -0.163 C  
ENDBRANCH  30  31
ENDBRANCH  29  30
ENDBRANCH  28  29
ENDBRANCH  23  28
ENDBRANCH  20  22
ENDBRANCH  10  20
ENDBRANCH   6   9
TORSDOF 7
ENDMDL
MODEL      138
REMARK 921   NORMALIZED FREE ENERGY PREDICTED BY IDOCK:   -4.97 KCAL/MOL
REMARK 922        TOTAL FREE ENERGY PREDICTED BY IDOCK:   -9.08 KCAL/MOL
REMARK 923 INTER-LIGAND FREE ENERGY PREDICTED BY IDOCK:   -7.04 KCAL/MOL
REMARK 924 INTRA-LIGAND FREE ENERGY PREDICTED BY IDOCK:   -2.04 KCAL/MOL
REMARK 927      BINDING AFFINITY PREDICTED BY RF-SCORE:    0.00 PKD
ROOT
HETATM    1  O   UNL     1      -6.166   9.034  64.955  1.00  0.00    -0.063 OA 
HETATM    2  H   UNL     1      -5.374   9.535  64.801  1.00  0.00     0.000 HD 
HETATM    3  C   UNL     1      -7.091   9.416  65.879  1.00  0.00    -0.091 A  
HETATM    4  C   UNL     1      -8.249   8.684  66.104  1.00  0.00    -0.121 A  
HETATM    5  C   UNL     1      -9.203   9.148  67.024  1.00  0.00    -0.167 A  
HETATM    6  C   UNL     1      -9.005  10.339  67.744  1.00  0.00    -0.135 A  
HETATM    7  C   UNL     1      -7.789  11.019  67.535  1.00  0.00    -0.116 A  
HETATM    8  C   UNL     1      -6.847  10.571  66.597  1.00  0.00    -0.108 A  
ENDROOT
BRANCH   6   9
HETATM    9  C   UNL     1     -10.058  10.910  68.639  1.00  0.00    -0.191 A  
HETATM   10  C   UNL     1     -10.842  10.370  69.671  1.00  0.00    -0.320 A  
HETATM   11  C   UNL     1     -13.288  12.445  71.836  1.00  0.00    -0.450 A  
HETATM   12  C   UNL     1     -11.694  11.380  70.299  1.00  0.00    -0.397 A  
HETATM   13  O   UNL     1     -13.915  14.695  71.567  1.00  0.00    -0.395 OA 
HETATM   14  C   UNL     1     -11.593  12.609  69.651  1.00  0.00    -0.251 A  
HETATM   15  H   UNL     1     -14.498  14.617  72.313  1.00  0.00     0.000 HD 
HETATM   16  C   UNL     1     -12.548  11.327  71.438  1.00  0.00    -0.456 A  
HETATM   17  S   UNL     1     -10.501  12.548  68.348  1.00  0.00    -0.238 SA 
HETATM   18  C   UNL     1     -12.319  13.746  70.055  1.00  0.00    -0.364 A  
HETATM   19  C   UNL     1     -13.172  13.633  71.144  1.00  0.00    -0.184 A  
BRANCH  10  20
HETATM   20  C   UNL     1     -10.693   8.994  70.148  1.00  0.00    -0.233 C  
HETATM   21  O   UNL     1     -11.211   8.065  69.527  1.00  0.00    -0.041 OA 
BRANCH  20  22
HETATM   22  C   UNL     1      -9.922   8.642  71.382  1.00  0.00    -0.324 A  
HETATM   23  C   UNL     1      -8.216   7.806  73.492  1.00  0.00    -0.183 A  
HETATM   24  C   UNL     1      -9.604   7.797  73.658  1.00  0.00    -0.280 A  
HETATM   25  C   UNL     1      -8.532   8.672  71.243  1.00  0.00    -0.226 A  
HETATM   26  C   UNL     1     -10.458   8.212  72.607  1.00  0.00    -0.401 A  
HETATM   27  C   UNL     1      -7.695   8.234  72.270  1.00  0.00    -0.168 A  
BRANCH  23  28
HETATM   28  O   UNL     1      -7.427   7.390  74.558  1.00  0.00    -0.117 OA 
BRANCH  28  29
HETATM   29  C   UNL     1      -7.036   6.013  74.421  1.00  0.00    -0.087 C  
BRANCH  29  30
HETATM   30  C   UNL     1      -8.154   4.954  74.382  1.00  0.00    -0.095 C  
BRANCH  30  31
HETATM   31  N   UNL     1      -7.815   3.863  73.425  1.00  0.00    -0.082 NA 
HETATM   32  C   UNL     1      -8.877   2.858  73.240  1.00  0.00    -0.079 C  
HETATM   33  C   UNL     1     -10.141   3.471  72.646  1.00  0.00    -0.234 C  
HETATM   34  C   UNL     1      -9.828   4.037  71.265  1.00  0.00    -0.242 C  
HETATM   35  C   UNL     1      -8.576   4.923  71.264  1.00  0.00    -0.132 C  
HETATM   36  C   UNL     1      -7.417   4.364  72.101  1.00  0.00    -0.072 C  
ENDBRANCH  30  31
ENDBRANCH  29  30
ENDBRANCH  28  29
ENDBRANCH  23  28
ENDBRANCH  20  22
ENDBRANCH  10  20
ENDBRANCH   6   9
TORSDOF 7
ENDMDL
MODEL      139
REMARK 921   NORMALIZED FREE ENERGY PREDICTED BY IDOCK:   -4.94 KCAL/MOL
REMARK 922        TOTAL FREE ENERGY PREDICTED BY IDOCK:   -9.05 KCAL/MOL
REMARK 923 INTER-LIGAND FREE ENERGY PREDICTED BY IDOCK:   -7.17 KCAL/MOL
REMARK 924 INTRA-LIGAND FREE ENERGY PREDICTED BY IDOCK:   -1.87 KCAL/MOL
REMARK 927      BINDING AFFINITY PREDICTED BY RF-SCORE:    0.00 PKD
ROOT
HETATM    1  O   UNL     1     -10.551   7.078  74.378  1.00  0.00    -0.519 OA 
HETATM    2  H   UNL     1     -11.326   6.701  74.777  1.00  0.00     0.000 HD 
HETATM    3  C   UNL     1     -10.602   7.730  73.183  1.00  0.00    -0.352 A  
HETATM    4  C   UNL     1      -9.469   8.282  72.600  1.00  0.00    -0.354 A  
HETATM    5  C   UNL     1      -9.579   8.998  71.397  1.00  0.00    -0.356 A  
HETATM    6  C   UNL     1     -10.818   9.156  70.752  1.00  0.00    -0.331 A  
HETATM    7  C   UNL     1     -11.933   8.529  71.342  1.00  0.00    -0.345 A  
HETATM    8  C   UNL     1     -11.829   7.835  72.557  1.00  0.00    -0.354 A  
ENDROOT
BRANCH   6   9
HETATM    9  C   UNL     1     -10.975  10.012  69.536  1.00  0.00    -0.253 A  
HETATM   10  C   UNL     1     -10.701   9.811  68.174  1.00  0.00    -0.280 A  
HETATM   11  C   UNL     1     -11.562  12.363  65.396  1.00  0.00    -0.426 A  
HETATM   12  C   UNL     1     -11.109  10.953  67.357  1.00  0.00    -0.373 A  
HETATM   13  O   UNL     1     -12.391  14.550  65.640  1.00  0.00    -0.340 OA 
HETATM   14  C   UNL     1     -11.575  12.004  68.143  1.00  0.00    -0.340 A  
HETATM   15  H   UNL     1     -12.370  14.659  64.696  1.00  0.00     0.000 HD 
HETATM   16  C   UNL     1     -11.139  11.149  65.946  1.00  0.00    -0.105 A  
HETATM   17  S   UNL     1     -11.539  11.617  69.799  1.00  0.00    -0.298 SA 
HETATM   18  C   UNL     1     -12.022  13.224  67.599  1.00  0.00    -0.366 A  
HETATM   19  C   UNL     1     -11.991  13.383  66.221  1.00  0.00    -0.411 A  
BRANCH  10  20
HETATM   20  C   UNL     1     -10.212   8.538  67.640  1.00  0.00    -0.236 C  
HETATM   21  O   UNL     1     -10.877   7.922  66.806  1.00  0.00    -0.234 OA 
BRANCH  20  22
HETATM   22  C   UNL     1      -8.912   7.928  68.059  1.00  0.00    -0.127 A  
HETATM   23  C   UNL     1      -6.613   6.697  69.184  1.00  0.00    -0.041 A  
HETATM   24  C   UNL     1      -6.483   7.814  68.352  1.00  0.00    -0.053 A  
HETATM   25  C   UNL     1      -9.021   6.794  68.869  1.00  0.00    -0.131 A  
HETATM   26  C   UNL     1      -7.628   8.431  67.791  1.00  0.00    -0.102 A  
HETATM   27  C   UNL     1      -7.893   6.207  69.444  1.00  0.00    -0.100 A  
BRANCH  23  28
HETATM   28  O   UNL     1      -5.455   6.131  69.704  1.00  0.00    -0.012 OA 
BRANCH  28  29
HETATM   29  C   UNL     1      -5.498   4.695  69.648  1.00  0.00    -0.008 C  
BRANCH  29  30
HETATM   30  C   UNL     1      -5.485   4.034  68.258  1.00  0.00    -0.013 C  
BRANCH  30  31
HETATM   31  N   UNL     1      -5.845   2.591  68.355  1.00  0.00    -0.023 NA 
HETATM   32  C   UNL     1      -7.170   2.328  68.947  1.00  0.00    -0.044 C  
HETATM   33  C   UNL     1      -8.295   2.918  68.103  1.00  0.00    -0.095 C  
HETATM   34  C   UNL     1      -8.292   2.264  66.726  1.00  0.00    -0.091 C  
HETATM   35  C   UNL     1      -6.899   2.247  66.087  1.00  0.00    -0.043 C  
HETATM   36  C   UNL     1      -5.769   1.892  67.064  1.00  0.00    -0.018 C  
ENDBRANCH  30  31
ENDBRANCH  29  30
ENDBRANCH  28  29
ENDBRANCH  23  28
ENDBRANCH  20  22
ENDBRANCH  10  20
ENDBRANCH   6   9
TORSDOF 7
ENDMDL
MODEL      140
REMARK 921   NORMALIZED FREE ENERGY PREDICTED BY IDOCK:   -4.91 KCAL/MOL
REMARK 922        TOTAL FREE ENERGY PREDICTED BY IDOCK:   -8.99 KCAL/MOL
REMARK 923 INTER-LIGAND FREE ENERGY PREDICTED BY IDOCK:   -7.71 KCAL/MOL
REMARK 924 INTRA-LIGAND FREE ENERGY PREDICTED BY IDOCK:   -1.28 KCAL/MOL
REMARK 927      BINDING AFFINITY PREDICTED BY RF-SCORE:    0.00 PKD
ROOT
HETATM    1  O   UNL     1      -5.125  14.474  71.489  1.00  0.00    -0.128 OA 
HETATM    2  H   UNL     1      -4.967  15.379  71.731  1.00  0.00     0.000 HD 
HETATM    3  C   UNL     1      -6.021  14.133  70.521  1.00  0.00    -0.182 A  
HETATM    4  C   UNL     1      -6.251  12.810  70.168  1.00  0.00    -0.026 A  
HETATM    5  C   UNL     1      -7.140  12.509  69.123  1.00  0.00     0.020 A  
HETATM    6  C   UNL     1      -7.824  13.524  68.430  1.00  0.00    -0.143 A  
HETATM    7  C   UNL     1      -7.612  14.848  68.861  1.00  0.00    -0.144 A  
HETATM    8  C   UNL     1      -6.704  15.152  69.887  1.00  0.00    -0.165 A  
ENDROOT
BRANCH   6   9
HETATM    9  C   UNL     1      -8.682  13.233  67.241  1.00  0.00    -0.214 A  
HETATM   10  C   UNL     1      -8.904  12.081  66.472  1.00  0.00    -0.172 A  
HETATM   11  C   UNL     1     -11.482  11.868  63.593  1.00  0.00    -0.551 A  
HETATM   12  C   UNL     1      -9.914  12.297  65.436  1.00  0.00    -0.264 A  
HETATM   13  O   UNL     1     -12.764  13.605  62.661  1.00  0.00    -0.511 OA 
HETATM   14  C   UNL     1     -10.333  13.625  65.401  1.00  0.00    -0.332 A  
HETATM   15  H   UNL     1     -13.140  12.990  62.042  1.00  0.00     0.000 HD 
HETATM   16  C   UNL     1     -10.540  11.406  64.517  1.00  0.00    -0.390 A  
HETATM   17  S   UNL     1      -9.551  14.566  66.583  1.00  0.00    -0.288 SA 
HETATM   18  C   UNL     1     -11.295  14.098  64.487  1.00  0.00    -0.355 A  
HETATM   19  C   UNL     1     -11.844  13.200  63.582  1.00  0.00    -0.488 A  
BRANCH  10  20
HETATM   20  C   UNL     1      -8.303  10.783  66.788  1.00  0.00    -0.136 C  
HETATM   21  O   UNL     1      -7.123  10.566  66.508  1.00  0.00    -0.105 OA 
BRANCH  20  22
HETATM   22  C   UNL     1      -9.060   9.677  67.452  1.00  0.00    -0.144 A  
HETATM   23  C   UNL     1     -10.492   7.407  68.378  1.00  0.00    -0.185 A  
HETATM   24  C   UNL     1     -10.816   8.686  68.841  1.00  0.00    -0.024 A  
HETATM   25  C   UNL     1      -8.731   8.390  67.021  1.00  0.00    -0.132 A  
HETATM   26  C   UNL     1     -10.105   9.821  68.380  1.00  0.00    -0.189 A  
HETATM   27  C   UNL     1      -9.454   7.277  67.455  1.00  0.00    -0.151 A  
BRANCH  23  28
HETATM   28  O   UNL     1     -11.223   6.330  68.866  1.00  0.00    -0.370 OA 
BRANCH  28  29
HETATM   29  C   UNL     1     -10.363   5.262  69.299  1.00  0.00    -0.215 C  
BRANCH  29  30
HETATM   30  C   UNL     1      -9.775   5.349  70.719  1.00  0.00    -0.180 C  
BRANCH  30  31
HETATM   31  N   UNL     1     -10.859   5.321  71.742  1.00  0.00    -0.176 NA 
HETATM   32  C   UNL     1     -10.465   4.737  73.037  1.00  0.00    -0.202 C  
HETATM   33  C   UNL     1      -9.361   5.546  73.711  1.00  0.00    -0.137 C  
HETATM   34  C   UNL     1      -9.870   6.954  74.001  1.00  0.00    -0.354 C  
HETATM   35  C   UNL     1     -10.539   7.599  72.782  1.00  0.00    -0.381 C  
HETATM   36  C   UNL     1     -11.446   6.646  71.992  1.00  0.00    -0.291 C  
ENDBRANCH  30  31
ENDBRANCH  29  30
ENDBRANCH  28  29
ENDBRANCH  23  28
ENDBRANCH  20  22
ENDBRANCH  10  20
ENDBRANCH   6   9
TORSDOF 7
ENDMDL
MODEL      141
REMARK 921   NORMALIZED FREE ENERGY PREDICTED BY IDOCK:   -4.90 KCAL/MOL
REMARK 922        TOTAL FREE ENERGY PREDICTED BY IDOCK:   -8.98 KCAL/MOL
REMARK 923 INTER-LIGAND FREE ENERGY PREDICTED BY IDOCK:   -7.32 KCAL/MOL
REMARK 924 INTRA-LIGAND FREE ENERGY PREDICTED BY IDOCK:   -1.66 KCAL/MOL
REMARK 927      BINDING AFFINITY PREDICTED BY RF-SCORE:    0.00 PKD
ROOT
HETATM    1  O   UNL     1     -12.599  10.423  69.251  1.00  0.00    -0.686 OA 
HETATM    2  H   UNL     1     -12.904  10.276  70.139  1.00  0.00     0.000 HD 
HETATM    3  C   UNL     1     -12.000  11.589  68.880  1.00  0.00    -0.299 A  
HETATM    4  C   UNL     1     -11.554  11.804  67.583  1.00  0.00    -0.364 A  
HETATM    5  C   UNL     1     -10.888  12.997  67.261  1.00  0.00    -0.270 A  
HETATM    6  C   UNL     1     -10.676  13.998  68.224  1.00  0.00    -0.262 A  
HETATM    7  C   UNL     1     -11.199  13.770  69.512  1.00  0.00    -0.221 A  
HETATM    8  C   UNL     1     -11.841  12.567  69.842  1.00  0.00    -0.373 A  
ENDROOT
BRANCH   6   9
HETATM    9  C   UNL     1      -9.869  15.223  67.932  1.00  0.00    -0.216 A  
HETATM   10  C   UNL     1      -8.547  15.597  68.219  1.00  0.00    -0.158 A  
HETATM   11  C   UNL     1      -6.908  18.872  66.968  1.00  0.00    -0.209 A  
HETATM   12  C   UNL     1      -8.206  16.896  67.641  1.00  0.00    -0.196 A  
HETATM   13  O   UNL     1      -7.924  20.661  65.830  1.00  0.00    -0.497 OA 
HETATM   14  C   UNL     1      -9.309  17.492  67.034  1.00  0.00    -0.259 A  
HETATM   15  H   UNL     1      -7.094  21.124  65.826  1.00  0.00     0.000 HD 
HETATM   16  C   UNL     1      -6.975  17.611  67.569  1.00  0.00    -0.183 A  
HETATM   17  S   UNL     1     -10.695  16.511  67.142  1.00  0.00    -0.155 SA 
HETATM   18  C   UNL     1      -9.249  18.752  66.408  1.00  0.00    -0.312 A  
HETATM   19  C   UNL     1      -8.037  19.429  66.402  1.00  0.00    -0.318 A  
BRANCH  10  20
HETATM   20  C   UNL     1      -7.594  14.706  68.884  1.00  0.00    -0.139 C  
HETATM   21  O   UNL     1      -7.004  15.081  69.899  1.00  0.00    -0.183 OA 
BRANCH  20  22
HETATM   22  C   UNL     1      -7.289  13.328  68.389  1.00  0.00    -0.112 A  
HETATM   23  C   UNL     1      -6.385  10.744  67.636  1.00  0.00    -0.056 A  
HETATM   24  C   UNL     1      -7.096  11.538  66.730  1.00  0.00    -0.112 A  
HETATM   25  C   UNL     1      -6.603  12.511  69.290  1.00  0.00    -0.089 A  
HETATM   26  C   UNL     1      -7.546  12.828  67.101  1.00  0.00    -0.050 A  
HETATM   27  C   UNL     1      -6.135  11.252  68.910  1.00  0.00    -0.046 A  
BRANCH  23  28
HETATM   28  O   UNL     1      -5.970   9.485  67.217  1.00  0.00    -0.048 OA 
BRANCH  28  29
HETATM   29  C   UNL     1      -6.368   8.462  68.144  1.00  0.00    -0.056 C  
BRANCH  29  30
HETATM   30  C   UNL     1      -7.872   8.156  68.269  1.00  0.00    -0.122 C  
BRANCH  30  31
HETATM   31  N   UNL     1      -8.166   6.763  67.830  1.00  0.00    -0.119 NA 
HETATM   32  C   UNL     1      -8.709   5.889  68.886  1.00  0.00    -0.116 C  
HETATM   33  C   UNL     1     -10.054   6.390  69.401  1.00  0.00    -0.205 C  
HETATM   34  C   UNL     1     -11.067   6.383  68.262  1.00  0.00    -0.359 C  
HETATM   35  C   UNL     1     -10.531   7.056  66.994  1.00  0.00    -0.386 C  
HETATM   36  C   UNL     1      -9.071   6.705  66.672  1.00  0.00    -0.145 C  
ENDBRANCH  30  31
ENDBRANCH  29  30
ENDBRANCH  28  29
ENDBRANCH  23  28
ENDBRANCH  20  22
ENDBRANCH  10  20
ENDBRANCH   6   9
TORSDOF 7
ENDMDL
MODEL      142
REMARK 921   NORMALIZED FREE ENERGY PREDICTED BY IDOCK:   -4.86 KCAL/MOL
REMARK 922        TOTAL FREE ENERGY PREDICTED BY IDOCK:   -8.93 KCAL/MOL
REMARK 923 INTER-LIGAND FREE ENERGY PREDICTED BY IDOCK:   -7.78 KCAL/MOL
REMARK 924 INTRA-LIGAND FREE ENERGY PREDICTED BY IDOCK:   -1.15 KCAL/MOL
REMARK 927      BINDING AFFINITY PREDICTED BY RF-SCORE:    0.00 PKD
ROOT
HETATM    1  O   UNL     1     -12.953  12.108  71.737  1.00  0.00    -0.397 OA 
HETATM    2  H   UNL     1     -13.278  12.981  71.554  1.00  0.00     0.000 HD 
HETATM    3  C   UNL     1     -12.380  11.338  70.771  1.00  0.00    -0.398 A  
HETATM    4  C   UNL     1     -11.904  10.060  71.037  1.00  0.00    -0.476 A  
HETATM    5  C   UNL     1     -11.266   9.326  70.025  1.00  0.00    -0.190 A  
HETATM    6  C   UNL     1     -11.110   9.849  68.730  1.00  0.00    -0.179 A  
HETATM    7  C   UNL     1     -11.662  11.122  68.482  1.00  0.00    -0.368 A  
HETATM    8  C   UNL     1     -12.277  11.867  69.499  1.00  0.00    -0.197 A  
ENDROOT
BRANCH   6   9
HETATM    9  C   UNL     1     -10.332   9.133  67.672  1.00  0.00    -0.255 A  
HETATM   10  C   UNL     1      -9.836   9.515  66.416  1.00  0.00    -0.320 A  
HETATM   11  C   UNL     1      -7.640   7.245  64.180  1.00  0.00    -0.113 A  
HETATM   12  C   UNL     1      -9.061   8.447  65.784  1.00  0.00    -0.195 A  
HETATM   13  O   UNL     1      -7.082   4.984  64.510  1.00  0.00    -0.052 OA 
HETATM   14  C   UNL     1      -9.093   7.277  66.539  1.00  0.00    -0.155 A  
HETATM   15  H   UNL     1      -6.596   4.989  63.694  1.00  0.00     0.000 HD 
HETATM   16  C   UNL     1      -8.284   8.416  64.590  1.00  0.00    -0.157 A  
HETATM   17  S   UNL     1     -10.007   7.467  67.961  1.00  0.00    -0.179 SA 
HETATM   18  C   UNL     1      -8.433   6.096  66.145  1.00  0.00    -0.137 A  
HETATM   19  C   UNL     1      -7.723   6.103  64.952  1.00  0.00    -0.101 A  
BRANCH  10  20
HETATM   20  C   UNL     1      -9.957  10.877  65.892  1.00  0.00    -0.243 C  
HETATM   21  O   UNL     1     -10.686  11.104  64.926  1.00  0.00    -0.302 OA 
BRANCH  20  22
HETATM   22  C   UNL     1      -9.226  12.041  66.482  1.00  0.00    -0.216 A  
HETATM   23  C   UNL     1      -7.933  14.438  67.288  1.00  0.00    -0.180 A  
HETATM   24  C   UNL     1      -7.362  13.194  67.574  1.00  0.00    -0.153 A  
HETATM   25  C   UNL     1      -9.797  13.291  66.230  1.00  0.00    -0.288 A  
HETATM   26  C   UNL     1      -8.003  11.997  67.171  1.00  0.00    -0.175 A  
HETATM   27  C   UNL     1      -9.147  14.469  66.602  1.00  0.00    -0.277 A  
BRANCH  23  28
HETATM   28  O   UNL     1      -7.261  15.579  67.710  1.00  0.00    -0.128 OA 
BRANCH  28  29
HETATM   29  C   UNL     1      -7.627  16.727  66.926  1.00  0.00    -0.217 C  
BRANCH  29  30
HETATM   30  C   UNL     1      -7.600  18.102  67.618  1.00  0.00    -0.219 C  
BRANCH  30  31
HETATM   31  N   UNL     1      -6.221  18.667  67.617  1.00  0.00    -0.190 NA 
HETATM   32  C   UNL     1      -5.614  18.800  66.280  1.00  0.00    -0.154 C  
HETATM   33  C   UNL     1      -6.394  19.768  65.396  1.00  0.00    -0.283 C  
HETATM   34  C   UNL     1      -6.376  21.156  66.026  1.00  0.00    -0.227 C  
HETATM   35  C   UNL     1      -6.756  21.132  67.511  1.00  0.00    -0.402 C  
HETATM   36  C   UNL     1      -6.133  19.969  68.295  1.00  0.00    -0.256 C  
ENDBRANCH  30  31
ENDBRANCH  29  30
ENDBRANCH  28  29
ENDBRANCH  23  28
ENDBRANCH  20  22
ENDBRANCH  10  20
ENDBRANCH   6   9
TORSDOF 7
ENDMDL
MODEL      143
REMARK 921   NORMALIZED FREE ENERGY PREDICTED BY IDOCK:   -4.86 KCAL/MOL
REMARK 922        TOTAL FREE ENERGY PREDICTED BY IDOCK:   -8.93 KCAL/MOL
REMARK 923 INTER-LIGAND FREE ENERGY PREDICTED BY IDOCK:   -7.01 KCAL/MOL
REMARK 924 INTRA-LIGAND FREE ENERGY PREDICTED BY IDOCK:   -1.91 KCAL/MOL
REMARK 927      BINDING AFFINITY PREDICTED BY RF-SCORE:    0.00 PKD
ROOT
HETATM    1  O   UNL     1      -8.461  15.390  66.755  1.00  0.00    -0.238 OA 
HETATM    2  H   UNL     1      -7.750  15.776  67.252  1.00  0.00     0.000 HD 
HETATM    3  C   UNL     1      -8.683  14.046  66.742  1.00  0.00    -0.110 A  
HETATM    4  C   UNL     1      -9.724  13.482  66.015  1.00  0.00    -0.233 A  
HETATM    5  C   UNL     1      -9.952  12.098  66.079  1.00  0.00    -0.257 A  
HETATM    6  C   UNL     1      -9.133  11.257  66.853  1.00  0.00    -0.172 A  
HETATM    7  C   UNL     1      -8.050  11.858  67.524  1.00  0.00    -0.156 A  
HETATM    8  C   UNL     1      -7.837  13.244  67.483  1.00  0.00    -0.173 A  
ENDROOT
BRANCH   6   9
HETATM    9  C   UNL     1      -9.429   9.802  67.027  1.00  0.00    -0.157 A  
HETATM   10  C   UNL     1     -10.074   9.062  68.030  1.00  0.00    -0.234 A  
HETATM   11  C   UNL     1     -10.765   5.261  67.809  1.00  0.00    -0.023 A  
HETATM   12  C   UNL     1     -10.173   7.644  67.690  1.00  0.00    -0.277 A  
HETATM   13  O   UNL     1     -10.029   3.745  66.169  1.00  0.00    -0.395 OA 
HETATM   14  C   UNL     1      -9.510   7.356  66.499  1.00  0.00    -0.172 A  
HETATM   15  H   UNL     1     -10.457   3.038  66.637  1.00  0.00     0.000 HD 
HETATM   16  C   UNL     1     -10.836   6.557  68.331  1.00  0.00    -0.357 A  
HETATM   17  S   UNL     1      -8.813   8.747  65.813  1.00  0.00    -0.202 SA 
HETATM   18  C   UNL     1      -9.448   6.058  65.954  1.00  0.00    -0.004 A  
HETATM   19  C   UNL     1     -10.073   5.025  66.638  1.00  0.00    -0.245 A  
BRANCH  10  20
HETATM   20  C   UNL     1     -10.706   9.684  69.196  1.00  0.00    -0.217 C  
HETATM   21  O   UNL     1     -11.392  10.698  69.059  1.00  0.00    -0.247 OA 
BRANCH  20  22
HETATM   22  C   UNL     1     -10.563   9.141  70.583  1.00  0.00    -0.305 A  
HETATM   23  C   UNL     1      -9.980   7.941  73.090  1.00  0.00    -0.290 A  
HETATM   24  C   UNL     1     -11.303   8.056  72.649  1.00  0.00    -0.469 A  
HETATM   25  C   UNL     1      -9.250   9.045  71.051  1.00  0.00    -0.331 A  
HETATM   26  C   UNL     1     -11.597   8.652  71.399  1.00  0.00    -0.354 A  
HETATM   27  C   UNL     1      -8.962   8.429  72.271  1.00  0.00    -0.303 A  
BRANCH  23  28
HETATM   28  O   UNL     1      -9.752   7.349  74.326  1.00  0.00    -0.166 OA 
BRANCH  28  29
HETATM   29  C   UNL     1      -8.518   6.610  74.338  1.00  0.00    -0.146 C  
BRANCH  29  30
HETATM   30  C   UNL     1      -8.571   5.125  73.934  1.00  0.00    -0.113 C  
BRANCH  30  31
HETATM   31  N   UNL     1      -8.202   4.954  72.501  1.00  0.00    -0.114 NA 
HETATM   32  C   UNL     1      -7.185   3.917  72.249  1.00  0.00    -0.052 C  
HETATM   33  C   UNL     1      -7.674   2.531  72.657  1.00  0.00    -0.053 C  
HETATM   34  C   UNL     1      -8.895   2.159  71.823  1.00  0.00    -0.115 C  
HETATM   35  C   UNL     1      -9.949   3.272  71.796  1.00  0.00    -0.192 C  
HETATM   36  C   UNL     1      -9.362   4.682  71.638  1.00  0.00    -0.143 C  
ENDBRANCH  30  31
ENDBRANCH  29  30
ENDBRANCH  28  29
ENDBRANCH  23  28
ENDBRANCH  20  22
ENDBRANCH  10  20
ENDBRANCH   6   9
TORSDOF 7
ENDMDL
MODEL      144
REMARK 921   NORMALIZED FREE ENERGY PREDICTED BY IDOCK:   -4.83 KCAL/MOL
REMARK 922        TOTAL FREE ENERGY PREDICTED BY IDOCK:   -8.88 KCAL/MOL
REMARK 923 INTER-LIGAND FREE ENERGY PREDICTED BY IDOCK:   -6.67 KCAL/MOL
REMARK 924 INTRA-LIGAND FREE ENERGY PREDICTED BY IDOCK:   -2.21 KCAL/MOL
REMARK 927      BINDING AFFINITY PREDICTED BY RF-SCORE:    0.00 PKD
ROOT
HETATM    1  O   UNL     1     -13.367  11.479  72.157  1.00  0.00    -0.581 OA 
HETATM    2  H   UNL     1     -13.731  12.318  71.898  1.00  0.00     0.000 HD 
HETATM    3  C   UNL     1     -12.541  10.771  71.338  1.00  0.00    -0.410 A  
HETATM    4  C   UNL     1     -12.008   9.546  71.715  1.00  0.00    -0.443 A  
HETATM    5  C   UNL     1     -11.112   8.880  70.863  1.00  0.00    -0.328 A  
HETATM    6  C   UNL     1     -10.751   9.419  69.616  1.00  0.00    -0.251 A  
HETATM    7  C   UNL     1     -11.362  10.632  69.242  1.00  0.00    -0.346 A  
HETATM    8  C   UNL     1     -12.236  11.312  70.103  1.00  0.00    -0.410 A  
ENDROOT
BRANCH   6   9
HETATM    9  C   UNL     1      -9.713   8.785  68.748  1.00  0.00    -0.165 A  
HETATM   10  C   UNL     1      -8.309   8.816  68.744  1.00  0.00    -0.124 A  
HETATM   11  C   UNL     1      -6.108   6.733  66.339  1.00  0.00    -0.033 A  
HETATM   12  C   UNL     1      -7.743   7.951  67.710  1.00  0.00    -0.121 A  
HETATM   13  O   UNL     1      -6.795   5.404  64.524  1.00  0.00    -0.046 OA 
HETATM   14  C   UNL     1      -8.738   7.387  66.914  1.00  0.00    -0.126 A  
HETATM   15  H   UNL     1      -5.887   5.199  64.336  1.00  0.00     0.000 HD 
HETATM   16  C   UNL     1      -6.400   7.577  67.414  1.00  0.00    -0.053 A  
HETATM   17  S   UNL     1     -10.292   7.870  67.409  1.00  0.00    -0.293 SA 
HETATM   18  C   UNL     1      -8.456   6.520  65.840  1.00  0.00    -0.147 A  
HETATM   19  C   UNL     1      -7.129   6.220  65.564  1.00  0.00    -0.068 A  
BRANCH  10  20
HETATM   20  C   UNL     1      -7.526   9.515  69.765  1.00  0.00    -0.098 C  
HETATM   21  O   UNL     1      -7.163   8.919  70.780  1.00  0.00    -0.062 OA 
BRANCH  20  22
HETATM   22  C   UNL     1      -7.127  10.952  69.640  1.00  0.00    -0.117 A  
HETATM   23  C   UNL     1      -6.404  13.629  69.032  1.00  0.00    -0.102 A  
HETATM   24  C   UNL     1      -5.776  12.946  70.078  1.00  0.00    -0.137 A  
HETATM   25  C   UNL     1      -7.764  11.658  68.618  1.00  0.00    -0.134 A  
HETATM   26  C   UNL     1      -6.133  11.610  70.383  1.00  0.00    -0.074 A  
HETATM   27  C   UNL     1      -7.389  12.965  68.301  1.00  0.00    -0.118 A  
BRANCH  23  28
HETATM   28  O   UNL     1      -6.014  14.940  68.780  1.00  0.00    -0.082 OA 
BRANCH  28  29
HETATM   29  C   UNL     1      -6.931  15.884  69.359  1.00  0.00    -0.211 C  
BRANCH  29  30
HETATM   30  C   UNL     1      -8.037  16.454  68.452  1.00  0.00    -0.188 C  
BRANCH  30  31
HETATM   31  N   UNL     1      -9.266  16.751  69.241  1.00  0.00    -0.127 NA 
HETATM   32  C   UNL     1     -10.285  17.532  68.516  1.00  0.00    -0.378 C  
HETATM   33  C   UNL     1     -10.817  16.780  67.300  1.00  0.00    -0.137 C  
HETATM   34  C   UNL     1     -11.494  15.493  67.758  1.00  0.00    -0.247 C  
HETATM   35  C   UNL     1     -10.625  14.686  68.730  1.00  0.00    -0.248 C  
HETATM   36  C   UNL     1      -9.907  15.543  69.781  1.00  0.00    -0.262 C  
ENDBRANCH  30  31
ENDBRANCH  29  30
ENDBRANCH  28  29
ENDBRANCH  23  28
ENDBRANCH  20  22
ENDBRANCH  10  20
ENDBRANCH   6   9
TORSDOF 7
ENDMDL
MODEL      145
REMARK 921   NORMALIZED FREE ENERGY PREDICTED BY IDOCK:   -4.75 KCAL/MOL
REMARK 922        TOTAL FREE ENERGY PREDICTED BY IDOCK:   -8.77 KCAL/MOL
REMARK 923 INTER-LIGAND FREE ENERGY PREDICTED BY IDOCK:   -6.76 KCAL/MOL
REMARK 924 INTRA-LIGAND FREE ENERGY PREDICTED BY IDOCK:   -2.01 KCAL/MOL
REMARK 927      BINDING AFFINITY PREDICTED BY RF-SCORE:    0.00 PKD
ROOT
HETATM    1  O   UNL     1     -10.757   7.440  74.142  1.00  0.00    -0.540 OA 
HETATM    2  H   UNL     1     -11.614   7.229  74.494  1.00  0.00     0.000 HD 
HETATM    3  C   UNL     1     -10.594   7.888  72.866  1.00  0.00    -0.368 A  
HETATM    4  C   UNL     1      -9.342   8.196  72.352  1.00  0.00    -0.308 A  
HETATM    5  C   UNL     1      -9.228   8.712  71.051  1.00  0.00    -0.253 A  
HETATM    6  C   UNL     1     -10.359   8.910  70.241  1.00  0.00    -0.235 A  
HETATM    7  C   UNL     1     -11.605   8.526  70.776  1.00  0.00    -0.257 A  
HETATM    8  C   UNL     1     -11.724   8.035  72.084  1.00  0.00    -0.399 A  
ENDROOT
BRANCH   6   9
HETATM    9  C   UNL     1     -10.271   9.565  68.900  1.00  0.00    -0.199 A  
HETATM   10  C   UNL     1     -10.164   9.071  67.591  1.00  0.00    -0.300 A  
HETATM   11  C   UNL     1     -10.216  11.301  64.428  1.00  0.00    -0.377 A  
HETATM   12  C   UNL     1     -10.184  10.143  66.595  1.00  0.00    -0.287 A  
HETATM   13  O   UNL     1     -10.198  13.649  64.307  1.00  0.00    -0.678 OA 
HETATM   14  C   UNL     1     -10.201  11.399  67.197  1.00  0.00    -0.202 A  
HETATM   15  H   UNL     1     -10.193  13.596  63.359  1.00  0.00     0.000 HD 
HETATM   16  C   UNL     1     -10.222  10.116  65.171  1.00  0.00    -0.233 A  
HETATM   17  S   UNL     1     -10.211  11.286  68.894  1.00  0.00    -0.143 SA 
HETATM   18  C   UNL     1     -10.215  12.599  66.459  1.00  0.00    -0.255 A  
HETATM   19  C   UNL     1     -10.207  12.521  65.073  1.00  0.00    -0.279 A  
BRANCH  10  20
HETATM   20  C   UNL     1     -10.190   7.641  67.274  1.00  0.00    -0.272 C  
HETATM   21  O   UNL     1     -11.261   7.081  67.037  1.00  0.00    -0.328 OA 
BRANCH  20  22
HETATM   22  C   UNL     1      -8.954   6.800  67.219  1.00  0.00    -0.117 A  
HETATM   23  C   UNL     1      -6.832   4.913  67.208  1.00  0.00    -0.056 A  
HETATM   24  C   UNL     1      -6.624   6.211  67.687  1.00  0.00    -0.056 A  
HETATM   25  C   UNL     1      -9.137   5.508  66.718  1.00  0.00    -0.118 A  
HETATM   26  C   UNL     1      -7.681   7.153  67.696  1.00  0.00    -0.112 A  
HETATM   27  C   UNL     1      -8.100   4.574  66.738  1.00  0.00    -0.102 A  
BRANCH  23  28
HETATM   28  O   UNL     1      -5.758   4.031  67.222  1.00  0.00    -0.021 OA 
BRANCH  28  29
HETATM   29  C   UNL     1      -5.143   3.928  65.926  1.00  0.00    -0.009 C  
BRANCH  29  30
HETATM   30  C   UNL     1      -6.066   3.950  64.694  1.00  0.00    -0.023 C  
BRANCH  30  31
HETATM   31  N   UNL     1      -5.471   4.773  63.603  1.00  0.00    -0.013 NA 
HETATM   32  C   UNL     1      -6.247   4.782  62.349  1.00  0.00    -0.017 C  
HETATM   33  C   UNL     1      -7.630   5.397  62.544  1.00  0.00    -0.063 C  
HETATM   34  C   UNL     1      -7.481   6.850  62.979  1.00  0.00    -0.082 C  
HETATM   35  C   UNL     1      -6.493   7.018  64.139  1.00  0.00    -0.039 C  
HETATM   36  C   UNL     1      -5.224   6.166  64.004  1.00  0.00    -0.017 C  
ENDBRANCH  30  31
ENDBRANCH  29  30
ENDBRANCH  28  29
ENDBRANCH  23  28
ENDBRANCH  20  22
ENDBRANCH  10  20
ENDBRANCH   6   9
TORSDOF 7
ENDMDL
MODEL      146
REMARK 921   NORMALIZED FREE ENERGY PREDICTED BY IDOCK:   -4.73 KCAL/MOL
REMARK 922        TOTAL FREE ENERGY PREDICTED BY IDOCK:   -8.75 KCAL/MOL
REMARK 923 INTER-LIGAND FREE ENERGY PREDICTED BY IDOCK:   -7.22 KCAL/MOL
REMARK 924 INTRA-LIGAND FREE ENERGY PREDICTED BY IDOCK:   -1.53 KCAL/MOL
REMARK 927      BINDING AFFINITY PREDICTED BY RF-SCORE:    0.00 PKD
ROOT
HETATM    1  O   UNL     1     -11.518   9.874  70.778  1.00  0.00    -0.298 OA 
HETATM    2  H   UNL     1     -12.321   9.697  71.254  1.00  0.00     0.000 HD 
HETATM    3  C   UNL     1     -11.327  11.038  70.097  1.00  0.00    -0.251 A  
HETATM    4  C   UNL     1     -10.153  11.298  69.402  1.00  0.00     0.071 A  
HETATM    5  C   UNL     1      -9.977  12.536  68.764  1.00  0.00    -0.028 A  
HETATM    6  C   UNL     1     -10.977  13.524  68.797  1.00  0.00    -0.291 A  
HETATM    7  C   UNL     1     -12.177  13.199  69.458  1.00  0.00    -0.214 A  
HETATM    8  C   UNL     1     -12.345  11.972  70.118  1.00  0.00    -0.230 A  
ENDROOT
BRANCH   6   9
HETATM    9  C   UNL     1     -10.762  14.889  68.226  1.00  0.00    -0.249 A  
HETATM   10  C   UNL     1     -10.808  15.406  66.922  1.00  0.00    -0.313 A  
HETATM   11  C   UNL     1     -10.390  19.157  66.068  1.00  0.00    -0.538 A  
HETATM   12  C   UNL     1     -10.591  16.852  66.896  1.00  0.00    -0.214 A  
HETATM   13  O   UNL     1      -9.804  20.918  67.513  1.00  0.00    -0.414 OA 
HETATM   14  C   UNL     1     -10.288  17.346  68.162  1.00  0.00    -0.366 A  
HETATM   15  H   UNL     1      -9.834  21.523  66.781  1.00  0.00     0.000 HD 
HETATM   16  C   UNL     1     -10.666  17.806  65.840  1.00  0.00    -0.116 A  
HETATM   17  S   UNL     1     -10.285  16.115  69.336  1.00  0.00    -0.266 SA 
HETATM   18  C   UNL     1     -10.026  18.709  68.408  1.00  0.00    -0.428 A  
HETATM   19  C   UNL     1     -10.069  19.592  67.339  1.00  0.00    -0.410 A  
BRANCH  10  20
HETATM   20  C   UNL     1     -11.189  14.601  65.759  1.00  0.00    -0.336 C  
HETATM   21  O   UNL     1     -11.976  15.053  64.926  1.00  0.00    -0.340 OA 
BRANCH  20  22
HETATM   22  C   UNL     1     -10.659  13.223  65.516  1.00  0.00    -0.295 A  
HETATM   23  C   UNL     1      -9.931  10.489  65.279  1.00  0.00    -0.299 A  
HETATM   24  C   UNL     1      -8.947  11.480  65.355  1.00  0.00     0.012 A  
HETATM   25  C   UNL     1     -11.628  12.224  65.411  1.00  0.00    -0.412 A  
HETATM   26  C   UNL     1      -9.306  12.844  65.475  1.00  0.00     0.250 A  
HETATM   27  C   UNL     1     -11.270  10.877  65.322  1.00  0.00     0.218 A  
BRANCH  23  28
HETATM   28  O   UNL     1      -9.520   9.167  65.160  1.00  0.00    -0.191 OA 
BRANCH  28  29
HETATM   29  C   UNL     1      -9.248   8.580  66.444  1.00  0.00    -0.199 C  
BRANCH  29  30
HETATM   30  C   UNL     1      -8.281   7.383  66.492  1.00  0.00    -0.120 C  
BRANCH  30  31
HETATM   31  N   UNL     1      -8.658   6.442  67.585  1.00  0.00    -0.116 NA 
HETATM   32  C   UNL     1     -10.104   6.178  67.693  1.00  0.00    -0.155 C  
HETATM   33  C   UNL     1     -10.654   5.505  66.439  1.00  0.00    -0.291 C  
HETATM   34  C   UNL     1      -9.974   4.154  66.251  1.00  0.00    -0.185 C  
HETATM   35  C   UNL     1      -8.448   4.244  66.361  1.00  0.00    -0.112 C  
HETATM   36  C   UNL     1      -7.958   5.152  67.498  1.00  0.00    -0.100 C  
ENDBRANCH  30  31
ENDBRANCH  29  30
ENDBRANCH  28  29
ENDBRANCH  23  28
ENDBRANCH  20  22
ENDBRANCH  10  20
ENDBRANCH   6   9
TORSDOF 7
ENDMDL
MODEL      147
REMARK 921   NORMALIZED FREE ENERGY PREDICTED BY IDOCK:   -4.73 KCAL/MOL
REMARK 922        TOTAL FREE ENERGY PREDICTED BY IDOCK:   -8.75 KCAL/MOL
REMARK 923 INTER-LIGAND FREE ENERGY PREDICTED BY IDOCK:   -7.96 KCAL/MOL
REMARK 924 INTRA-LIGAND FREE ENERGY PREDICTED BY IDOCK:   -0.78 KCAL/MOL
REMARK 927      BINDING AFFINITY PREDICTED BY RF-SCORE:    0.00 PKD
ROOT
HETATM    1  O   UNL     1     -10.650  12.627  62.961  1.00  0.00    -0.515 OA 
HETATM    2  H   UNL     1     -11.316  12.703  62.288  1.00  0.00     0.000 HD 
HETATM    3  C   UNL     1     -10.902  12.942  64.262  1.00  0.00    -0.397 A  
HETATM    4  C   UNL     1      -9.928  12.831  65.246  1.00  0.00    -0.202 A  
HETATM    5  C   UNL     1     -10.250  13.109  66.584  1.00  0.00    -0.259 A  
HETATM    6  C   UNL     1     -11.543  13.518  66.954  1.00  0.00    -0.398 A  
HETATM    7  C   UNL     1     -12.485  13.680  65.920  1.00  0.00    -0.502 A  
HETATM    8  C   UNL     1     -12.172  13.378  64.586  1.00  0.00    -0.456 A  
ENDROOT
BRANCH   6   9
HETATM    9  C   UNL     1     -11.936  13.706  68.385  1.00  0.00    -0.356 A  
HETATM   10  C   UNL     1     -12.233  12.814  69.427  1.00  0.00    -0.131 A  
HETATM   11  C   UNL     1     -12.971  13.911  73.064  1.00  0.00    -0.214 A  
HETATM   12  C   UNL     1     -12.497  13.509  70.687  1.00  0.00    -0.405 A  
HETATM   13  O   UNL     1     -13.234  16.094  73.897  1.00  0.00    -0.894 OA 
HETATM   14  C   UNL     1     -12.490  14.892  70.519  1.00  0.00    -0.363 A  
HETATM   15  H   UNL     1     -13.407  15.739  74.761  1.00  0.00     0.000 HD 
HETATM   16  C   UNL     1     -12.717  13.028  72.010  1.00  0.00    -0.167 A  
HETATM   17  S   UNL     1     -12.161  15.331  68.908  1.00  0.00    -0.118 SA 
HETATM   18  C   UNL     1     -12.726  15.791  71.577  1.00  0.00    -0.512 A  
HETATM   19  C   UNL     1     -12.978  15.273  72.839  1.00  0.00    -0.463 A  
BRANCH  10  20
HETATM   20  C   UNL     1     -12.129  11.360  69.286  1.00  0.00    -0.289 C  
HETATM   21  O   UNL     1     -13.138  10.658  69.368  1.00  0.00     0.073 OA 
BRANCH  20  22
HETATM   22  C   UNL     1     -10.831  10.660  69.038  1.00  0.00    -0.277 A  
HETATM   23  C   UNL     1      -8.539   9.019  68.690  1.00  0.00    -0.129 A  
HETATM   24  C   UNL     1      -8.406  10.335  69.147  1.00  0.00    -0.154 A  
HETATM   25  C   UNL     1     -10.943   9.353  68.556  1.00  0.00    -0.076 A  
HETATM   26  C   UNL     1      -9.547  11.155  69.323  1.00  0.00     0.066 A  
HETATM   27  C   UNL     1      -9.818   8.539  68.412  1.00  0.00    -0.189 A  
BRANCH  23  28
HETATM   28  O   UNL     1      -7.384   8.262  68.534  1.00  0.00    -0.089 OA 
BRANCH  28  29
HETATM   29  C   UNL     1      -6.985   7.646  69.770  1.00  0.00    -0.051 C  
BRANCH  29  30
HETATM   30  C   UNL     1      -8.090   7.052  70.662  1.00  0.00    -0.117 C  
BRANCH  30  31
HETATM   31  N   UNL     1      -7.742   5.665  71.081  1.00  0.00    -0.102 NA 
HETATM   32  C   UNL     1      -6.316   5.320  70.936  1.00  0.00    -0.023 C  
HETATM   33  C   UNL     1      -5.429   6.191  71.820  1.00  0.00    -0.026 C  
HETATM   34  C   UNL     1      -5.789   5.960  73.283  1.00  0.00    -0.037 C  
HETATM   35  C   UNL     1      -7.298   6.047  73.537  1.00  0.00    -0.089 C  
HETATM   36  C   UNL     1      -8.152   5.362  72.461  1.00  0.00    -0.103 C  
ENDBRANCH  30  31
ENDBRANCH  29  30
ENDBRANCH  28  29
ENDBRANCH  23  28
ENDBRANCH  20  22
ENDBRANCH  10  20
ENDBRANCH   6   9
TORSDOF 7
ENDMDL
MODEL      148
REMARK 921   NORMALIZED FREE ENERGY PREDICTED BY IDOCK:   -4.71 KCAL/MOL
REMARK 922        TOTAL FREE ENERGY PREDICTED BY IDOCK:   -8.72 KCAL/MOL
REMARK 923 INTER-LIGAND FREE ENERGY PREDICTED BY IDOCK:   -6.66 KCAL/MOL
REMARK 924 INTRA-LIGAND FREE ENERGY PREDICTED BY IDOCK:   -2.06 KCAL/MOL
REMARK 927      BINDING AFFINITY PREDICTED BY RF-SCORE:    0.00 PKD
ROOT
HETATM    1  O   UNL     1     -10.221   3.529  72.359  1.00  0.00    -0.164 OA 
HETATM    2  H   UNL     1      -9.540   2.932  72.071  1.00  0.00     0.000 HD 
HETATM    3  C   UNL     1     -10.358   4.775  71.826  1.00  0.00    -0.160 A  
HETATM    4  C   UNL     1     -11.354   5.647  72.247  1.00  0.00    -0.300 A  
HETATM    5  C   UNL     1     -11.495   6.899  71.627  1.00  0.00    -0.312 A  
HETATM    6  C   UNL     1     -10.633   7.304  70.593  1.00  0.00    -0.240 A  
HETATM    7  C   UNL     1      -9.597   6.418  70.239  1.00  0.00    -0.177 A  
HETATM    8  C   UNL     1      -9.471   5.156  70.838  1.00  0.00    -0.223 A  
ENDROOT
BRANCH   6   9
HETATM    9  C   UNL     1     -10.838   8.581  69.843  1.00  0.00    -0.205 A  
HETATM   10  C   UNL     1     -10.713   8.936  68.491  1.00  0.00    -0.124 A  
HETATM   11  C   UNL     1     -11.632  12.418  67.075  1.00  0.00    -0.434 A  
HETATM   12  C   UNL     1     -11.106  10.323  68.248  1.00  0.00    -0.311 A  
HETATM   13  O   UNL     1     -12.258  14.349  68.263  1.00  0.00    -0.570 OA 
HETATM   14  C   UNL     1     -11.410  10.984  69.436  1.00  0.00    -0.284 A  
HETATM   15  H   UNL     1     -12.319  14.827  67.444  1.00  0.00     0.000 HD 
HETATM   16  C   UNL     1     -11.256  11.072  67.044  1.00  0.00    -0.255 A  
HETATM   17  S   UNL     1     -11.244   9.964  70.786  1.00  0.00    -0.369 SA 
HETATM   18  C   UNL     1     -11.808  12.335  69.477  1.00  0.00    -0.380 A  
HETATM   19  C   UNL     1     -11.898  13.034  68.282  1.00  0.00    -0.343 A  
BRANCH  10  20
HETATM   20  C   UNL     1     -10.380   7.969  67.442  1.00  0.00    -0.284 C  
HETATM   21  O   UNL     1     -11.204   7.120  67.101  1.00  0.00    -0.276 OA 
BRANCH  20  22
HETATM   22  C   UNL     1      -9.059   7.957  66.739  1.00  0.00    -0.189 A  
HETATM   23  C   UNL     1      -6.749   7.881  65.090  1.00  0.00    -0.051 A  
HETATM   24  C   UNL     1      -6.731   7.302  66.362  1.00  0.00    -0.060 A  
HETATM   25  C   UNL     1      -9.052   8.556  65.477  1.00  0.00    -0.150 A  
HETATM   26  C   UNL     1      -7.881   7.336  67.187  1.00  0.00    -0.110 A  
HETATM   27  C   UNL     1      -7.925   8.494  64.656  1.00  0.00    -0.143 A  
BRANCH  23  28
HETATM   28  O   UNL     1      -5.590   7.820  64.326  1.00  0.00    -0.036 OA 
BRANCH  28  29
HETATM   29  C   UNL     1      -5.721   6.884  63.242  1.00  0.00    -0.036 C  
BRANCH  29  30
HETATM   30  C   UNL     1      -5.737   5.385  63.590  1.00  0.00    -0.014 C  
BRANCH  30  31
HETATM   31  N   UNL     1      -6.771   4.668  62.792  1.00  0.00    -0.030 NA 
HETATM   32  C   UNL     1      -6.790   3.206  62.983  1.00  0.00    -0.031 C  
HETATM   33  C   UNL     1      -7.127   2.827  64.422  1.00  0.00    -0.049 C  
HETATM   34  C   UNL     1      -8.524   3.332  64.765  1.00  0.00    -0.098 C  
HETATM   35  C   UNL     1      -8.726   4.803  64.383  1.00  0.00    -0.149 C  
HETATM   36  C   UNL     1      -8.130   5.181  63.020  1.00  0.00    -0.100 C  
ENDBRANCH  30  31
ENDBRANCH  29  30
ENDBRANCH  28  29
ENDBRANCH  23  28
ENDBRANCH  20  22
ENDBRANCH  10  20
ENDBRANCH   6   9
TORSDOF 7
ENDMDL
MODEL      149
REMARK 921   NORMALIZED FREE ENERGY PREDICTED BY IDOCK:   -4.64 KCAL/MOL
REMARK 922        TOTAL FREE ENERGY PREDICTED BY IDOCK:   -8.62 KCAL/MOL
REMARK 923 INTER-LIGAND FREE ENERGY PREDICTED BY IDOCK:   -7.01 KCAL/MOL
REMARK 924 INTRA-LIGAND FREE ENERGY PREDICTED BY IDOCK:   -1.61 KCAL/MOL
REMARK 927      BINDING AFFINITY PREDICTED BY RF-SCORE:    0.00 PKD
ROOT
HETATM    1  O   UNL     1     -13.367  11.479  72.154  1.00  0.00    -0.581 OA 
HETATM    2  H   UNL     1     -13.727  12.317  71.890  1.00  0.00     0.000 HD 
HETATM    3  C   UNL     1     -12.564  10.749  71.330  1.00  0.00    -0.426 A  
HETATM    4  C   UNL     1     -12.038   9.523  71.715  1.00  0.00    -0.459 A  
HETATM    5  C   UNL     1     -11.167   8.835  70.856  1.00  0.00    -0.320 A  
HETATM    6  C   UNL     1     -10.824   9.351  69.595  1.00  0.00    -0.245 A  
HETATM    7  C   UNL     1     -11.428  10.566  69.214  1.00  0.00    -0.323 A  
HETATM    8  C   UNL     1     -12.278  11.268  70.082  1.00  0.00    -0.410 A  
ENDROOT
BRANCH   6   9
HETATM    9  C   UNL     1      -9.810   8.693  68.716  1.00  0.00    -0.172 A  
HETATM   10  C   UNL     1      -8.407   8.719  68.676  1.00  0.00    -0.128 A  
HETATM   11  C   UNL     1      -6.273   6.569  66.268  1.00  0.00    -0.038 A  
HETATM   12  C   UNL     1      -7.869   7.826  67.650  1.00  0.00    -0.123 A  
HETATM   13  O   UNL     1      -7.010   5.199  64.505  1.00  0.00    -0.048 OA 
HETATM   14  C   UNL     1      -8.885   7.246  66.893  1.00  0.00    -0.132 A  
HETATM   15  H   UNL     1      -6.108   4.986  64.298  1.00  0.00     0.000 HD 
HETATM   16  C   UNL     1      -6.536   7.441  67.329  1.00  0.00    -0.060 A  
HETATM   17  S   UNL     1     -10.425   7.747  67.415  1.00  0.00    -0.286 SA 
HETATM   18  C   UNL     1      -8.634   6.353  65.834  1.00  0.00    -0.151 A  
HETATM   19  C   UNL     1      -7.315   6.042  65.532  1.00  0.00    -0.076 A  
BRANCH  10  20
HETATM   20  C   UNL     1      -7.595   9.440  69.660  1.00  0.00    -0.095 C  
HETATM   21  O   UNL     1      -7.223   8.872  70.688  1.00  0.00    -0.056 OA 
BRANCH  20  22
HETATM   22  C   UNL     1      -7.179  10.865  69.480  1.00  0.00    -0.113 A  
HETATM   23  C   UNL     1      -6.429  13.510  68.771  1.00  0.00    -0.098 A  
HETATM   24  C   UNL     1      -5.795  12.854  69.831  1.00  0.00    -0.132 A  
HETATM   25  C   UNL     1      -7.822  11.546  68.443  1.00  0.00    -0.136 A  
HETATM   26  C   UNL     1      -6.166  11.534  70.186  1.00  0.00    -0.132 A  
HETATM   27  C   UNL     1      -7.433  12.836  68.077  1.00  0.00    -0.122 A  
BRANCH  23  28
HETATM   28  O   UNL     1      -6.025  14.806  68.469  1.00  0.00    -0.086 OA 
BRANCH  28  29
HETATM   29  C   UNL     1      -6.923  15.782  69.024  1.00  0.00    -0.150 C  
BRANCH  29  30
HETATM   30  C   UNL     1      -6.489  17.258  68.981  1.00  0.00    -0.221 C  
BRANCH  30  31
HETATM   31  N   UNL     1      -7.672  18.154  68.847  1.00  0.00    -0.246 NA 
HETATM   32  C   UNL     1      -7.385  19.585  69.049  1.00  0.00    -0.357 C  
HETATM   33  C   UNL     1      -6.413  20.122  68.003  1.00  0.00    -0.299 C  
HETATM   34  C   UNL     1      -7.037  19.992  66.619  1.00  0.00    -0.268 C  
HETATM   35  C   UNL     1      -7.610  18.594  66.361  1.00  0.00    -0.284 C  
HETATM   36  C   UNL     1      -8.365  17.999  67.558  1.00  0.00    -0.233 C  
ENDBRANCH  30  31
ENDBRANCH  29  30
ENDBRANCH  28  29
ENDBRANCH  23  28
ENDBRANCH  20  22
ENDBRANCH  10  20
ENDBRANCH   6   9
TORSDOF 7
ENDMDL
MODEL      150
REMARK 921   NORMALIZED FREE ENERGY PREDICTED BY IDOCK:   -4.61 KCAL/MOL
REMARK 922        TOTAL FREE ENERGY PREDICTED BY IDOCK:   -8.58 KCAL/MOL
REMARK 923 INTER-LIGAND FREE ENERGY PREDICTED BY IDOCK:   -6.90 KCAL/MOL
REMARK 924 INTRA-LIGAND FREE ENERGY PREDICTED BY IDOCK:   -1.68 KCAL/MOL
REMARK 927      BINDING AFFINITY PREDICTED BY RF-SCORE:    0.00 PKD
ROOT
HETATM    1  O   UNL     1     -12.990   8.937  73.151  1.00  0.00    -0.697 OA 
HETATM    2  H   UNL     1     -13.849   9.027  73.547  1.00  0.00     0.000 HD 
HETATM    3  C   UNL     1     -12.590   9.724  72.114  1.00  0.00    -0.284 A  
HETATM    4  C   UNL     1     -11.334   9.593  71.535  1.00  0.00    -0.420 A  
HETATM    5  C   UNL     1     -10.943  10.466  70.507  1.00  0.00    -0.270 A  
HETATM    6  C   UNL     1     -11.806  11.468  70.032  1.00  0.00    -0.435 A  
HETATM    7  C   UNL     1     -13.093  11.528  70.600  1.00  0.00     0.139 A  
HETATM    8  C   UNL     1     -13.477  10.674  71.645  1.00  0.00    -0.280 A  
ENDROOT
BRANCH   6   9
HETATM    9  C   UNL     1     -11.367  12.480  69.022  1.00  0.00    -0.290 A  
HETATM   10  C   UNL     1     -10.806  12.380  67.739  1.00  0.00    -0.257 A  
HETATM   11  C   UNL     1     -10.084  15.419  65.455  1.00  0.00    -0.394 A  
HETATM   12  C   UNL     1     -10.619  13.691  67.118  1.00  0.00    -0.272 A  
HETATM   13  O   UNL     1     -10.261  17.705  65.980  1.00  0.00    -0.455 OA 
HETATM   14  C   UNL     1     -10.948  14.723  67.994  1.00  0.00    -0.271 A  
HETATM   15  H   UNL     1      -9.953  17.925  65.108  1.00  0.00     0.000 HD 
HETATM   16  C   UNL     1     -10.206  14.072  65.809  1.00  0.00    -0.343 A  
HETATM   17  S   UNL     1     -11.477  14.131  69.497  1.00  0.00    -0.280 SA 
HETATM   18  C   UNL     1     -10.847  16.084  67.642  1.00  0.00    -0.311 A  
HETATM   19  C   UNL     1     -10.398  16.405  66.369  1.00  0.00    -0.313 A  
BRANCH  10  20
HETATM   20  C   UNL     1     -10.590  11.100  67.061  1.00  0.00    -0.252 C  
HETATM   21  O   UNL     1     -11.551  10.387  66.769  1.00  0.00     0.107 OA 
BRANCH  20  22
HETATM   22  C   UNL     1      -9.231  10.596  66.691  1.00  0.00    -0.184 A  
HETATM   23  C   UNL     1      -6.828   9.423  65.737  1.00  0.00    -0.085 A  
HETATM   24  C   UNL     1      -6.987   9.707  67.097  1.00  0.00    -0.085 A  
HETATM   25  C   UNL     1      -9.045  10.333  65.332  1.00  0.00    -0.221 A  
HETATM   26  C   UNL     1      -8.185  10.290  67.577  1.00  0.00    -0.114 A  
HETATM   27  C   UNL     1      -7.874   9.731  64.868  1.00  0.00    -0.133 A  
BRANCH  23  28
HETATM   28  O   UNL     1      -5.630   8.853  65.323  1.00  0.00    -0.045 OA 
BRANCH  28  29
HETATM   29  C   UNL     1      -5.399   7.586  65.963  1.00  0.00    -0.025 C  
BRANCH  29  30
HETATM   30  C   UNL     1      -5.536   6.316  65.104  1.00  0.00    -0.021 C  
BRANCH  30  31
HETATM   31  N   UNL     1      -6.931   6.167  64.600  1.00  0.00    -0.050 NA 
HETATM   32  C   UNL     1      -7.077   5.233  63.468  1.00  0.00    -0.047 C  
HETATM   33  C   UNL     1      -6.685   3.810  63.853  1.00  0.00    -0.043 C  
HETATM   34  C   UNL     1      -7.610   3.310  64.956  1.00  0.00    -0.077 C  
HETATM   35  C   UNL     1      -7.746   4.313  66.108  1.00  0.00    -0.090 C  
HETATM   36  C   UNL     1      -7.881   5.772  65.650  1.00  0.00    -0.100 C  
ENDBRANCH  30  31
ENDBRANCH  29  30
ENDBRANCH  28  29
ENDBRANCH  23  28
ENDBRANCH  20  22
ENDBRANCH  10  20
ENDBRANCH   6   9
TORSDOF 7
ENDMDL
MODEL      151
REMARK 921   NORMALIZED FREE ENERGY PREDICTED BY IDOCK:   -4.59 KCAL/MOL
REMARK 922        TOTAL FREE ENERGY PREDICTED BY IDOCK:   -8.55 KCAL/MOL
REMARK 923 INTER-LIGAND FREE ENERGY PREDICTED BY IDOCK:   -7.11 KCAL/MOL
REMARK 924 INTRA-LIGAND FREE ENERGY PREDICTED BY IDOCK:   -1.44 KCAL/MOL
REMARK 927      BINDING AFFINITY PREDICTED BY RF-SCORE:    0.00 PKD
ROOT
HETATM    1  O   UNL     1     -11.015   3.641  72.500  1.00  0.00     0.060 OA 
HETATM    2  H   UNL     1     -11.816   3.695  73.009  1.00  0.00     0.000 HD 
HETATM    3  C   UNL     1     -10.469   4.735  71.901  1.00  0.00    -0.130 A  
HETATM    4  C   UNL     1      -9.298   4.656  71.157  1.00  0.00    -0.207 A  
HETATM    5  C   UNL     1      -8.739   5.820  70.607  1.00  0.00    -0.137 A  
HETATM    6  C   UNL     1      -9.349   7.075  70.777  1.00  0.00    -0.161 A  
HETATM    7  C   UNL     1     -10.568   7.104  71.482  1.00  0.00    -0.228 A  
HETATM    8  C   UNL     1     -11.115   5.946  72.055  1.00  0.00    -0.329 A  
ENDROOT
BRANCH   6   9
HETATM    9  C   UNL     1      -8.710   8.340  70.300  1.00  0.00    -0.139 A  
HETATM   10  C   UNL     1      -8.977   9.212  69.234  1.00  0.00    -0.145 A  
HETATM   11  C   UNL     1      -7.081  12.531  68.630  1.00  0.00    -0.100 A  
HETATM   12  C   UNL     1      -8.088  10.373  69.238  1.00  0.00    -0.159 A  
HETATM   13  O   UNL     1      -5.192  13.351  69.766  1.00  0.00    -0.084 OA 
HETATM   14  C   UNL     1      -7.125  10.277  70.240  1.00  0.00    -0.105 A  
HETATM   15  H   UNL     1      -5.186  14.113  69.198  1.00  0.00     0.000 HD 
HETATM   16  C   UNL     1      -8.064  11.555  68.441  1.00  0.00    -0.149 A  
HETATM   17  S   UNL     1      -7.301   8.850  71.148  1.00  0.00    -0.091 SA 
HETATM   18  C   UNL     1      -6.141  11.263  70.451  1.00  0.00    -0.120 A  
HETATM   19  C   UNL     1      -6.133  12.375  69.621  1.00  0.00    -0.135 A  
BRANCH  10  20
HETATM   20  C   UNL     1     -10.118   9.041  68.331  1.00  0.00    -0.191 C  
HETATM   21  O   UNL     1     -10.540   7.912  68.077  1.00  0.00    -0.200 OA 
BRANCH  20  22
HETATM   22  C   UNL     1     -10.820  10.193  67.684  1.00  0.00    -0.346 A  
HETATM   23  C   UNL     1     -11.838  12.428  66.259  1.00  0.00    -0.364 A  
HETATM   24  C   UNL     1     -12.157  12.242  67.608  1.00  0.00    -0.032 A  
HETATM   25  C   UNL     1     -10.535  10.378  66.329  1.00  0.00    -0.229 A  
HETATM   26  C   UNL     1     -11.650  11.130  68.322  1.00  0.00    -0.359 A  
HETATM   27  C   UNL     1     -11.013  11.492  65.637  1.00  0.00    -0.296 A  
BRANCH  23  28
HETATM   28  O   UNL     1     -12.366  13.537  65.609  1.00  0.00    -0.425 OA 
BRANCH  28  29
HETATM   29  C   UNL     1     -11.416  14.119  64.701  1.00  0.00    -0.387 C  
BRANCH  29  30
HETATM   30  C   UNL     1     -10.840  15.502  65.059  1.00  0.00    -0.450 C  
BRANCH  30  31
HETATM   31  N   UNL     1     -10.758  15.673  66.537  1.00  0.00    -0.307 NA 
HETATM   32  C   UNL     1      -9.596  15.019  67.166  1.00  0.00    -0.217 C  
HETATM   33  C   UNL     1      -8.278  15.602  66.667  1.00  0.00    -0.284 C  
HETATM   34  C   UNL     1      -8.204  17.079  67.039  1.00  0.00    -0.232 C  
HETATM   35  C   UNL     1      -9.475  17.845  66.656  1.00  0.00    -0.303 C  
HETATM   36  C   UNL     1     -10.775  17.084  66.953  1.00  0.00    -0.125 C  
ENDBRANCH  30  31
ENDBRANCH  29  30
ENDBRANCH  28  29
ENDBRANCH  23  28
ENDBRANCH  20  22
ENDBRANCH  10  20
ENDBRANCH   6   9
TORSDOF 7
ENDMDL
MODEL      152
REMARK 921   NORMALIZED FREE ENERGY PREDICTED BY IDOCK:   -4.55 KCAL/MOL
REMARK 922        TOTAL FREE ENERGY PREDICTED BY IDOCK:   -8.49 KCAL/MOL
REMARK 923 INTER-LIGAND FREE ENERGY PREDICTED BY IDOCK:   -6.83 KCAL/MOL
REMARK 924 INTRA-LIGAND FREE ENERGY PREDICTED BY IDOCK:   -1.66 KCAL/MOL
REMARK 927      BINDING AFFINITY PREDICTED BY RF-SCORE:    0.00 PKD
ROOT
HETATM    1  O   UNL     1     -11.081   7.639  73.680  1.00  0.00    -0.522 OA 
HETATM    2  H   UNL     1     -11.929   7.405  74.038  1.00  0.00     0.000 HD 
HETATM    3  C   UNL     1     -10.956   8.249  72.468  1.00  0.00    -0.354 A  
HETATM    4  C   UNL     1      -9.716   8.591  71.944  1.00  0.00    -0.358 A  
HETATM    5  C   UNL     1      -9.638   9.272  70.719  1.00  0.00    -0.341 A  
HETATM    6  C   UNL     1     -10.795   9.605  69.993  1.00  0.00    -0.302 A  
HETATM    7  C   UNL     1     -12.029   9.185  70.526  1.00  0.00    -0.081 A  
HETATM    8  C   UNL     1     -12.111   8.527  71.763  1.00  0.00    -0.391 A  
ENDROOT
BRANCH   6   9
HETATM    9  C   UNL     1     -10.740  10.431  68.748  1.00  0.00    -0.225 A  
HETATM   10  C   UNL     1     -10.301  10.175  67.440  1.00  0.00    -0.289 A  
HETATM   11  C   UNL     1     -10.636  12.688  64.516  1.00  0.00    -0.369 A  
HETATM   12  C   UNL     1     -10.529  11.313  66.550  1.00  0.00    -0.299 A  
HETATM   13  O   UNL     1     -11.359  14.924  64.599  1.00  0.00    -0.489 OA 
HETATM   14  C   UNL     1     -11.032  12.411  67.244  1.00  0.00    -0.260 A  
HETATM   15  H   UNL     1     -11.208  15.003  63.665  1.00  0.00     0.000 HD 
HETATM   16  C   UNL     1     -10.361  11.469  65.144  1.00  0.00    -0.329 A  
HETATM   17  S   UNL     1     -11.237  12.073  68.899  1.00  0.00    -0.280 SA 
HETATM   18  C   UNL     1     -11.330  13.638  66.619  1.00  0.00    -0.343 A  
HETATM   19  C   UNL     1     -11.109  13.754  65.254  1.00  0.00    -0.313 A  
BRANCH  10  20
HETATM   20  C   UNL     1      -9.821   8.861  67.004  1.00  0.00    -0.214 C  
HETATM   21  O   UNL     1     -10.493   8.188  66.220  1.00  0.00    -0.000 OA 
BRANCH  20  22
HETATM   22  C   UNL     1      -8.525   8.276  67.467  1.00  0.00    -0.130 A  
HETATM   23  C   UNL     1      -6.273   6.905  68.521  1.00  0.00    -0.031 A  
HETATM   24  C   UNL     1      -6.277   8.301  68.436  1.00  0.00    -0.050 A  
HETATM   25  C   UNL     1      -8.493   6.880  67.531  1.00  0.00    -0.122 A  
HETATM   26  C   UNL     1      -7.399   8.988  67.913  1.00  0.00    -0.084 A  
HETATM   27  C   UNL     1      -7.397   6.209  68.075  1.00  0.00    -0.088 A  
BRANCH  23  28
HETATM   28  O   UNL     1      -5.143   6.284  69.041  1.00  0.00    -0.004 OA 
BRANCH  28  29
HETATM   29  C   UNL     1      -5.288   6.015  70.446  1.00  0.00    -0.013 C  
BRANCH  29  30
HETATM   30  C   UNL     1      -5.558   7.210  71.378  1.00  0.00    -0.035 C  
BRANCH  30  31
HETATM   31  N   UNL     1      -5.320   6.835  72.801  1.00  0.00    -0.037 NA 
HETATM   32  C   UNL     1      -5.171   7.978  73.720  1.00  0.00    -0.049 C  
HETATM   33  C   UNL     1      -6.439   8.824  73.783  1.00  0.00    -0.023 C  
HETATM   34  C   UNL     1      -7.586   7.976  74.320  1.00  0.00    -0.246 C  
HETATM   35  C   UNL     1      -7.704   6.626  73.604  1.00  0.00    -0.091 C  
HETATM   36  C   UNL     1      -6.356   5.941  73.339  1.00  0.00    -0.067 C  
ENDBRANCH  30  31
ENDBRANCH  29  30
ENDBRANCH  28  29
ENDBRANCH  23  28
ENDBRANCH  20  22
ENDBRANCH  10  20
ENDBRANCH   6   9
TORSDOF 7
ENDMDL
MODEL      153
REMARK 921   NORMALIZED FREE ENERGY PREDICTED BY IDOCK:   -4.53 KCAL/MOL
REMARK 922        TOTAL FREE ENERGY PREDICTED BY IDOCK:   -8.47 KCAL/MOL
REMARK 923 INTER-LIGAND FREE ENERGY PREDICTED BY IDOCK:   -6.48 KCAL/MOL
REMARK 924 INTRA-LIGAND FREE ENERGY PREDICTED BY IDOCK:   -1.98 KCAL/MOL
REMARK 927      BINDING AFFINITY PREDICTED BY RF-SCORE:    0.00 PKD
ROOT
HETATM    1  O   UNL     1      -5.933  11.608  66.137  1.00  0.00    -0.461 OA 
HETATM    2  H   UNL     1      -6.022  12.515  66.407  1.00  0.00     0.000 HD 
HETATM    3  C   UNL     1      -6.199  10.576  66.986  1.00  0.00    -0.066 A  
HETATM    4  C   UNL     1      -6.068   9.251  66.592  1.00  0.00    -0.064 A  
HETATM    5  C   UNL     1      -6.411   8.220  67.482  1.00  0.00    -0.057 A  
HETATM    6  C   UNL     1      -6.870   8.498  68.781  1.00  0.00    -0.062 A  
HETATM    7  C   UNL     1      -6.927   9.852  69.164  1.00  0.00    -0.057 A  
HETATM    8  C   UNL     1      -6.611  10.884  68.268  1.00  0.00    -0.058 A  
ENDROOT
BRANCH   6   9
HETATM    9  C   UNL     1      -7.349   7.421  69.701  1.00  0.00    -0.091 A  
HETATM   10  C   UNL     1      -8.585   6.777  69.870  1.00  0.00    -0.141 A  
HETATM   11  C   UNL     1      -9.171   3.831  72.309  1.00  0.00    -0.163 A  
HETATM   12  C   UNL     1      -8.520   5.719  70.877  1.00  0.00    -0.126 A  
HETATM   13  O   UNL     1      -7.683   2.945  73.900  1.00  0.00    -0.057 OA 
HETATM   14  C   UNL     1      -7.273   5.678  71.497  1.00  0.00    -0.081 A  
HETATM   15  H   UNL     1      -8.350   2.326  74.172  1.00  0.00     0.000 HD 
HETATM   16  C   UNL     1      -9.470   4.740  71.290  1.00  0.00    -0.216 A  
HETATM   17  S   UNL     1      -6.220   6.859  70.873  1.00  0.00    -0.036 SA 
HETATM   18  C   UNL     1      -6.954   4.754  72.511  1.00  0.00    -0.074 A  
HETATM   19  C   UNL     1      -7.928   3.849  72.909  1.00  0.00    -0.079 A  
BRANCH  10  20
HETATM   20  C   UNL     1      -9.744   7.042  69.015  1.00  0.00    -0.145 C  
HETATM   21  O   UNL     1     -10.278   6.121  68.395  1.00  0.00    -0.145 OA 
BRANCH  20  22
HETATM   22  C   UNL     1     -10.336   8.407  68.849  1.00  0.00    -0.231 A  
HETATM   23  C   UNL     1     -11.723  10.883  68.777  1.00  0.00    -0.286 A  
HETATM   24  C   UNL     1     -11.141  10.363  67.616  1.00  0.00    -0.361 A  
HETATM   25  C   UNL     1     -10.898   8.955  70.005  1.00  0.00    -0.239 A  
HETATM   26  C   UNL     1     -10.450   9.127  67.649  1.00  0.00    -0.323 A  
HETATM   27  C   UNL     1     -11.604  10.158  69.962  1.00  0.00    -0.323 A  
BRANCH  23  28
HETATM   28  O   UNL     1     -12.387  12.101  68.686  1.00  0.00    -0.168 OA 
BRANCH  28  29
HETATM   29  C   UNL     1     -11.633  13.160  69.300  1.00  0.00    -0.314 C  
BRANCH  29  30
HETATM   30  C   UNL     1     -10.749  14.030  68.387  1.00  0.00    -0.251 C  
BRANCH  30  31
HETATM   31  N   UNL     1     -11.557  15.094  67.727  1.00  0.00    -0.322 NA 
HETATM   32  C   UNL     1     -10.776  16.251  67.253  1.00  0.00    -0.265 C  
HETATM   33  C   UNL     1      -9.768  15.854  66.180  1.00  0.00    -0.351 C  
HETATM   34  C   UNL     1     -10.510  15.300  64.969  1.00  0.00    -0.411 C  
HETATM   35  C   UNL     1     -11.550  14.241  65.351  1.00  0.00    -0.346 C  
HETATM   36  C   UNL     1     -12.363  14.590  66.605  1.00  0.00    -0.111 C  
ENDBRANCH  30  31
ENDBRANCH  29  30
ENDBRANCH  28  29
ENDBRANCH  23  28
ENDBRANCH  20  22
ENDBRANCH  10  20
ENDBRANCH   6   9
TORSDOF 7
ENDMDL
MODEL      154
REMARK 921   NORMALIZED FREE ENERGY PREDICTED BY IDOCK:   -4.53 KCAL/MOL
REMARK 922        TOTAL FREE ENERGY PREDICTED BY IDOCK:   -8.46 KCAL/MOL
REMARK 923 INTER-LIGAND FREE ENERGY PREDICTED BY IDOCK:   -7.80 KCAL/MOL
REMARK 924 INTRA-LIGAND FREE ENERGY PREDICTED BY IDOCK:   -0.66 KCAL/MOL
REMARK 927      BINDING AFFINITY PREDICTED BY RF-SCORE:    0.00 PKD
ROOT
HETATM    1  O   UNL     1     -10.148  17.367  65.817  1.00  0.00    -0.544 OA 
HETATM    2  H   UNL     1     -10.431  18.222  66.119  1.00  0.00     0.000 HD 
HETATM    3  C   UNL     1     -10.287  16.251  66.585  1.00  0.00    -0.302 A  
HETATM    4  C   UNL     1      -9.874  15.001  66.143  1.00  0.00    -0.325 A  
HETATM    5  C   UNL     1     -10.091  13.868  66.944  1.00  0.00    -0.260 A  
HETATM    6  C   UNL     1     -10.706  13.971  68.204  1.00  0.00    -0.254 A  
HETATM    7  C   UNL     1     -11.052  15.264  68.644  1.00  0.00    -0.282 A  
HETATM    8  C   UNL     1     -10.860  16.393  67.833  1.00  0.00    -0.328 A  
ENDROOT
BRANCH   6   9
HETATM    9  C   UNL     1     -11.051  12.767  69.019  1.00  0.00    -0.233 A  
HETATM   10  C   UNL     1     -10.479  11.491  69.144  1.00  0.00    -0.135 A  
HETATM   11  C   UNL     1     -11.702   8.810  71.652  1.00  0.00    -0.402 A  
HETATM   12  C   UNL     1     -11.162  10.678  70.150  1.00  0.00    -0.378 A  
HETATM   13  O   UNL     1     -13.597   8.880  73.044  1.00  0.00    -0.914 OA 
HETATM   14  C   UNL     1     -12.278  11.334  70.665  1.00  0.00    -0.393 A  
HETATM   15  H   UNL     1     -13.389   8.010  73.363  1.00  0.00     0.000 HD 
HETATM   16  C   UNL     1     -10.869   9.394  70.693  1.00  0.00    -0.346 A  
HETATM   17  S   UNL     1     -12.480  12.875  69.974  1.00  0.00     0.078 SA 
HETATM   18  C   UNL     1     -13.114  10.763  71.645  1.00  0.00    -0.551 A  
HETATM   19  C   UNL     1     -12.812   9.491  72.111  1.00  0.00    -0.389 A  
BRANCH  10  20
HETATM   20  C   UNL     1      -9.249  11.099  68.453  1.00  0.00    -0.175 C  
HETATM   21  O   UNL     1      -8.276  11.854  68.450  1.00  0.00    -0.156 OA 
BRANCH  20  22
HETATM   22  C   UNL     1      -9.102   9.796  67.733  1.00  0.00    -0.138 A  
HETATM   23  C   UNL     1      -8.545   7.488  66.175  1.00  0.00    -0.149 A  
HETATM   24  C   UNL     1      -9.863   7.819  66.505  1.00  0.00    -0.255 A  
HETATM   25  C   UNL     1      -7.790   9.434  67.419  1.00  0.00    -0.102 A  
HETATM   26  C   UNL     1     -10.145   8.970  67.280  1.00  0.00    -0.297 A  
HETATM   27  C   UNL     1      -7.518   8.315  66.630  1.00  0.00    -0.086 A  
BRANCH  23  28
HETATM   28  O   UNL     1      -8.328   6.345  65.414  1.00  0.00    -0.142 OA 
BRANCH  28  29
HETATM   29  C   UNL     1      -7.049   5.754  65.701  1.00  0.00    -0.069 C  
BRANCH  29  30
HETATM   30  C   UNL     1      -6.875   4.252  65.411  1.00  0.00    -0.057 C  
BRANCH  30  31
HETATM   31  N   UNL     1      -6.088   4.043  64.163  1.00  0.00    -0.018 NA 
HETATM   32  C   UNL     1      -5.812   2.631  63.842  1.00  0.00    -0.010 C  
HETATM   33  C   UNL     1      -7.095   1.846  63.587  1.00  0.00    -0.036 C  
HETATM   34  C   UNL     1      -7.819   2.437  62.383  1.00  0.00    -0.054 C  
HETATM   35  C   UNL     1      -7.960   3.961  62.471  1.00  0.00    -0.063 C  
HETATM   36  C   UNL     1      -6.701   4.674  62.985  1.00  0.00    -0.031 C  
ENDBRANCH  30  31
ENDBRANCH  29  30
ENDBRANCH  28  29
ENDBRANCH  23  28
ENDBRANCH  20  22
ENDBRANCH  10  20
ENDBRANCH   6   9
TORSDOF 7
ENDMDL
MODEL      155
REMARK 921   NORMALIZED FREE ENERGY PREDICTED BY IDOCK:   -4.51 KCAL/MOL
REMARK 922        TOTAL FREE ENERGY PREDICTED BY IDOCK:   -8.44 KCAL/MOL
REMARK 923 INTER-LIGAND FREE ENERGY PREDICTED BY IDOCK:   -6.64 KCAL/MOL
REMARK 924 INTRA-LIGAND FREE ENERGY PREDICTED BY IDOCK:   -1.80 KCAL/MOL
REMARK 927      BINDING AFFINITY PREDICTED BY RF-SCORE:    0.00 PKD
ROOT
HETATM    1  O   UNL     1      -6.431  11.314  70.820  1.00  0.00    -0.492 OA 
HETATM    2  H   UNL     1      -7.065  11.790  71.344  1.00  0.00     0.000 HD 
HETATM    3  C   UNL     1      -6.777  10.213  70.097  1.00  0.00    -0.138 A  
HETATM    4  C   UNL     1      -5.851   9.517  69.331  1.00  0.00    -0.034 A  
HETATM    5  C   UNL     1      -6.265   8.424  68.555  1.00  0.00    -0.053 A  
HETATM    6  C   UNL     1      -7.606   7.999  68.546  1.00  0.00    -0.104 A  
HETATM    7  C   UNL     1      -8.502   8.691  69.384  1.00  0.00    -0.126 A  
HETATM    8  C   UNL     1      -8.095   9.800  70.141  1.00  0.00    -0.202 A  
ENDROOT
BRANCH   6   9
HETATM    9  C   UNL     1      -8.089   6.914  67.639  1.00  0.00    -0.113 A  
HETATM   10  C   UNL     1      -8.477   6.886  66.290  1.00  0.00    -0.131 A  
HETATM   11  C   UNL     1      -9.427   3.658  64.380  1.00  0.00    -0.154 A  
HETATM   12  C   UNL     1      -8.806   5.534  65.840  1.00  0.00    -0.150 A  
HETATM   13  O   UNL     1      -9.690   1.485  65.241  1.00  0.00    -0.332 OA 
HETATM   14  C   UNL     1      -8.753   4.619  66.889  1.00  0.00    -0.107 A  
HETATM   15  H   UNL     1      -9.929   1.176  64.375  1.00  0.00     0.000 HD 
HETATM   16  C   UNL     1      -9.126   5.012  64.553  1.00  0.00    -0.003 A  
HETATM   17  S   UNL     1      -8.306   5.362  68.353  1.00  0.00    -0.093 SA 
HETATM   18  C   UNL     1      -9.036   3.249  66.723  1.00  0.00    -0.170 A  
HETATM   19  C   UNL     1      -9.385   2.796  65.458  1.00  0.00    -0.063 A  
BRANCH  10  20
HETATM   20  C   UNL     1      -8.401   8.058  65.415  1.00  0.00    -0.153 C  
HETATM   21  O   UNL     1      -7.837   7.978  64.323  1.00  0.00    -0.124 OA 
BRANCH  20  22
HETATM   22  C   UNL     1      -8.987   9.385  65.782  1.00  0.00    -0.227 A  
HETATM   23  C   UNL     1     -10.423  11.771  66.338  1.00  0.00    -0.235 A  
HETATM   24  C   UNL     1      -9.094  11.828  65.908  1.00  0.00    -0.128 A  
HETATM   25  C   UNL     1     -10.307   9.345  66.240  1.00  0.00    -0.211 A  
HETATM   26  C   UNL     1      -8.375  10.640  65.629  1.00  0.00    -0.162 A  
HETATM   27  C   UNL     1     -11.020  10.519  66.486  1.00  0.00    -0.054 A  
BRANCH  23  28
HETATM   28  O   UNL     1     -11.078  12.968  66.600  1.00  0.00    -0.278 OA 
BRANCH  28  29
HETATM   29  C   UNL     1     -10.523  14.052  65.835  1.00  0.00    -0.309 C  
BRANCH  29  30
HETATM   30  C   UNL     1     -11.007  15.477  66.161  1.00  0.00    -0.247 C  
BRANCH  30  31
HETATM   31  N   UNL     1      -9.979  16.485  65.775  1.00  0.00    -0.506 NA 
HETATM   32  C   UNL     1     -10.293  17.867  66.180  1.00  0.00    -0.352 C  
HETATM   33  C   UNL     1     -10.378  18.009  67.696  1.00  0.00    -0.397 C  
HETATM   34  C   UNL     1      -9.026  17.668  68.313  1.00  0.00    -0.276 C  
HETATM   35  C   UNL     1      -8.455  16.348  67.783  1.00  0.00    -0.172 C  
HETATM   36  C   UNL     1      -8.635  16.152  66.272  1.00  0.00    -0.338 C  
ENDBRANCH  30  31
ENDBRANCH  29  30
ENDBRANCH  28  29
ENDBRANCH  23  28
ENDBRANCH  20  22
ENDBRANCH  10  20
ENDBRANCH   6   9
TORSDOF 7
ENDMDL
MODEL      156
REMARK 921   NORMALIZED FREE ENERGY PREDICTED BY IDOCK:   -4.45 KCAL/MOL
REMARK 922        TOTAL FREE ENERGY PREDICTED BY IDOCK:   -8.35 KCAL/MOL
REMARK 923 INTER-LIGAND FREE ENERGY PREDICTED BY IDOCK:   -7.49 KCAL/MOL
REMARK 924 INTRA-LIGAND FREE ENERGY PREDICTED BY IDOCK:   -0.86 KCAL/MOL
REMARK 927      BINDING AFFINITY PREDICTED BY RF-SCORE:    0.00 PKD
ROOT
HETATM    1  O   UNL     1      -6.297   2.200  67.525  1.00  0.00    -0.024 OA 
HETATM    2  H   UNL     1      -5.359   2.211  67.670  1.00  0.00     0.000 HD 
HETATM    3  C   UNL     1      -7.134   3.061  68.168  1.00  0.00    -0.049 A  
HETATM    4  C   UNL     1      -8.507   3.045  67.957  1.00  0.00    -0.102 A  
HETATM    5  C   UNL     1      -9.325   3.991  68.596  1.00  0.00    -0.224 A  
HETATM    6  C   UNL     1      -8.785   4.952  69.468  1.00  0.00    -0.108 A  
HETATM    7  C   UNL     1      -7.398   4.895  69.706  1.00  0.00    -0.056 A  
HETATM    8  C   UNL     1      -6.576   3.968  69.048  1.00  0.00    -0.041 A  
ENDROOT
BRANCH   6   9
HETATM    9  C   UNL     1      -9.621   6.038  70.066  1.00  0.00    -0.163 A  
HETATM   10  C   UNL     1      -9.731   7.416  69.820  1.00  0.00    -0.170 A  
HETATM   11  C   UNL     1     -12.300   9.724  71.565  1.00  0.00    -0.495 A  
HETATM   12  C   UNL     1     -10.768   8.040  70.642  1.00  0.00    -0.235 A  
HETATM   13  O   UNL     1     -13.763   9.197  73.330  1.00  0.00    -1.031 OA 
HETATM   14  C   UNL     1     -11.321   7.133  71.543  1.00  0.00    -0.255 A  
HETATM   15  H   UNL     1     -14.079  10.093  73.329  1.00  0.00     0.000 HD 
HETATM   16  C   UNL     1     -11.307   9.358  70.651  1.00  0.00    -0.352 A  
HETATM   17  S   UNL     1     -10.628   5.587  71.388  1.00  0.00    -0.220 SA 
HETATM   18  C   UNL     1     -12.335   7.485  72.455  1.00  0.00    -0.027 A  
HETATM   19  C   UNL     1     -12.797   8.793  72.455  1.00  0.00    -0.371 A  
BRANCH  10  20
HETATM   20  C   UNL     1      -8.997   8.095  68.750  1.00  0.00    -0.144 C  
HETATM   21  O   UNL     1      -7.995   7.571  68.261  1.00  0.00    -0.119 OA 
BRANCH  20  22
HETATM   22  C   UNL     1      -9.408   9.424  68.201  1.00  0.00    -0.142 A  
HETATM   23  C   UNL     1     -10.294  11.760  66.850  1.00  0.00    -0.217 A  
HETATM   24  C   UNL     1      -9.149  11.797  67.654  1.00  0.00    -0.177 A  
HETATM   25  C   UNL     1     -10.564   9.412  67.417  1.00  0.00    -0.326 A  
HETATM   26  C   UNL     1      -8.704  10.633  68.327  1.00  0.00    -0.135 A  
HETATM   27  C   UNL     1     -10.983  10.553  66.732  1.00  0.00    -0.150 A  
BRANCH  23  28
HETATM   28  O   UNL     1     -10.685  12.932  66.215  1.00  0.00    -0.270 OA 
BRANCH  28  29
HETATM   29  C   UNL     1     -10.339  14.093  66.989  1.00  0.00    -0.267 C  
BRANCH  29  30
HETATM   30  C   UNL     1     -11.325  14.542  68.083  1.00  0.00    -0.298 C  
BRANCH  30  31
HETATM   31  N   UNL     1     -10.747  14.318  69.439  1.00  0.00    -0.182 NA 
HETATM   32  C   UNL     1     -10.799  15.493  70.328  1.00  0.00    -0.339 C  
HETATM   33  C   UNL     1     -12.234  15.920  70.620  1.00  0.00    -0.345 C  
HETATM   34  C   UNL     1     -12.962  14.792  71.342  1.00  0.00    -0.413 C  
HETATM   35  C   UNL     1     -12.784  13.438  70.644  1.00  0.00    -0.246 C  
HETATM   36  C   UNL     1     -11.357  13.179  70.142  1.00  0.00     0.203 C  
ENDBRANCH  30  31
ENDBRANCH  29  30
ENDBRANCH  28  29
ENDBRANCH  23  28
ENDBRANCH  20  22
ENDBRANCH  10  20
ENDBRANCH   6   9
TORSDOF 7
ENDMDL
MODEL      157
REMARK 921   NORMALIZED FREE ENERGY PREDICTED BY IDOCK:   -4.45 KCAL/MOL
REMARK 922        TOTAL FREE ENERGY PREDICTED BY IDOCK:   -8.35 KCAL/MOL
REMARK 923 INTER-LIGAND FREE ENERGY PREDICTED BY IDOCK:   -6.37 KCAL/MOL
REMARK 924 INTRA-LIGAND FREE ENERGY PREDICTED BY IDOCK:   -1.98 KCAL/MOL
REMARK 927      BINDING AFFINITY PREDICTED BY RF-SCORE:    0.00 PKD
ROOT
HETATM    1  O   UNL     1      -5.278  13.389  68.557  1.00  0.00    -0.069 OA 
HETATM    2  H   UNL     1      -4.992  13.967  67.860  1.00  0.00     0.000 HD 
HETATM    3  C   UNL     1      -5.873  12.191  68.299  1.00  0.00    -0.052 A  
HETATM    4  C   UNL     1      -6.291  11.345  69.318  1.00  0.00    -0.084 A  
HETATM    5  C   UNL     1      -6.845  10.093  69.005  1.00  0.00    -0.056 A  
HETATM    6  C   UNL     1      -7.006   9.678  67.672  1.00  0.00    -0.087 A  
HETATM    7  C   UNL     1      -6.629  10.590  66.667  1.00  0.00    -0.094 A  
HETATM    8  C   UNL     1      -6.051  11.830  66.977  1.00  0.00    -0.152 A  
ENDROOT
BRANCH   6   9
HETATM    9  C   UNL     1      -7.484   8.306  67.321  1.00  0.00    -0.089 A  
HETATM   10  C   UNL     1      -8.746   7.691  67.337  1.00  0.00    -0.124 A  
HETATM   11  C   UNL     1      -9.417   4.100  66.060  1.00  0.00    -0.182 A  
HETATM   12  C   UNL     1      -8.698   6.323  66.821  1.00  0.00    -0.117 A  
HETATM   13  O   UNL     1      -7.852   2.495  65.351  1.00  0.00    -0.076 OA 
HETATM   14  C   UNL     1      -7.392   5.930  66.535  1.00  0.00    -0.078 A  
HETATM   15  H   UNL     1      -8.558   1.877  65.204  1.00  0.00     0.000 HD 
HETATM   16  C   UNL     1      -9.725   5.377  66.541  1.00  0.00    -0.179 A  
HETATM   17  S   UNL     1      -6.274   7.170  66.861  1.00  0.00    -0.047 SA 
HETATM   18  C   UNL     1      -7.072   4.654  66.032  1.00  0.00    -0.075 A  
HETATM   19  C   UNL     1      -8.104   3.751  65.817  1.00  0.00    -0.093 A  
BRANCH  10  20
HETATM   20  C   UNL     1      -9.975   8.406  67.685  1.00  0.00    -0.190 C  
HETATM   21  O   UNL     1     -10.716   7.967  68.566  1.00  0.00    -0.144 OA 
BRANCH  20  22
HETATM   22  C   UNL     1     -10.393   9.676  67.015  1.00  0.00    -0.315 A  
HETATM   23  C   UNL     1     -11.515  12.044  65.920  1.00  0.00    -0.333 A  
HETATM   24  C   UNL     1     -10.686  11.228  65.143  1.00  0.00    -0.312 A  
HETATM   25  C   UNL     1     -11.199  10.518  67.785  1.00  0.00    -0.344 A  
HETATM   26  C   UNL     1     -10.127  10.045  65.685  1.00  0.00    -0.321 A  
HETATM   27  C   UNL     1     -11.773  11.667  67.238  1.00  0.00    -0.255 A  
BRANCH  23  28
HETATM   28  O   UNL     1     -12.034  13.194  65.336  1.00  0.00    -0.358 OA 
BRANCH  28  29
HETATM   29  C   UNL     1     -12.070  14.289  66.267  1.00  0.00    -0.413 C  
BRANCH  29  30
HETATM   30  C   UNL     1     -10.790  15.129  66.431  1.00  0.00    -0.326 C  
BRANCH  30  31
HETATM   31  N   UNL     1     -10.119  14.821  67.726  1.00  0.00    -0.223 NA 
HETATM   32  C   UNL     1      -9.024  15.741  68.082  1.00  0.00    -0.180 C  
HETATM   33  C   UNL     1      -9.524  17.170  68.273  1.00  0.00    -0.276 C  
HETATM   34  C   UNL     1     -10.521  17.208  69.425  1.00  0.00    -0.203 C  
HETATM   35  C   UNL     1     -11.596  16.121  69.307  1.00  0.00    -0.270 C  
HETATM   36  C   UNL     1     -11.056  14.757  68.857  1.00  0.00    -0.252 C  
ENDBRANCH  30  31
ENDBRANCH  29  30
ENDBRANCH  28  29
ENDBRANCH  23  28
ENDBRANCH  20  22
ENDBRANCH  10  20
ENDBRANCH   6   9
TORSDOF 7
ENDMDL
MODEL      158
REMARK 921   NORMALIZED FREE ENERGY PREDICTED BY IDOCK:   -4.45 KCAL/MOL
REMARK 922        TOTAL FREE ENERGY PREDICTED BY IDOCK:   -8.34 KCAL/MOL
REMARK 923 INTER-LIGAND FREE ENERGY PREDICTED BY IDOCK:   -6.82 KCAL/MOL
REMARK 924 INTRA-LIGAND FREE ENERGY PREDICTED BY IDOCK:   -1.52 KCAL/MOL
REMARK 927      BINDING AFFINITY PREDICTED BY RF-SCORE:    0.00 PKD
ROOT
HETATM    1  O   UNL     1     -11.665  10.322  70.614  1.00  0.00    -0.295 OA 
HETATM    2  H   UNL     1     -12.351  10.250  71.267  1.00  0.00     0.000 HD 
HETATM    3  C   UNL     1     -11.447  11.476  69.924  1.00  0.00    -0.260 A  
HETATM    4  C   UNL     1     -10.443  11.582  68.970  1.00  0.00    -0.175 A  
HETATM    5  C   UNL     1     -10.217  12.809  68.326  1.00  0.00    -0.245 A  
HETATM    6  C   UNL     1     -11.001  13.940  68.612  1.00  0.00    -0.281 A  
HETATM    7  C   UNL     1     -12.049  13.776  69.538  1.00  0.00    -0.386 A  
HETATM    8  C   UNL     1     -12.260  12.558  70.202  1.00  0.00    -0.307 A  
ENDROOT
BRANCH   6   9
HETATM    9  C   UNL     1     -10.701  15.282  68.025  1.00  0.00    -0.268 A  
HETATM   10  C   UNL     1     -10.796  15.810  66.728  1.00  0.00    -0.254 A  
HETATM   11  C   UNL     1     -10.088  19.510  65.842  1.00  0.00    -0.444 A  
HETATM   12  C   UNL     1     -10.444  17.229  66.684  1.00  0.00    -0.257 A  
HETATM   13  O   UNL     1      -9.230  21.198  67.236  1.00  0.00    -0.592 OA 
HETATM   14  C   UNL     1     -10.001  17.684  67.924  1.00  0.00    -0.323 A  
HETATM   15  H   UNL     1      -9.257  21.807  66.508  1.00  0.00     0.000 HD 
HETATM   16  C   UNL     1     -10.508  18.192  65.636  1.00  0.00    -0.103 A  
HETATM   17  S   UNL     1     -10.027  16.451  69.095  1.00  0.00    -0.266 SA 
HETATM   18  C   UNL     1      -9.592  19.013  68.148  1.00  0.00    -0.395 A  
HETATM   19  C   UNL     1      -9.632  19.904  67.084  1.00  0.00    -0.381 A  
BRANCH  10  20
HETATM   20  C   UNL     1     -11.338  15.052  65.597  1.00  0.00    -0.297 C  
HETATM   21  O   UNL     1     -12.157  15.575  64.840  1.00  0.00    -0.031 OA 
BRANCH  20  22
HETATM   22  C   UNL     1     -10.940  13.641  65.301  1.00  0.00    -0.314 A  
HETATM   23  C   UNL     1     -10.448  10.862  64.987  1.00  0.00    -0.261 A  
HETATM   24  C   UNL     1      -9.389  11.776  64.964  1.00  0.00     0.001 A  
HETATM   25  C   UNL     1     -11.988  12.717  65.293  1.00  0.00    -0.473 A  
HETATM   26  C   UNL     1      -9.631  13.162  65.122  1.00  0.00     0.178 A  
HETATM   27  C   UNL     1     -11.742  11.349  65.166  1.00  0.00     0.223 A  
BRANCH  23  28
HETATM   28  O   UNL     1     -10.151   9.514  64.825  1.00  0.00     0.143 OA 
BRANCH  28  29
HETATM   29  C   UNL     1      -9.708   8.919  66.056  1.00  0.00    -0.238 C  
BRANCH  29  30
HETATM   30  C   UNL     1      -8.833   7.655  65.964  1.00  0.00    -0.155 C  
BRANCH  30  31
HETATM   31  N   UNL     1      -7.466   7.919  66.497  1.00  0.00    -0.087 NA 
HETATM   32  C   UNL     1      -6.504   6.822  66.287  1.00  0.00    -0.047 C  
HETATM   33  C   UNL     1      -6.262   6.556  64.805  1.00  0.00    -0.038 C  
HETATM   34  C   UNL     1      -5.658   7.798  64.160  1.00  0.00    -0.041 C  
HETATM   35  C   UNL     1      -6.434   9.075  64.504  1.00  0.00    -0.071 C  
HETATM   36  C   UNL     1      -6.876   9.159  65.972  1.00  0.00    -0.084 C  
ENDBRANCH  30  31
ENDBRANCH  29  30
ENDBRANCH  28  29
ENDBRANCH  23  28
ENDBRANCH  20  22
ENDBRANCH  10  20
ENDBRANCH   6   9
TORSDOF 7
ENDMDL
MODEL      159
REMARK 921   NORMALIZED FREE ENERGY PREDICTED BY IDOCK:   -4.43 KCAL/MOL
REMARK 922        TOTAL FREE ENERGY PREDICTED BY IDOCK:   -8.32 KCAL/MOL
REMARK 923 INTER-LIGAND FREE ENERGY PREDICTED BY IDOCK:   -6.49 KCAL/MOL
REMARK 924 INTRA-LIGAND FREE ENERGY PREDICTED BY IDOCK:   -1.83 KCAL/MOL
REMARK 927      BINDING AFFINITY PREDICTED BY RF-SCORE:    0.00 PKD
ROOT
HETATM    1  O   UNL     1      -5.140  17.647  70.753  1.00  0.00    -0.242 OA 
HETATM    2  H   UNL     1      -4.971  17.403  71.655  1.00  0.00     0.000 HD 
HETATM    3  C   UNL     1      -5.875  16.858  69.921  1.00  0.00    -0.226 A  
HETATM    4  C   UNL     1      -6.123  17.214  68.601  1.00  0.00    -0.153 A  
HETATM    5  C   UNL     1      -6.936  16.399  67.797  1.00  0.00    -0.157 A  
HETATM    6  C   UNL     1      -7.498  15.210  68.294  1.00  0.00    -0.109 A  
HETATM    7  C   UNL     1      -7.172  14.851  69.617  1.00  0.00    -0.166 A  
HETATM    8  C   UNL     1      -6.381  15.677  70.430  1.00  0.00     0.110 A  
ENDROOT
BRANCH   6   9
HETATM    9  C   UNL     1      -8.459  14.391  67.493  1.00  0.00    -0.192 A  
HETATM   10  C   UNL     1      -8.430  13.076  67.004  1.00  0.00    -0.142 A  
HETATM   11  C   UNL     1     -11.383  11.393  65.154  1.00  0.00    -0.079 A  
HETATM   12  C   UNL     1      -9.673  12.715  66.324  1.00  0.00    -0.260 A  
HETATM   13  O   UNL     1     -13.399  12.373  64.444  1.00  0.00    -0.789 OA 
HETATM   14  C   UNL     1     -10.542  13.800  66.238  1.00  0.00    -0.289 A  
HETATM   15  H   UNL     1     -13.667  11.542  64.070  1.00  0.00     0.000 HD 
HETATM   16  C   UNL     1     -10.139  11.480  65.786  1.00  0.00    -0.278 A  
HETATM   17  S   UNL     1      -9.889  15.192  66.965  1.00  0.00    -0.234 SA 
HETATM   18  C   UNL     1     -11.806  13.719  65.620  1.00  0.00    -0.383 A  
HETATM   19  C   UNL     1     -12.197  12.505  65.073  1.00  0.00    -0.456 A  
BRANCH  10  20
HETATM   20  C   UNL     1      -7.338  12.143  67.291  1.00  0.00    -0.149 C  
HETATM   21  O   UNL     1      -6.252  12.271  66.725  1.00  0.00    -0.185 OA 
BRANCH  20  22
HETATM   22  C   UNL     1      -7.470  11.013  68.263  1.00  0.00    -0.092 A  
HETATM   23  C   UNL     1      -7.374   8.958  70.220  1.00  0.00    -0.067 A  
HETATM   24  C   UNL     1      -7.996   8.734  68.987  1.00  0.00    -0.111 A  
HETATM   25  C   UNL     1      -6.879  11.229  69.510  1.00  0.00    -0.115 A  
HETATM   26  C   UNL     1      -8.044   9.756  68.008  1.00  0.00    -0.105 A  
HETATM   27  C   UNL     1      -6.808  10.210  70.461  1.00  0.00    -0.084 A  
BRANCH  23  28
HETATM   28  O   UNL     1      -7.360   7.919  71.143  1.00  0.00    -0.059 OA 
BRANCH  28  29
HETATM   29  C   UNL     1      -8.589   7.174  71.119  1.00  0.00    -0.129 C  
BRANCH  29  30
HETATM   30  C   UNL     1      -9.619   7.459  72.228  1.00  0.00    -0.151 C  
BRANCH  30  31
HETATM   31  N   UNL     1     -10.989   7.073  71.787  1.00  0.00    -0.231 NA 
HETATM   32  C   UNL     1     -12.079   7.776  72.487  1.00  0.00    -0.202 C  
HETATM   33  C   UNL     1     -12.037   9.280  72.236  1.00  0.00    -0.262 C  
HETATM   34  C   UNL     1     -12.226   9.550  70.748  1.00  0.00    -0.269 C  
HETATM   35  C   UNL     1     -11.307   8.688  69.874  1.00  0.00     0.043 C  
HETATM   36  C   UNL     1     -11.192   7.230  70.339  1.00  0.00    -0.276 C  
ENDBRANCH  30  31
ENDBRANCH  29  30
ENDBRANCH  28  29
ENDBRANCH  23  28
ENDBRANCH  20  22
ENDBRANCH  10  20
ENDBRANCH   6   9
TORSDOF 7
ENDMDL
MODEL      160
REMARK 921   NORMALIZED FREE ENERGY PREDICTED BY IDOCK:   -4.39 KCAL/MOL
REMARK 922        TOTAL FREE ENERGY PREDICTED BY IDOCK:   -8.26 KCAL/MOL
REMARK 923 INTER-LIGAND FREE ENERGY PREDICTED BY IDOCK:   -6.48 KCAL/MOL
REMARK 924 INTRA-LIGAND FREE ENERGY PREDICTED BY IDOCK:   -1.78 KCAL/MOL
REMARK 927      BINDING AFFINITY PREDICTED BY RF-SCORE:    0.00 PKD
ROOT
HETATM    1  O   UNL     1      -6.135  15.686  69.593  1.00  0.00    -0.140 OA 
HETATM    2  H   UNL     1      -6.268  16.455  69.052  1.00  0.00     0.000 HD 
HETATM    3  C   UNL     1      -6.425  14.433  69.143  1.00  0.00    -0.107 A  
HETATM    4  C   UNL     1      -6.230  13.307  69.933  1.00  0.00    -0.097 A  
HETATM    5  C   UNL     1      -6.486  12.031  69.407  1.00  0.00    -0.115 A  
HETATM    6  C   UNL     1      -6.957  11.862  68.094  1.00  0.00    -0.078 A  
HETATM    7  C   UNL     1      -7.202  13.031  67.346  1.00  0.00    -0.123 A  
HETATM    8  C   UNL     1      -6.922  14.306  67.861  1.00  0.00    -0.174 A  
ENDROOT
BRANCH   6   9
HETATM    9  C   UNL     1      -7.124  10.510  67.477  1.00  0.00    -0.089 A  
HETATM   10  C   UNL     1      -8.213   9.633  67.358  1.00  0.00    -0.114 A  
HETATM   11  C   UNL     1      -8.097   6.296  65.402  1.00  0.00    -0.131 A  
HETATM   12  C   UNL     1      -7.874   8.437  66.588  1.00  0.00    -0.093 A  
HETATM   13  O   UNL     1      -6.232   5.254  64.419  1.00  0.00    -0.022 OA 
HETATM   14  C   UNL     1      -6.523   8.413  66.250  1.00  0.00    -0.054 A  
HETATM   15  H   UNL     1      -6.785   4.532  64.146  1.00  0.00     0.000 HD 
HETATM   16  C   UNL     1      -8.670   7.353  66.116  1.00  0.00    -0.172 A  
HETATM   17  S   UNL     1      -5.704   9.788  66.824  1.00  0.00    -0.051 SA 
HETATM   18  C   UNL     1      -5.938   7.363  65.515  1.00  0.00    -0.038 A  
HETATM   19  C   UNL     1      -6.747   6.308  65.115  1.00  0.00    -0.047 A  
BRANCH  10  20
HETATM   20  C   UNL     1      -9.562   9.971  67.820  1.00  0.00    -0.148 C  
HETATM   21  O   UNL     1     -10.280   9.101  68.314  1.00  0.00    -0.190 OA 
BRANCH  20  22
HETATM   22  C   UNL     1     -10.131  11.351  67.725  1.00  0.00    -0.198 A  
HETATM   23  C   UNL     1     -11.438  13.869  67.826  1.00  0.00    -0.323 A  
HETATM   24  C   UNL     1     -11.060  13.316  66.598  1.00  0.00    -0.311 A  
HETATM   25  C   UNL     1     -10.490  11.931  68.944  1.00  0.00    -0.164 A  
HETATM   26  C   UNL     1     -10.409  12.060  66.544  1.00  0.00    -0.240 A  
HETATM   27  C   UNL     1     -11.157  13.156  68.991  1.00  0.00    -0.282 A  
BRANCH  23  28
HETATM   28  O   UNL     1     -12.072  15.107  67.818  1.00  0.00    -0.157 OA 
BRANCH  28  29
HETATM   29  C   UNL     1     -11.268  16.115  68.453  1.00  0.00    -0.358 C  
BRANCH  29  30
HETATM   30  C   UNL     1     -10.546  17.129  67.547  1.00  0.00    -0.323 C  
BRANCH  30  31
HETATM   31  N   UNL     1      -9.720  18.068  68.357  1.00  0.00    -0.326 NA 
HETATM   32  C   UNL     1      -8.264  17.872  68.228  1.00  0.00    -0.290 C  
HETATM   33  C   UNL     1      -7.783  18.117  66.801  1.00  0.00    -0.249 C  
HETATM   34  C   UNL     1      -8.067  19.563  66.413  1.00  0.00    -0.331 C  
HETATM   35  C   UNL     1      -9.507  19.984  66.727  1.00  0.00    -0.530 C  
HETATM   36  C   UNL     1     -10.022  19.481  68.083  1.00  0.00    -0.418 C  
ENDBRANCH  30  31
ENDBRANCH  29  30
ENDBRANCH  28  29
ENDBRANCH  23  28
ENDBRANCH  20  22
ENDBRANCH  10  20
ENDBRANCH   6   9
TORSDOF 7
ENDMDL
MODEL      161
REMARK 921   NORMALIZED FREE ENERGY PREDICTED BY IDOCK:   -4.38 KCAL/MOL
REMARK 922        TOTAL FREE ENERGY PREDICTED BY IDOCK:   -8.25 KCAL/MOL
REMARK 923 INTER-LIGAND FREE ENERGY PREDICTED BY IDOCK:   -5.97 KCAL/MOL
REMARK 924 INTRA-LIGAND FREE ENERGY PREDICTED BY IDOCK:   -2.28 KCAL/MOL
REMARK 927      BINDING AFFINITY PREDICTED BY RF-SCORE:    0.00 PKD
ROOT
HETATM    1  O   UNL     1     -11.009   4.863  67.047  1.00  0.00    -0.120 OA 
HETATM    2  H   UNL     1     -10.869   4.516  66.174  1.00  0.00     0.000 HD 
HETATM    3  C   UNL     1     -10.778   6.171  67.347  1.00  0.00    -0.322 A  
HETATM    4  C   UNL     1     -10.983   6.679  68.623  1.00  0.00    -0.317 A  
HETATM    5  C   UNL     1     -10.789   8.047  68.872  1.00  0.00    -0.001 A  
HETATM    6  C   UNL     1     -10.371   8.922  67.854  1.00  0.00    -0.286 A  
HETATM    7  C   UNL     1     -10.112   8.358  66.590  1.00  0.00    -0.358 A  
HETATM    8  C   UNL     1     -10.331   6.997  66.333  1.00  0.00     0.045 A  
ENDROOT
BRANCH   6   9
HETATM    9  C   UNL     1     -10.271  10.399  68.069  1.00  0.00    -0.169 A  
HETATM   10  C   UNL     1      -9.190  11.279  68.233  1.00  0.00    -0.176 A  
HETATM   11  C   UNL     1      -9.554  15.120  68.521  1.00  0.00    -0.214 A  
HETATM   12  C   UNL     1      -9.625  12.670  68.342  1.00  0.00    -0.173 A  
HETATM   13  O   UNL     1     -11.531  16.383  68.685  1.00  0.00    -0.349 OA 
HETATM   14  C   UNL     1     -11.015  12.772  68.359  1.00  0.00    -0.254 A  
HETATM   15  H   UNL     1     -11.013  17.177  68.749  1.00  0.00     0.000 HD 
HETATM   16  C   UNL     1      -8.895  13.893  68.396  1.00  0.00    -0.177 A  
HETATM   17  S   UNL     1     -11.760  11.248  68.232  1.00  0.00    -0.229 SA 
HETATM   18  C   UNL     1     -11.689  14.004  68.465  1.00  0.00    -0.387 A  
HETATM   19  C   UNL     1     -10.933  15.164  68.559  1.00  0.00    -0.262 A  
BRANCH  10  20
HETATM   20  C   UNL     1      -7.793  10.848  68.144  1.00  0.00    -0.114 C  
HETATM   21  O   UNL     1      -7.044  11.353  67.306  1.00  0.00    -0.102 OA 
BRANCH  20  22
HETATM   22  C   UNL     1      -7.206   9.803  69.039  1.00  0.00    -0.076 A  
HETATM   23  C   UNL     1      -6.283   7.571  70.531  1.00  0.00    -0.038 A  
HETATM   24  C   UNL     1      -6.586   8.776  71.173  1.00  0.00    -0.071 A  
HETATM   25  C   UNL     1      -6.872   8.602  68.410  1.00  0.00    -0.065 A  
HETATM   26  C   UNL     1      -7.048   9.890  70.432  1.00  0.00    -0.146 A  
HETATM   27  C   UNL     1      -6.445   7.496  69.148  1.00  0.00    -0.040 A  
BRANCH  23  28
HETATM   28  O   UNL     1      -5.831   6.511  71.309  1.00  0.00    -0.027 OA 
BRANCH  28  29
HETATM   29  C   UNL     1      -6.812   5.463  71.394  1.00  0.00    -0.057 C  
BRANCH  29  30
HETATM   30  C   UNL     1      -7.929   5.614  72.443  1.00  0.00    -0.103 C  
BRANCH  30  31
HETATM   31  N   UNL     1      -9.261   5.720  71.785  1.00  0.00    -0.145 NA 
HETATM   32  C   UNL     1      -9.853   4.429  71.387  1.00  0.00    -0.192 C  
HETATM   33  C   UNL     1     -10.123   3.534  72.592  1.00  0.00    -0.234 C  
HETATM   34  C   UNL     1     -11.131   4.214  73.512  1.00  0.00    -0.359 C  
HETATM   35  C   UNL     1     -10.760   5.670  73.816  1.00  0.00    -0.277 C  
HETATM   36  C   UNL     1     -10.246   6.449  72.597  1.00  0.00    -0.182 C  
ENDBRANCH  30  31
ENDBRANCH  29  30
ENDBRANCH  28  29
ENDBRANCH  23  28
ENDBRANCH  20  22
ENDBRANCH  10  20
ENDBRANCH   6   9
TORSDOF 7
ENDMDL
MODEL      162
REMARK 921   NORMALIZED FREE ENERGY PREDICTED BY IDOCK:   -4.37 KCAL/MOL
REMARK 922        TOTAL FREE ENERGY PREDICTED BY IDOCK:   -8.23 KCAL/MOL
REMARK 923 INTER-LIGAND FREE ENERGY PREDICTED BY IDOCK:   -6.67 KCAL/MOL
REMARK 924 INTRA-LIGAND FREE ENERGY PREDICTED BY IDOCK:   -1.57 KCAL/MOL
REMARK 927      BINDING AFFINITY PREDICTED BY RF-SCORE:    0.00 PKD
ROOT
HETATM    1  O   UNL     1     -11.917  13.470  67.252  1.00  0.00    -0.370 OA 
HETATM    2  H   UNL     1     -11.893  13.455  66.302  1.00  0.00     0.000 HD 
HETATM    3  C   UNL     1     -11.734  12.343  67.994  1.00  0.00    -0.356 A  
HETATM    4  C   UNL     1     -11.768  12.365  69.382  1.00  0.00    -0.384 A  
HETATM    5  C   UNL     1     -11.514  11.190  70.107  1.00  0.00    -0.361 A  
HETATM    6  C   UNL     1     -11.241   9.975  69.457  1.00  0.00    -0.254 A  
HETATM    7  C   UNL     1     -11.278   9.979  68.048  1.00  0.00    -0.190 A  
HETATM    8  C   UNL     1     -11.505  11.158  67.322  1.00  0.00    -0.218 A  
ENDROOT
BRANCH   6   9
HETATM    9  C   UNL     1     -10.854   8.742  70.208  1.00  0.00    -0.231 A  
HETATM   10  C   UNL     1      -9.837   7.789  70.039  1.00  0.00    -0.181 A  
HETATM   11  C   UNL     1      -9.172   4.878  72.501  1.00  0.00    -0.148 A  
HETATM   12  C   UNL     1      -9.837   6.789  71.107  1.00  0.00    -0.188 A  
HETATM   13  O   UNL     1     -10.455   4.228  74.361  1.00  0.00    -0.225 OA 
HETATM   14  C   UNL     1     -10.913   6.968  71.974  1.00  0.00    -0.232 A  
HETATM   15  H   UNL     1      -9.853   3.510  74.520  1.00  0.00     0.000 HD 
HETATM   16  C   UNL     1      -8.939   5.726  71.414  1.00  0.00    -0.147 A  
HETATM   17  S   UNL     1     -11.870   8.300  71.526  1.00  0.00    -0.307 SA 
HETATM   18  C   UNL     1     -11.146   6.131  73.083  1.00  0.00    -0.214 A  
HETATM   19  C   UNL     1     -10.267   5.083  73.316  1.00  0.00    -0.174 A  
BRANCH  10  20
HETATM   20  C   UNL     1      -8.811   7.895  68.999  1.00  0.00    -0.145 C  
HETATM   21  O   UNL     1      -8.572   6.933  68.268  1.00  0.00    -0.125 OA 
BRANCH  20  22
HETATM   22  C   UNL     1      -8.017   9.141  68.767  1.00  0.00    -0.100 A  
HETATM   23  C   UNL     1      -6.669  11.637  68.639  1.00  0.00    -0.074 A  
HETATM   24  C   UNL     1      -7.121  11.015  67.471  1.00  0.00    -0.091 A  
HETATM   25  C   UNL     1      -7.534   9.762  69.921  1.00  0.00    -0.142 A  
HETATM   26  C   UNL     1      -7.795   9.771  67.531  1.00  0.00    -0.095 A  
HETATM   27  C   UNL     1      -6.897  11.002  69.860  1.00  0.00    -0.097 A  
BRANCH  23  28
HETATM   28  O   UNL     1      -6.012  12.856  68.519  1.00  0.00    -0.061 OA 
BRANCH  28  29
HETATM   29  C   UNL     1      -6.920  13.912  68.163  1.00  0.00    -0.120 C  
BRANCH  29  30
HETATM   30  C   UNL     1      -6.644  15.315  68.735  1.00  0.00    -0.102 C  
BRANCH  30  31
HETATM   31  N   UNL     1      -6.577  16.328  67.644  1.00  0.00    -0.134 NA 
HETATM   32  C   UNL     1      -7.721  16.302  66.714  1.00  0.00    -0.260 C  
HETATM   33  C   UNL     1      -9.034  16.626  67.420  1.00  0.00    -0.204 C  
HETATM   34  C   UNL     1      -8.966  18.037  67.992  1.00  0.00    -0.274 C  
HETATM   35  C   UNL     1      -7.683  18.284  68.794  1.00  0.00    -0.286 C  
HETATM   36  C   UNL     1      -6.420  17.701  68.145  1.00  0.00    -0.177 C  
ENDBRANCH  30  31
ENDBRANCH  29  30
ENDBRANCH  28  29
ENDBRANCH  23  28
ENDBRANCH  20  22
ENDBRANCH  10  20
ENDBRANCH   6   9
TORSDOF 7
ENDMDL
MODEL      163
REMARK 921   NORMALIZED FREE ENERGY PREDICTED BY IDOCK:   -4.35 KCAL/MOL
REMARK 922        TOTAL FREE ENERGY PREDICTED BY IDOCK:   -8.20 KCAL/MOL
REMARK 923 INTER-LIGAND FREE ENERGY PREDICTED BY IDOCK:   -6.36 KCAL/MOL
REMARK 924 INTRA-LIGAND FREE ENERGY PREDICTED BY IDOCK:   -1.85 KCAL/MOL
REMARK 927      BINDING AFFINITY PREDICTED BY RF-SCORE:    0.00 PKD
ROOT
HETATM    1  O   UNL     1      -6.594  12.782  70.506  1.00  0.00    -0.406 OA 
HETATM    2  H   UNL     1      -7.119  12.710  71.295  1.00  0.00     0.000 HD 
HETATM    3  C   UNL     1      -6.588  11.807  69.555  1.00  0.00    -0.102 A  
HETATM    4  C   UNL     1      -5.821  11.912  68.402  1.00  0.00    -0.049 A  
HETATM    5  C   UNL     1      -5.892  10.910  67.420  1.00  0.00    -0.046 A  
HETATM    6  C   UNL     1      -6.715   9.783  67.586  1.00  0.00    -0.069 A  
HETATM    7  C   UNL     1      -7.428   9.681  68.796  1.00  0.00    -0.075 A  
HETATM    8  C   UNL     1      -7.378  10.694  69.766  1.00  0.00    -0.115 A  
ENDROOT
BRANCH   6   9
HETATM    9  C   UNL     1      -6.893   8.766  66.504  1.00  0.00    -0.072 A  
HETATM   10  C   UNL     1      -7.624   8.751  65.306  1.00  0.00    -0.091 A  
HETATM   11  C   UNL     1      -7.506   5.859  62.738  1.00  0.00    -0.061 A  
HETATM   12  C   UNL     1      -7.408   7.521  64.545  1.00  0.00    -0.087 A  
HETATM   13  O   UNL     1      -6.442   3.772  62.949  1.00  0.00    -0.021 OA 
HETATM   14  C   UNL     1      -6.610   6.620  65.246  1.00  0.00    -0.050 A  
HETATM   15  H   UNL     1      -6.767   3.524  62.091  1.00  0.00     0.000 HD 
HETATM   16  C   UNL     1      -7.833   7.120  63.246  1.00  0.00    -0.114 A  
HETATM   17  S   UNL     1      -6.127   7.244  66.753  1.00  0.00    -0.043 SA 
HETATM   18  C   UNL     1      -6.258   5.354  64.737  1.00  0.00    -0.029 A  
HETATM   19  C   UNL     1      -6.733   4.992  63.484  1.00  0.00    -0.037 A  
BRANCH  10  20
HETATM   20  C   UNL     1      -8.381   9.907  64.820  1.00  0.00    -0.160 C  
HETATM   21  O   UNL     1      -8.325  10.226  63.632  1.00  0.00    -0.161 OA 
BRANCH  20  22
HETATM   22  C   UNL     1      -9.243  10.745  65.711  1.00  0.00    -0.215 A  
HETATM   23  C   UNL     1     -11.166  12.125  67.279  1.00  0.00    -0.306 A  
HETATM   24  C   UNL     1     -10.112  12.820  66.677  1.00  0.00    -0.248 A  
HETATM   25  C   UNL     1     -10.285  10.063  66.342  1.00  0.00    -0.290 A  
HETATM   26  C   UNL     1      -9.152  12.135  65.893  1.00  0.00    -0.001 A  
HETATM   27  C   UNL     1     -11.246  10.745  67.090  1.00  0.00    -0.222 A  
BRANCH  23  28
HETATM   28  O   UNL     1     -12.077  12.849  68.039  1.00  0.00    -0.311 OA 
BRANCH  28  29
HETATM   29  C   UNL     1     -11.857  12.661  69.447  1.00  0.00    -0.296 C  
BRANCH  29  30
HETATM   30  C   UNL     1     -11.448  13.892  70.277  1.00  0.00    -0.056 C  
BRANCH  30  31
HETATM   31  N   UNL     1     -12.627  14.763  70.546  1.00  0.00    -0.350 NA 
HETATM   32  C   UNL     1     -13.714  14.108  71.295  1.00  0.00    -0.211 C  
HETATM   33  C   UNL     1     -13.265  13.678  72.688  1.00  0.00    -0.533 C  
HETATM   34  C   UNL     1     -12.859  14.908  73.491  1.00  0.00    -0.594 C  
HETATM   35  C   UNL     1     -11.901  15.823  72.720  1.00  0.00    -0.584 C  
HETATM   36  C   UNL     1     -12.272  16.009  71.242  1.00  0.00    -0.350 C  
ENDBRANCH  30  31
ENDBRANCH  29  30
ENDBRANCH  28  29
ENDBRANCH  23  28
ENDBRANCH  20  22
ENDBRANCH  10  20
ENDBRANCH   6   9
TORSDOF 7
ENDMDL
MODEL      164
REMARK 921   NORMALIZED FREE ENERGY PREDICTED BY IDOCK:   -4.33 KCAL/MOL
REMARK 922        TOTAL FREE ENERGY PREDICTED BY IDOCK:   -8.18 KCAL/MOL
REMARK 923 INTER-LIGAND FREE ENERGY PREDICTED BY IDOCK:   -6.90 KCAL/MOL
REMARK 924 INTRA-LIGAND FREE ENERGY PREDICTED BY IDOCK:   -1.28 KCAL/MOL
REMARK 927      BINDING AFFINITY PREDICTED BY RF-SCORE:    0.00 PKD
ROOT
HETATM    1  O   UNL     1      -5.210  10.438  64.940  1.00  0.00    -0.097 OA 
HETATM    2  H   UNL     1      -4.297  10.673  65.054  1.00  0.00     0.000 HD 
HETATM    3  C   UNL     1      -6.188  10.941  65.744  1.00  0.00    -0.059 A  
HETATM    4  C   UNL     1      -7.523  10.598  65.578  1.00  0.00    -0.063 A  
HETATM    5  C   UNL     1      -8.504  11.187  66.392  1.00  0.00    -0.167 A  
HETATM    6  C   UNL     1      -8.162  12.112  67.394  1.00  0.00    -0.175 A  
HETATM    7  C   UNL     1      -6.792  12.385  67.574  1.00  0.00    -0.143 A  
HETATM    8  C   UNL     1      -5.814  11.817  66.745  1.00  0.00    -0.110 A  
ENDROOT
BRANCH   6   9
HETATM    9  C   UNL     1      -9.199  12.836  68.192  1.00  0.00    -0.212 A  
HETATM   10  C   UNL     1     -10.534  12.554  68.521  1.00  0.00    -0.246 A  
HETATM   11  C   UNL     1     -12.691  14.745  70.871  1.00  0.00    -0.405 A  
HETATM   12  C   UNL     1     -11.109  13.567  69.405  1.00  0.00    -0.173 A  
HETATM   13  O   UNL     1     -12.153  16.833  71.808  1.00  0.00    -0.451 OA 
HETATM   14  C   UNL     1     -10.222  14.620  69.620  1.00  0.00     0.044 A  
HETATM   15  H   UNL     1     -13.008  16.864  72.221  1.00  0.00     0.000 HD 
HETATM   16  C   UNL     1     -12.361  13.639  70.081  1.00  0.00    -0.372 A  
HETATM   17  S   UNL     1      -8.750  14.383  68.802  1.00  0.00    -0.078 SA 
HETATM   18  C   UNL     1     -10.536  15.730  70.428  1.00  0.00    -0.245 A  
HETATM   19  C   UNL     1     -11.786  15.774  71.032  1.00  0.00    -0.422 A  
BRANCH  10  20
HETATM   20  C   UNL     1     -11.200  11.306  68.142  1.00  0.00    -0.286 C  
HETATM   21  O   UNL     1     -11.683  11.181  67.016  1.00  0.00    -0.460 OA 
BRANCH  20  22
HETATM   22  C   UNL     1     -11.329  10.140  69.072  1.00  0.00    -0.188 A  
HETATM   23  C   UNL     1     -11.562   8.181  71.114  1.00  0.00    -0.279 A  
HETATM   24  C   UNL     1     -10.807   7.922  69.965  1.00  0.00    -0.238 A  
HETATM   25  C   UNL     1     -12.103  10.372  70.212  1.00  0.00    -0.370 A  
HETATM   26  C   UNL     1     -10.687   8.897  68.946  1.00  0.00    -0.132 A  
HETATM   27  C   UNL     1     -12.194   9.419  71.228  1.00  0.00    -0.425 A  
BRANCH  23  28
HETATM   28  O   UNL     1     -11.646   7.186  72.080  1.00  0.00    -0.266 OA 
BRANCH  28  29
HETATM   29  C   UNL     1     -10.787   7.463  73.199  1.00  0.00    -0.386 C  
BRANCH  29  30
HETATM   30  C   UNL     1      -9.505   6.622  73.342  1.00  0.00    -0.144 C  
BRANCH  30  31
HETATM   31  N   UNL     1      -8.435   7.402  74.024  1.00  0.00    -0.178 NA 
HETATM   32  C   UNL     1      -7.208   6.637  74.312  1.00  0.00    -0.094 C  
HETATM   33  C   UNL     1      -6.531   6.148  73.035  1.00  0.00    -0.064 C  
HETATM   34  C   UNL     1      -6.113   7.347  72.193  1.00  0.00    -0.040 C  
HETATM   35  C   UNL     1      -7.246   8.365  72.016  1.00  0.00    -0.114 C  
HETATM   36  C   UNL     1      -8.058   8.621  73.293  1.00  0.00     0.134 C  
ENDBRANCH  30  31
ENDBRANCH  29  30
ENDBRANCH  28  29
ENDBRANCH  23  28
ENDBRANCH  20  22
ENDBRANCH  10  20
ENDBRANCH   6   9
TORSDOF 7
ENDMDL
MODEL      165
REMARK 921   NORMALIZED FREE ENERGY PREDICTED BY IDOCK:   -4.33 KCAL/MOL
REMARK 922        TOTAL FREE ENERGY PREDICTED BY IDOCK:   -8.18 KCAL/MOL
REMARK 923 INTER-LIGAND FREE ENERGY PREDICTED BY IDOCK:   -6.33 KCAL/MOL
REMARK 924 INTRA-LIGAND FREE ENERGY PREDICTED BY IDOCK:   -1.85 KCAL/MOL
REMARK 927      BINDING AFFINITY PREDICTED BY RF-SCORE:    0.00 PKD
ROOT
HETATM    1  O   UNL     1      -5.168  10.855  69.944  1.00  0.00    -0.041 OA 
HETATM    2  H   UNL     1      -4.714  10.898  70.777  1.00  0.00     0.000 HD 
HETATM    3  C   UNL     1      -5.940  11.883  69.492  1.00  0.00    -0.098 A  
HETATM    4  C   UNL     1      -6.604  11.821  68.274  1.00  0.00    -0.056 A  
HETATM    5  C   UNL     1      -7.339  12.927  67.821  1.00  0.00    -0.134 A  
HETATM    6  C   UNL     1      -7.437  14.103  68.586  1.00  0.00    -0.125 A  
HETATM    7  C   UNL     1      -6.803  14.103  69.844  1.00  0.00     0.025 A  
HETATM    8  C   UNL     1      -6.046  13.008  70.286  1.00  0.00    -0.071 A  
ENDROOT
BRANCH   6   9
HETATM    9  C   UNL     1      -8.117  15.331  68.071  1.00  0.00    -0.137 A  
HETATM   10  C   UNL     1      -9.456  15.748  68.035  1.00  0.00    -0.202 A  
HETATM   11  C   UNL     1     -10.606  19.216  66.760  1.00  0.00    -0.528 A  
HETATM   12  C   UNL     1      -9.598  17.093  67.479  1.00  0.00    -0.254 A  
HETATM   13  O   UNL     1      -9.313  20.883  65.721  1.00  0.00    -0.094 OA 
HETATM   14  C   UNL     1      -8.379  17.590  67.024  1.00  0.00    -0.219 A  
HETATM   15  H   UNL     1     -10.089  21.423  65.630  1.00  0.00     0.000 HD 
HETATM   16  C   UNL     1     -10.724  17.959  67.359  1.00  0.00    -0.306 A  
HETATM   17  S   UNL     1      -7.113  16.483  67.277  1.00  0.00    -0.191 SA 
HETATM   18  C   UNL     1      -8.244  18.863  66.436  1.00  0.00    -0.306 A  
HETATM   19  C   UNL     1      -9.378  19.651  66.302  1.00  0.00    -0.383 A  
BRANCH  10  20
HETATM   20  C   UNL     1     -10.547  14.977  68.636  1.00  0.00    -0.237 C  
HETATM   21  O   UNL     1     -11.314  15.514  69.437  1.00  0.00    -0.271 OA 
BRANCH  20  22
HETATM   22  C   UNL     1     -10.790  13.535  68.322  1.00  0.00    -0.277 A  
HETATM   23  C   UNL     1     -11.072  10.723  68.046  1.00  0.00    -0.299 A  
HETATM   24  C   UNL     1     -10.830  11.524  66.926  1.00  0.00    -0.331 A  
HETATM   25  C   UNL     1     -11.061  12.724  69.426  1.00  0.00    -0.129 A  
HETATM   26  C   UNL     1     -10.687  12.927  67.060  1.00  0.00    -0.273 A  
HETATM   27  C   UNL     1     -11.171  11.339  69.294  1.00  0.00    -0.336 A  
BRANCH  23  28
HETATM   28  O   UNL     1     -11.205   9.353  67.854  1.00  0.00    -0.043 OA 
BRANCH  28  29
HETATM   29  C   UNL     1     -10.352   8.610  68.742  1.00  0.00    -0.208 C  
BRANCH  29  30
HETATM   30  C   UNL     1      -9.524   7.460  68.140  1.00  0.00    -0.138 C  
BRANCH  30  31
HETATM   31  N   UNL     1      -9.715   7.388  66.663  1.00  0.00    -0.203 NA 
HETATM   32  C   UNL     1      -8.792   8.233  65.884  1.00  0.00    -0.160 C  
HETATM   33  C   UNL     1      -7.339   7.812  66.075  1.00  0.00    -0.074 C  
HETATM   34  C   UNL     1      -7.155   6.385  65.573  1.00  0.00    -0.065 C  
HETATM   35  C   UNL     1      -8.218   5.427  66.123  1.00  0.00    -0.111 C  
HETATM   36  C   UNL     1      -9.636   6.015  66.141  1.00  0.00    -0.055 C  
ENDBRANCH  30  31
ENDBRANCH  29  30
ENDBRANCH  28  29
ENDBRANCH  23  28
ENDBRANCH  20  22
ENDBRANCH  10  20
ENDBRANCH   6   9
TORSDOF 7
ENDMDL
MODEL      166
REMARK 921   NORMALIZED FREE ENERGY PREDICTED BY IDOCK:   -4.32 KCAL/MOL
REMARK 922        TOTAL FREE ENERGY PREDICTED BY IDOCK:   -8.16 KCAL/MOL
REMARK 923 INTER-LIGAND FREE ENERGY PREDICTED BY IDOCK:   -6.93 KCAL/MOL
REMARK 924 INTRA-LIGAND FREE ENERGY PREDICTED BY IDOCK:   -1.23 KCAL/MOL
REMARK 927      BINDING AFFINITY PREDICTED BY RF-SCORE:    0.00 PKD
ROOT
HETATM    1  O   UNL     1     -13.612  10.372  72.380  1.00  0.00    -0.593 OA 
HETATM    2  H   UNL     1     -14.200  10.713  73.043  1.00  0.00     0.000 HD 
HETATM    3  C   UNL     1     -12.958  11.190  71.509  1.00  0.00    -0.437 A  
HETATM    4  C   UNL     1     -12.098  10.691  70.539  1.00  0.00    -0.448 A  
HETATM    5  C   UNL     1     -11.398  11.575  69.702  1.00  0.00    -0.329 A  
HETATM    6  C   UNL     1     -11.561  12.967  69.811  1.00  0.00    -0.288 A  
HETATM    7  C   UNL     1     -12.489  13.431  70.763  1.00  0.00    -0.418 A  
HETATM    8  C   UNL     1     -13.170  12.550  71.618  1.00  0.00    -0.381 A  
ENDROOT
BRANCH   6   9
HETATM    9  C   UNL     1     -10.740  13.927  69.011  1.00  0.00    -0.195 A  
HETATM   10  C   UNL     1      -9.875  13.776  67.916  1.00  0.00    -0.232 A  
HETATM   11  C   UNL     1      -8.178  16.728  66.078  1.00  0.00    -0.170 A  
HETATM   12  C   UNL     1      -9.359  15.059  67.441  1.00  0.00    -0.204 A  
HETATM   13  O   UNL     1      -8.188  19.005  66.669  1.00  0.00    -0.269 OA 
HETATM   14  C   UNL     1      -9.772  16.109  68.258  1.00  0.00    -0.220 A  
HETATM   15  H   UNL     1      -7.633  19.196  65.922  1.00  0.00     0.000 HD 
HETATM   16  C   UNL     1      -8.565  15.405  66.310  1.00  0.00    -0.148 A  
HETATM   17  S   UNL     1     -10.757  15.567  69.535  1.00  0.00    -0.296 SA 
HETATM   18  C   UNL     1      -9.404  17.449  68.024  1.00  0.00    -0.276 A  
HETATM   19  C   UNL     1      -8.593  17.730  66.933  1.00  0.00    -0.244 A  
BRANCH  10  20
HETATM   20  C   UNL     1      -9.656  12.492  67.246  1.00  0.00    -0.205 C  
HETATM   21  O   UNL     1     -10.287  12.212  66.226  1.00  0.00    -0.215 OA 
BRANCH  20  22
HETATM   22  C   UNL     1      -8.678  11.474  67.742  1.00  0.00    -0.142 A  
HETATM   23  C   UNL     1      -7.089   9.286  68.608  1.00  0.00    -0.070 A  
HETATM   24  C   UNL     1      -7.042  10.508  69.286  1.00  0.00    -0.097 A  
HETATM   25  C   UNL     1      -8.692  10.255  67.059  1.00  0.00    -0.133 A  
HETATM   26  C   UNL     1      -7.834  11.601  68.858  1.00  0.00    -0.040 A  
HETATM   27  C   UNL     1      -7.931   9.171  67.502  1.00  0.00    -0.100 A  
BRANCH  23  28
HETATM   28  O   UNL     1      -6.288   8.249  69.072  1.00  0.00    -0.042 OA 
BRANCH  28  29
HETATM   29  C   UNL     1      -7.076   7.149  69.558  1.00  0.00    -0.071 C  
BRANCH  29  30
HETATM   30  C   UNL     1      -7.243   5.928  68.635  1.00  0.00    -0.083 C  
BRANCH  30  31
HETATM   31  N   UNL     1      -8.640   5.413  68.688  1.00  0.00    -0.095 NA 
HETATM   32  C   UNL     1      -9.172   4.949  67.394  1.00  0.00    -0.125 C  
HETATM   33  C   UNL     1      -8.379   3.767  66.846  1.00  0.00    -0.100 C  
HETATM   34  C   UNL     1      -8.488   2.592  67.812  1.00  0.00    -0.104 C  
HETATM   35  C   UNL     1      -8.195   2.995  69.262  1.00  0.00    -0.077 C  
HETATM   36  C   UNL     1      -8.818   4.336  69.674  1.00  0.00    -0.086 C  
ENDBRANCH  30  31
ENDBRANCH  29  30
ENDBRANCH  28  29
ENDBRANCH  23  28
ENDBRANCH  20  22
ENDBRANCH  10  20
ENDBRANCH   6   9
TORSDOF 7
ENDMDL
MODEL      167
REMARK 921   NORMALIZED FREE ENERGY PREDICTED BY IDOCK:   -4.31 KCAL/MOL
REMARK 922        TOTAL FREE ENERGY PREDICTED BY IDOCK:   -8.15 KCAL/MOL
REMARK 923 INTER-LIGAND FREE ENERGY PREDICTED BY IDOCK:   -6.85 KCAL/MOL
REMARK 924 INTRA-LIGAND FREE ENERGY PREDICTED BY IDOCK:   -1.31 KCAL/MOL
REMARK 927      BINDING AFFINITY PREDICTED BY RF-SCORE:    0.00 PKD
ROOT
HETATM    1  O   UNL     1      -6.083  16.469  68.201  1.00  0.00    -0.114 OA 
HETATM    2  H   UNL     1      -5.348  16.573  67.608  1.00  0.00     0.000 HD 
HETATM    3  C   UNL     1      -6.771  15.298  68.296  1.00  0.00    -0.121 A  
HETATM    4  C   UNL     1      -7.846  15.146  69.163  1.00  0.00    -0.199 A  
HETATM    5  C   UNL     1      -8.488  13.902  69.270  1.00  0.00     0.468 A  
HETATM    6  C   UNL     1      -8.078  12.799  68.501  1.00  0.00    -0.080 A  
HETATM    7  C   UNL     1      -7.027  13.010  67.587  1.00  0.00    -0.154 A  
HETATM    8  C   UNL     1      -6.367  14.245  67.497  1.00  0.00    -0.028 A  
ENDROOT
BRANCH   6   9
HETATM    9  C   UNL     1      -8.671  11.439  68.685  1.00  0.00    -0.121 A  
HETATM   10  C   UNL     1      -9.950  10.906  68.460  1.00  0.00    -0.188 A  
HETATM   11  C   UNL     1     -10.844   7.168  68.910  1.00  0.00    -0.160 A  
HETATM   12  C   UNL     1     -10.004   9.471  68.736  1.00  0.00    -0.185 A  
HETATM   13  O   UNL     1      -9.502   5.450  69.792  1.00  0.00    -0.138 OA 
HETATM   14  C   UNL     1      -8.798   9.004  69.254  1.00  0.00    -0.139 A  
HETATM   15  H   UNL     1     -10.218   4.837  69.676  1.00  0.00     0.000 HD 
HETATM   16  C   UNL     1     -11.032   8.504  68.541  1.00  0.00     0.142 A  
HETATM   17  S   UNL     1      -7.643  10.247  69.384  1.00  0.00    -0.151 SA 
HETATM   18  C   UNL     1      -8.591   7.658  69.612  1.00  0.00    -0.136 A  
HETATM   19  C   UNL     1      -9.637   6.761  69.443  1.00  0.00    -0.146 A  
BRANCH  10  20
HETATM   20  C   UNL     1     -11.042  11.681  67.868  1.00  0.00    -0.247 C  
HETATM   21  O   UNL     1     -12.212  11.357  68.075  1.00  0.00    -0.607 OA 
BRANCH  20  22
HETATM   22  C   UNL     1     -10.811  12.880  67.003  1.00  0.00    -0.282 A  
HETATM   23  C   UNL     1     -10.684  15.297  65.518  1.00  0.00    -0.371 A  
HETATM   24  C   UNL     1     -10.328  14.081  64.925  1.00  0.00    -0.434 A  
HETATM   25  C   UNL     1     -11.136  14.106  67.588  1.00  0.00    -0.296 A  
HETATM   26  C   UNL     1     -10.392  12.874  65.662  1.00  0.00    -0.295 A  
HETATM   27  C   UNL     1     -11.100  15.290  66.850  1.00  0.00    -0.288 A  
BRANCH  23  28
HETATM   28  O   UNL     1     -10.600  16.450  64.747  1.00  0.00    -0.676 OA 
BRANCH  28  29
HETATM   29  C   UNL     1     -10.564  17.631  65.566  1.00  0.00    -0.068 C  
BRANCH  29  30
HETATM   30  C   UNL     1      -9.189  18.114  66.063  1.00  0.00     0.013 C  
BRANCH  30  31
HETATM   31  N   UNL     1      -9.258  19.534  66.511  1.00  0.00    -0.348 NA 
HETATM   32  C   UNL     1     -10.104  19.762  67.697  1.00  0.00    -0.417 C  
HETATM   33  C   UNL     1      -9.571  19.028  68.923  1.00  0.00    -0.417 C  
HETATM   34  C   UNL     1      -8.183  19.557  69.266  1.00  0.00    -0.041 C  
HETATM   35  C   UNL     1      -7.256  19.606  68.047  1.00  0.00    -0.321 C  
HETATM   36  C   UNL     1      -7.933  20.119  66.769  1.00  0.00    -0.302 C  
ENDBRANCH  30  31
ENDBRANCH  29  30
ENDBRANCH  28  29
ENDBRANCH  23  28
ENDBRANCH  20  22
ENDBRANCH  10  20
ENDBRANCH   6   9
TORSDOF 7
ENDMDL
MODEL      168
REMARK 921   NORMALIZED FREE ENERGY PREDICTED BY IDOCK:   -4.30 KCAL/MOL
REMARK 922        TOTAL FREE ENERGY PREDICTED BY IDOCK:   -8.14 KCAL/MOL
REMARK 923 INTER-LIGAND FREE ENERGY PREDICTED BY IDOCK:   -6.07 KCAL/MOL
REMARK 924 INTRA-LIGAND FREE ENERGY PREDICTED BY IDOCK:   -2.08 KCAL/MOL
REMARK 927      BINDING AFFINITY PREDICTED BY RF-SCORE:    0.00 PKD
ROOT
HETATM    1  O   UNL     1     -11.166   7.956  68.858  1.00  0.00    -0.404 OA 
HETATM    2  H   UNL     1     -11.348   7.705  69.755  1.00  0.00     0.000 HD 
HETATM    3  C   UNL     1     -10.907   9.248  68.511  1.00  0.00    -0.074 A  
HETATM    4  C   UNL     1     -10.640   9.616  67.199  1.00  0.00    -0.298 A  
HETATM    5  C   UNL     1     -10.319  10.949  66.897  1.00  0.00    -0.285 A  
HETATM    6  C   UNL     1     -10.278  11.935  67.898  1.00  0.00    -0.203 A  
HETATM    7  C   UNL     1     -10.617  11.535  69.206  1.00  0.00    -0.120 A  
HETATM    8  C   UNL     1     -10.912  10.199  69.513  1.00  0.00    -0.295 A  
ENDROOT
BRANCH   6   9
HETATM    9  C   UNL     1      -9.826  13.332  67.617  1.00  0.00    -0.230 A  
HETATM   10  C   UNL     1      -8.581  13.976  67.693  1.00  0.00    -0.188 A  
HETATM   11  C   UNL     1      -7.967  17.633  66.585  1.00  0.00    -0.285 A  
HETATM   12  C   UNL     1      -8.650  15.362  67.233  1.00  0.00    -0.216 A  
HETATM   13  O   UNL     1      -9.554  19.229  65.902  1.00  0.00    -0.429 OA 
HETATM   14  C   UNL     1      -9.957  15.736  66.929  1.00  0.00    -0.243 A  
HETATM   15  H   UNL     1      -8.860  19.869  65.800  1.00  0.00     0.000 HD 
HETATM   16  C   UNL     1      -7.640  16.345  67.021  1.00  0.00    -0.240 A  
HETATM   17  S   UNL     1     -11.052  14.457  67.173  1.00  0.00    -0.323 SA 
HETATM   18  C   UNL     1     -10.297  17.024  66.471  1.00  0.00    -0.298 A  
HETATM   19  C   UNL     1      -9.282  17.960  66.322  1.00  0.00    -0.185 A  
BRANCH  10  20
HETATM   20  C   UNL     1      -7.343  13.277  68.044  1.00  0.00    -0.127 C  
HETATM   21  O   UNL     1      -6.452  13.868  68.655  1.00  0.00    -0.081 OA 
BRANCH  20  22
HETATM   22  C   UNL     1      -7.093  11.844  67.694  1.00  0.00    -0.112 A  
HETATM   23  C   UNL     1      -6.401   9.113  67.336  1.00  0.00    -0.059 A  
HETATM   24  C   UNL     1      -6.530   9.962  66.232  1.00  0.00    -0.077 A  
HETATM   25  C   UNL     1      -6.988  10.975  68.783  1.00  0.00    -0.081 A  
HETATM   26  C   UNL     1      -6.873  11.325  66.407  1.00  0.00    -0.055 A  
HETATM   27  C   UNL     1      -6.621   9.640  68.608  1.00  0.00    -0.051 A  
BRANCH  23  28
HETATM   28  O   UNL     1      -6.065   7.785  67.103  1.00  0.00    -0.049 OA 
BRANCH  28  29
HETATM   29  C   UNL     1      -7.174   7.045  66.567  1.00  0.00    -0.082 C  
BRANCH  29  30
HETATM   30  C   UNL     1      -8.289   6.622  67.541  1.00  0.00    -0.121 C  
BRANCH  30  31
HETATM   31  N   UNL     1      -7.716   5.936  68.734  1.00  0.00    -0.090 NA 
HETATM   32  C   UNL     1      -8.683   5.678  69.816  1.00  0.00    -0.125 C  
HETATM   33  C   UNL     1      -9.798   4.738  69.368  1.00  0.00    -0.282 C  
HETATM   34  C   UNL     1      -9.200   3.390  68.983  1.00  0.00    -0.226 C  
HETATM   35  C   UNL     1      -8.004   3.527  68.034  1.00  0.00    -0.075 C  
HETATM   36  C   UNL     1      -7.046   4.670  68.400  1.00  0.00    -0.057 C  
ENDBRANCH  30  31
ENDBRANCH  29  30
ENDBRANCH  28  29
ENDBRANCH  23  28
ENDBRANCH  20  22
ENDBRANCH  10  20
ENDBRANCH   6   9
TORSDOF 7
ENDMDL
MODEL      169
REMARK 921   NORMALIZED FREE ENERGY PREDICTED BY IDOCK:   -4.27 KCAL/MOL
REMARK 922        TOTAL FREE ENERGY PREDICTED BY IDOCK:   -8.10 KCAL/MOL
REMARK 923 INTER-LIGAND FREE ENERGY PREDICTED BY IDOCK:   -6.30 KCAL/MOL
REMARK 924 INTRA-LIGAND FREE ENERGY PREDICTED BY IDOCK:   -1.80 KCAL/MOL
REMARK 927      BINDING AFFINITY PREDICTED BY RF-SCORE:    0.00 PKD
ROOT
HETATM    1  O   UNL     1      -9.265   6.712  73.389  1.00  0.00    -0.127 OA 
HETATM    2  H   UNL     1      -8.819   6.142  74.004  1.00  0.00     0.000 HD 
HETATM    3  C   UNL     1      -9.173   6.529  72.042  1.00  0.00    -0.147 A  
HETATM    4  C   UNL     1      -9.826   7.361  71.142  1.00  0.00    -0.177 A  
HETATM    5  C   UNL     1      -9.752   7.098  69.765  1.00  0.00    -0.165 A  
HETATM    6  C   UNL     1      -9.010   6.013  69.267  1.00  0.00    -0.122 A  
HETATM    7  C   UNL     1      -8.311   5.230  70.207  1.00  0.00    -0.106 A  
HETATM    8  C   UNL     1      -8.406   5.475  71.585  1.00  0.00    -0.123 A  
ENDROOT
BRANCH   6   9
HETATM    9  C   UNL     1      -9.014   5.648  67.817  1.00  0.00    -0.107 A  
HETATM   10  C   UNL     1      -8.569   6.302  66.658  1.00  0.00    -0.119 A  
HETATM   11  C   UNL     1      -8.631   4.720  63.126  1.00  0.00    -0.117 A  
HETATM   12  C   UNL     1      -8.737   5.476  65.462  1.00  0.00    -0.154 A  
HETATM   13  O   UNL     1      -9.581   2.672  62.469  1.00  0.00    -0.090 OA 
HETATM   14  C   UNL     1      -9.393   4.282  65.754  1.00  0.00    -0.164 A  
HETATM   15  H   UNL     1      -9.321   2.844  61.572  1.00  0.00     0.000 HD 
HETATM   16  C   UNL     1      -8.329   5.666  64.111  1.00  0.00    -0.071 A  
HETATM   17  S   UNL     1      -9.773   4.158  67.407  1.00  0.00    -0.106 SA 
HETATM   18  C   UNL     1      -9.686   3.313  64.774  1.00  0.00    -0.131 A  
HETATM   19  C   UNL     1      -9.306   3.564  63.463  1.00  0.00    -0.111 A  
BRANCH  10  20
HETATM   20  C   UNL     1      -7.878   7.592  66.687  1.00  0.00    -0.106 C  
HETATM   21  O   UNL     1      -6.909   7.757  67.430  1.00  0.00    -0.066 OA 
BRANCH  20  22
HETATM   22  C   UNL     1      -8.290   8.754  65.839  1.00  0.00    -0.131 A  
HETATM   23  C   UNL     1      -9.414  10.798  64.220  1.00  0.00    -0.264 A  
HETATM   24  C   UNL     1      -8.100  10.369  64.009  1.00  0.00    -0.092 A  
HETATM   25  C   UNL     1      -9.591   9.215  66.055  1.00  0.00    -0.342 A  
HETATM   26  C   UNL     1      -7.537   9.348  64.813  1.00  0.00    -0.111 A  
HETATM   27  C   UNL     1     -10.152  10.200  65.241  1.00  0.00    -0.344 A  
BRANCH  23  28
HETATM   28  O   UNL     1      -9.913  11.805  63.402  1.00  0.00    -0.379 OA 
BRANCH  28  29
HETATM   29  C   UNL     1     -10.940  12.562  64.063  1.00  0.00    -0.398 C  
BRANCH  29  30
HETATM   30  C   UNL     1     -10.514  13.830  64.827  1.00  0.00    -0.428 C  
BRANCH  30  31
HETATM   31  N   UNL     1     -11.449  14.106  65.954  1.00  0.00    -0.331 NA 
HETATM   32  C   UNL     1     -11.506  13.046  66.977  1.00  0.00    -0.333 C  
HETATM   33  C   UNL     1     -10.161  12.853  67.670  1.00  0.00    -0.221 C  
HETATM   34  C   UNL     1      -9.774  14.138  68.392  1.00  0.00    -0.226 C  
HETATM   35  C   UNL     1      -9.908  15.377  67.499  1.00  0.00    -0.217 C  
HETATM   36  C   UNL     1     -11.172  15.384  66.628  1.00  0.00    -0.175 C  
ENDBRANCH  30  31
ENDBRANCH  29  30
ENDBRANCH  28  29
ENDBRANCH  23  28
ENDBRANCH  20  22
ENDBRANCH  10  20
ENDBRANCH   6   9
TORSDOF 7
ENDMDL
MODEL      170
REMARK 921   NORMALIZED FREE ENERGY PREDICTED BY IDOCK:   -4.23 KCAL/MOL
REMARK 922        TOTAL FREE ENERGY PREDICTED BY IDOCK:   -8.04 KCAL/MOL
REMARK 923 INTER-LIGAND FREE ENERGY PREDICTED BY IDOCK:   -7.85 KCAL/MOL
REMARK 924 INTRA-LIGAND FREE ENERGY PREDICTED BY IDOCK:   -0.19 KCAL/MOL
REMARK 927      BINDING AFFINITY PREDICTED BY RF-SCORE:    0.00 PKD
ROOT
HETATM    1  O   UNL     1      -5.830  20.512  70.571  1.00  0.00    -0.467 OA 
HETATM    2  H   UNL     1      -5.147  20.257  71.180  1.00  0.00     0.000 HD 
HETATM    3  C   UNL     1      -6.477  19.600  69.793  1.00  0.00    -0.320 A  
HETATM    4  C   UNL     1      -7.476  19.972  68.903  1.00  0.00    -0.146 A  
HETATM    5  C   UNL     1      -8.157  18.991  68.165  1.00  0.00    -0.347 A  
HETATM    6  C   UNL     1      -7.837  17.628  68.292  1.00  0.00    -0.256 A  
HETATM    7  C   UNL     1      -6.776  17.297  69.157  1.00  0.00    -0.243 A  
HETATM    8  C   UNL     1      -6.112  18.273  69.915  1.00  0.00    -0.167 A  
ENDROOT
BRANCH   6   9
HETATM    9  C   UNL     1      -8.627  16.560  67.605  1.00  0.00    -0.182 A  
HETATM   10  C   UNL     1      -8.324  15.254  67.189  1.00  0.00    -0.244 A  
HETATM   11  C   UNL     1     -10.908  12.825  65.641  1.00  0.00    -0.300 A  
HETATM   12  C   UNL     1      -9.486  14.576  66.616  1.00  0.00    -0.301 A  
HETATM   13  O   UNL     1     -13.131  13.274  65.017  1.00  0.00    -0.737 OA 
HETATM   14  C   UNL     1     -10.584  15.429  66.529  1.00  0.00    -0.306 A  
HETATM   15  H   UNL     1     -13.220  12.380  64.708  1.00  0.00     0.000 HD 
HETATM   16  C   UNL     1      -9.685  13.234  66.181  1.00  0.00    -0.258 A  
HETATM   17  S   UNL     1     -10.229  16.979  67.132  1.00  0.00    -0.308 SA 
HETATM   18  C   UNL     1     -11.827  15.023  66.005  1.00  0.00    -0.016 A  
HETATM   19  C   UNL     1     -11.958  13.717  65.553  1.00  0.00    -0.384 A  
BRANCH  10  20
HETATM   20  C   UNL     1      -7.034  14.613  67.453  1.00  0.00    -0.093 C  
HETATM   21  O   UNL     1      -6.002  15.079  66.966  1.00  0.00    -0.136 OA 
BRANCH  20  22
HETATM   22  C   UNL     1      -6.893  13.392  68.305  1.00  0.00    -0.106 A  
HETATM   23  C   UNL     1      -6.995  11.025  69.870  1.00  0.00    -0.049 A  
HETATM   24  C   UNL     1      -6.175  12.092  70.252  1.00  0.00    -0.009 A  
HETATM   25  C   UNL     1      -7.684  12.306  67.923  1.00  0.00    -0.133 A  
HETATM   26  C   UNL     1      -6.123  13.274  69.475  1.00  0.00    -0.112 A  
HETATM   27  C   UNL     1      -7.755  11.154  68.708  1.00  0.00    -0.136 A  
BRANCH  23  28
HETATM   28  O   UNL     1      -7.003   9.888  70.670  1.00  0.00    -0.214 OA 
BRANCH  28  29
HETATM   29  C   UNL     1      -7.493   8.742  69.953  1.00  0.00    -0.053 C  
BRANCH  29  30
HETATM   30  C   UNL     1      -8.168   7.624  70.769  1.00  0.00    -0.109 C  
BRANCH  30  31
HETATM   31  N   UNL     1      -9.550   7.369  70.274  1.00  0.00    -0.166 NA 
HETATM   32  C   UNL     1     -10.309   6.376  71.056  1.00  0.00    -0.206 C  
HETATM   33  C   UNL     1     -10.527   6.834  72.495  1.00  0.00    -0.235 C  
HETATM   34  C   UNL     1     -11.350   8.117  72.498  1.00  0.00    -0.469 C  
HETATM   35  C   UNL     1     -10.804   9.168  71.525  1.00  0.00    -0.436 C  
HETATM   36  C   UNL     1     -10.359   8.593  70.173  1.00  0.00    -0.207 C  
ENDBRANCH  30  31
ENDBRANCH  29  30
ENDBRANCH  28  29
ENDBRANCH  23  28
ENDBRANCH  20  22
ENDBRANCH  10  20
ENDBRANCH   6   9
TORSDOF 7
ENDMDL
MODEL      171
REMARK 921   NORMALIZED FREE ENERGY PREDICTED BY IDOCK:   -4.17 KCAL/MOL
REMARK 922        TOTAL FREE ENERGY PREDICTED BY IDOCK:   -7.96 KCAL/MOL
REMARK 923 INTER-LIGAND FREE ENERGY PREDICTED BY IDOCK:   -5.70 KCAL/MOL
REMARK 924 INTRA-LIGAND FREE ENERGY PREDICTED BY IDOCK:   -2.26 KCAL/MOL
REMARK 927      BINDING AFFINITY PREDICTED BY RF-SCORE:    0.00 PKD
ROOT
HETATM    1  O   UNL     1     -10.986   5.932  68.377  1.00  0.00    -0.274 OA 
HETATM    2  H   UNL     1     -11.225   5.484  67.574  1.00  0.00     0.000 HD 
HETATM    3  C   UNL     1     -10.645   7.251  68.391  1.00  0.00    -0.170 A  
HETATM    4  C   UNL     1     -10.296   7.906  69.565  1.00  0.00    -0.217 A  
HETATM    5  C   UNL     1     -10.010   9.280  69.541  1.00  0.00    -0.194 A  
HETATM    6  C   UNL     1     -10.051  10.014  68.343  1.00  0.00    -0.186 A  
HETATM    7  C   UNL     1     -10.347   9.302  67.164  1.00  0.00    -0.330 A  
HETATM    8  C   UNL     1     -10.659   7.934  67.190  1.00  0.00    -0.383 A  
ENDROOT
BRANCH   6   9
HETATM    9  C   UNL     1      -9.865  11.498  68.315  1.00  0.00    -0.203 A  
HETATM   10  C   UNL     1      -8.736  12.326  68.222  1.00  0.00    -0.178 A  
HETATM   11  C   UNL     1      -8.900  16.182  67.949  1.00  0.00    -0.182 A  
HETATM   12  C   UNL     1      -9.096  13.742  68.160  1.00  0.00    -0.194 A  
HETATM   13  O   UNL     1     -10.789  17.572  68.131  1.00  0.00    -0.361 OA 
HETATM   14  C   UNL     1     -10.468  13.928  68.313  1.00  0.00    -0.250 A  
HETATM   15  H   UNL     1     -10.234  18.334  68.015  1.00  0.00     0.000 HD 
HETATM   16  C   UNL     1      -8.314  14.913  67.945  1.00  0.00    -0.149 A  
HETATM   17  S   UNL     1     -11.288  12.449  68.505  1.00  0.00    -0.320 SA 
HETATM   18  C   UNL     1     -11.073  15.200  68.300  1.00  0.00    -0.295 A  
HETATM   19  C   UNL     1     -10.262  16.314  68.131  1.00  0.00    -0.258 A  
BRANCH  10  20
HETATM   20  C   UNL     1      -7.378  11.805  68.048  1.00  0.00    -0.091 C  
HETATM   21  O   UNL     1      -6.425  12.376  68.580  1.00  0.00    -0.060 OA 
BRANCH  20  22
HETATM   22  C   UNL     1      -7.075  10.582  67.241  1.00  0.00    -0.088 A  
HETATM   23  C   UNL     1      -6.798   8.356  65.500  1.00  0.00    -0.070 A  
HETATM   24  C   UNL     1      -6.539   8.222  66.868  1.00  0.00    -0.057 A  
HETATM   25  C   UNL     1      -7.301  10.705  65.868  1.00  0.00    -0.128 A  
HETATM   26  C   UNL     1      -6.679   9.330  67.739  1.00  0.00    -0.068 A  
HETATM   27  C   UNL     1      -7.192   9.604  65.017  1.00  0.00    -0.116 A  
BRANCH  23  28
HETATM   28  O   UNL     1      -6.643   7.236  64.692  1.00  0.00    -0.042 OA 
BRANCH  28  29
HETATM   29  C   UNL     1      -7.909   6.635  64.373  1.00  0.00    -0.114 C  
BRANCH  29  30
HETATM   30  C   UNL     1      -8.056   5.118  64.592  1.00  0.00    -0.119 C  
BRANCH  30  31
HETATM   31  N   UNL     1      -8.754   4.836  65.878  1.00  0.00    -0.121 NA 
HETATM   32  C   UNL     1      -9.546   3.592  65.886  1.00  0.00    -0.136 C  
HETATM   33  C   UNL     1      -8.670   2.361  65.679  1.00  0.00    -0.121 C  
HETATM   34  C   UNL     1      -7.671   2.251  66.825  1.00  0.00    -0.070 C  
HETATM   35  C   UNL     1      -6.938   3.570  67.093  1.00  0.00    -0.058 C  
HETATM   36  C   UNL     1      -7.842   4.810  67.032  1.00  0.00    -0.098 C  
ENDBRANCH  30  31
ENDBRANCH  29  30
ENDBRANCH  28  29
ENDBRANCH  23  28
ENDBRANCH  20  22
ENDBRANCH  10  20
ENDBRANCH   6   9
TORSDOF 7
ENDMDL
MODEL      172
REMARK 921   NORMALIZED FREE ENERGY PREDICTED BY IDOCK:   -4.04 KCAL/MOL
REMARK 922        TOTAL FREE ENERGY PREDICTED BY IDOCK:   -7.78 KCAL/MOL
REMARK 923 INTER-LIGAND FREE ENERGY PREDICTED BY IDOCK:   -5.74 KCAL/MOL
REMARK 924 INTRA-LIGAND FREE ENERGY PREDICTED BY IDOCK:   -2.04 KCAL/MOL
REMARK 927      BINDING AFFINITY PREDICTED BY RF-SCORE:    0.00 PKD
ROOT
HETATM    1  O   UNL     1      -7.671   3.659  70.371  1.00  0.00    -0.047 OA 
HETATM    2  H   UNL     1      -7.261   3.248  71.123  1.00  0.00     0.000 HD 
HETATM    3  C   UNL     1      -7.529   4.988  70.110  1.00  0.00    -0.059 A  
HETATM    4  C   UNL     1      -8.128   5.587  69.010  1.00  0.00    -0.095 A  
HETATM    5  C   UNL     1      -7.905   6.949  68.746  1.00  0.00    -0.118 A  
HETATM    6  C   UNL     1      -7.096   7.732  69.587  1.00  0.00    -0.063 A  
HETATM    7  C   UNL     1      -6.558   7.103  70.727  1.00  0.00    -0.048 A  
HETATM    8  C   UNL     1      -6.758   5.737  70.977  1.00  0.00    -0.053 A  
ENDROOT
BRANCH   6   9
HETATM    9  C   UNL     1      -6.752   9.150  69.261  1.00  0.00    -0.049 A  
HETATM   10  C   UNL     1      -6.629   9.859  68.056  1.00  0.00    -0.060 A  
HETATM   11  C   UNL     1      -5.930  13.660  67.847  1.00  0.00    -0.147 A  
HETATM   12  C   UNL     1      -6.337  11.275  68.279  1.00  0.00    -0.049 A  
HETATM   13  O   UNL     1      -5.418  15.141  69.600  1.00  0.00    -0.091 OA 
HETATM   14  C   UNL     1      -6.150  11.552  69.631  1.00  0.00    -0.114 A  
HETATM   15  H   UNL     1      -5.337  15.849  68.973  1.00  0.00     0.000 HD 
HETATM   16  C   UNL     1      -6.248  12.380  67.383  1.00  0.00    -0.158 A  
HETATM   17  S   UNL     1      -6.338  10.161  70.592  1.00  0.00    -0.055 SA 
HETATM   18  C   UNL     1      -5.848  12.841  70.112  1.00  0.00    -0.155 A  
HETATM   19  C   UNL     1      -5.729  13.877  69.195  1.00  0.00    -0.082 A  
BRANCH  10  20
HETATM   20  C   UNL     1      -6.919   9.266  66.749  1.00  0.00    -0.081 C  
HETATM   21  O   UNL     1      -6.208   8.361  66.310  1.00  0.00    -0.048 OA 
BRANCH  20  22
HETATM   22  C   UNL     1      -8.065   9.707  65.894  1.00  0.00    -0.112 A  
HETATM   23  C   UNL     1     -10.000  10.794  64.123  1.00  0.00    -0.343 A  
HETATM   24  C   UNL     1     -10.363  10.402  65.416  1.00  0.00    -0.270 A  
HETATM   25  C   UNL     1      -7.725  10.076  64.590  1.00  0.00    -0.146 A  
HETATM   26  C   UNL     1      -9.400   9.861  66.302  1.00  0.00    -0.224 A  
HETATM   27  C   UNL     1      -8.671  10.636  63.730  1.00  0.00    -0.144 A  
BRANCH  23  28
HETATM   28  O   UNL     1     -10.988  11.316  63.296  1.00  0.00    -0.301 OA 
BRANCH  28  29
HETATM   29  C   UNL     1     -11.212  12.711  63.557  1.00  0.00    -0.429 C  
BRANCH  29  30
HETATM   30  C   UNL     1     -12.237  13.078  64.647  1.00  0.00    -0.421 C  
BRANCH  30  31
HETATM   31  N   UNL     1     -11.869  14.363  65.307  1.00  0.00    -0.363 NA 
HETATM   32  C   UNL     1     -12.224  14.441  66.736  1.00  0.00    -0.288 C  
HETATM   33  C   UNL     1     -11.485  13.392  67.562  1.00  0.00    -0.357 C  
HETATM   34  C   UNL     1      -9.984  13.640  67.468  1.00  0.00    -0.230 C  
HETATM   35  C   UNL     1      -9.508  13.827  66.023  1.00  0.00    -0.125 C  
HETATM   36  C   UNL     1     -10.443  14.692  65.166  1.00  0.00    -0.416 C  
ENDBRANCH  30  31
ENDBRANCH  29  30
ENDBRANCH  28  29
ENDBRANCH  23  28
ENDBRANCH  20  22
ENDBRANCH  10  20
ENDBRANCH   6   9
TORSDOF 7
ENDMDL
MODEL      173
REMARK 921   NORMALIZED FREE ENERGY PREDICTED BY IDOCK:   -3.99 KCAL/MOL
REMARK 922        TOTAL FREE ENERGY PREDICTED BY IDOCK:   -7.70 KCAL/MOL
REMARK 923 INTER-LIGAND FREE ENERGY PREDICTED BY IDOCK:   -6.09 KCAL/MOL
REMARK 924 INTRA-LIGAND FREE ENERGY PREDICTED BY IDOCK:   -1.61 KCAL/MOL
REMARK 927      BINDING AFFINITY PREDICTED BY RF-SCORE:    0.00 PKD
ROOT
HETATM    1  O   UNL     1      -6.616  12.648  69.917  1.00  0.00    -0.343 OA 
HETATM    2  H   UNL     1      -6.941  12.664  70.809  1.00  0.00     0.000 HD 
HETATM    3  C   UNL     1      -6.670  11.523  69.152  1.00  0.00    -0.108 A  
HETATM    4  C   UNL     1      -6.195  11.499  67.847  1.00  0.00    -0.052 A  
HETATM    5  C   UNL     1      -6.326  10.334  67.075  1.00  0.00    -0.071 A  
HETATM    6  C   UNL     1      -6.916   9.171  67.601  1.00  0.00    -0.078 A  
HETATM    7  C   UNL     1      -7.327   9.215  68.948  1.00  0.00    -0.074 A  
HETATM    8  C   UNL     1      -7.221  10.386  69.712  1.00  0.00    -0.155 A  
ENDROOT
BRANCH   6   9
HETATM    9  C   UNL     1      -7.169   7.961  66.761  1.00  0.00    -0.088 A  
HETATM   10  C   UNL     1      -7.964   7.722  65.629  1.00  0.00    -0.118 A  
HETATM   11  C   UNL     1      -8.034   4.365  63.706  1.00  0.00    -0.091 A  
HETATM   12  C   UNL     1      -7.811   6.357  65.127  1.00  0.00    -0.111 A  
HETATM   13  O   UNL     1      -6.996   2.337  64.287  1.00  0.00    -0.044 OA 
HETATM   14  C   UNL     1      -6.991   5.596  65.957  1.00  0.00    -0.063 A  
HETATM   15  H   UNL     1      -7.371   1.929  63.515  1.00  0.00     0.000 HD 
HETATM   16  C   UNL     1      -8.312   5.712  63.960  1.00  0.00    -0.065 A  
HETATM   17  S   UNL     1      -6.417   6.501  67.279  1.00  0.00    -0.043 SA 
HETATM   18  C   UNL     1      -6.689   4.245  65.701  1.00  0.00    -0.052 A  
HETATM   19  C   UNL     1      -7.236   3.648  64.574  1.00  0.00    -0.066 A  
BRANCH  10  20
HETATM   20  C   UNL     1      -8.727   8.776  64.955  1.00  0.00    -0.148 C  
HETATM   21  O   UNL     1      -8.696   8.870  63.727  1.00  0.00    -0.149 OA 
BRANCH  20  22
HETATM   22  C   UNL     1      -9.565   9.770  65.694  1.00  0.00    -0.329 A  
HETATM   23  C   UNL     1     -11.391  11.371  67.166  1.00  0.00    -0.255 A  
HETATM   24  C   UNL     1     -10.752  11.885  66.033  1.00  0.00    -0.326 A  
HETATM   25  C   UNL     1     -10.190   9.282  66.844  1.00  0.00    -0.327 A  
HETATM   26  C   UNL     1      -9.843  11.088  65.295  1.00  0.00    -0.309 A  
HETATM   27  C   UNL     1     -11.108  10.061  67.551  1.00  0.00    -0.190 A  
BRANCH  23  28
HETATM   28  O   UNL     1     -12.272  12.199  67.852  1.00  0.00    -0.438 OA 
BRANCH  28  29
HETATM   29  C   UNL     1     -11.622  12.875  68.941  1.00  0.00    -0.315 C  
BRANCH  29  30
HETATM   30  C   UNL     1     -10.129  13.220  68.779  1.00  0.00    -0.073 C  
BRANCH  30  31
HETATM   31  N   UNL     1      -9.902  14.682  68.953  1.00  0.00    -0.224 NA 
HETATM   32  C   UNL     1      -8.528  15.128  68.661  1.00  0.00    -0.170 C  
HETATM   33  C   UNL     1      -8.150  14.882  67.204  1.00  0.00    -0.239 C  
HETATM   34  C   UNL     1      -9.075  15.687  66.297  1.00  0.00    -0.376 C  
HETATM   35  C   UNL     1     -10.554  15.504  66.657  1.00  0.00    -0.307 C  
HETATM   36  C   UNL     1     -10.833  15.505  68.166  1.00  0.00    -0.296 C  
ENDBRANCH  30  31
ENDBRANCH  29  30
ENDBRANCH  28  29
ENDBRANCH  23  28
ENDBRANCH  20  22
ENDBRANCH  10  20
ENDBRANCH   6   9
TORSDOF 7
ENDMDL
MODEL      174
REMARK 921   NORMALIZED FREE ENERGY PREDICTED BY IDOCK:   -3.98 KCAL/MOL
REMARK 922        TOTAL FREE ENERGY PREDICTED BY IDOCK:   -7.69 KCAL/MOL
REMARK 923 INTER-LIGAND FREE ENERGY PREDICTED BY IDOCK:   -5.44 KCAL/MOL
REMARK 924 INTRA-LIGAND FREE ENERGY PREDICTED BY IDOCK:   -2.26 KCAL/MOL
REMARK 927      BINDING AFFINITY PREDICTED BY RF-SCORE:    0.00 PKD
ROOT
HETATM    1  O   UNL     1     -14.339  13.565  72.030  1.00  0.00    -0.330 OA 
HETATM    2  H   UNL     1     -15.132  14.058  72.204  1.00  0.00     0.000 HD 
HETATM    3  C   UNL     1     -13.366  14.035  71.201  1.00  0.00    -0.223 A  
HETATM    4  C   UNL     1     -12.207  13.315  70.948  1.00  0.00    -0.346 A  
HETATM    5  C   UNL     1     -11.204  13.865  70.133  1.00  0.00     0.045 A  
HETATM    6  C   UNL     1     -11.354  15.134  69.547  1.00  0.00    -0.301 A  
HETATM    7  C   UNL     1     -12.571  15.806  69.776  1.00  0.00     0.058 A  
HETATM    8  C   UNL     1     -13.562  15.269  70.611  1.00  0.00    -0.187 A  
ENDROOT
BRANCH   6   9
HETATM    9  C   UNL     1     -10.253  15.787  68.775  1.00  0.00    -0.217 A  
HETATM   10  C   UNL     1      -9.895  15.785  67.417  1.00  0.00    -0.233 A  
HETATM   11  C   UNL     1      -7.015  17.904  65.939  1.00  0.00    -0.313 A  
HETATM   12  C   UNL     1      -8.753  16.658  67.149  1.00  0.00    -0.215 A  
HETATM   13  O   UNL     1      -5.433  19.210  67.090  1.00  0.00    -0.161 OA 
HETATM   14  C   UNL     1      -8.234  17.197  68.324  1.00  0.00    -0.230 A  
HETATM   15  H   UNL     1      -5.022  19.433  66.263  1.00  0.00     0.000 HD 
HETATM   16  C   UNL     1      -8.129  17.059  65.932  1.00  0.00     0.001 A  
HETATM   17  S   UNL     1      -9.103  16.683  69.692  1.00  0.00     0.681 SA 
HETATM   18  C   UNL     1      -7.124  18.065  68.341  1.00  0.00    -0.247 A  
HETATM   19  C   UNL     1      -6.523  18.391  67.133  1.00  0.00    -0.179 A  
BRANCH  10  20
HETATM   20  C   UNL     1     -10.685  15.108  66.387  1.00  0.00    -0.317 C  
HETATM   21  O   UNL     1     -11.488  15.748  65.705  1.00  0.00    -0.004 OA 
BRANCH  20  22
HETATM   22  C   UNL     1     -10.568  13.644  66.105  1.00  0.00    -0.291 A  
HETATM   23  C   UNL     1     -10.444  10.813  65.929  1.00  0.00    -0.204 A  
HETATM   24  C   UNL     1      -9.510  11.606  65.255  1.00  0.00    -0.170 A  
HETATM   25  C   UNL     1     -11.510  12.837  66.749  1.00  0.00    -0.399 A  
HETATM   26  C   UNL     1      -9.568  13.018  65.342  1.00  0.00     0.079 A  
HETATM   27  C   UNL     1     -11.432  11.445  66.684  1.00  0.00    -0.124 A  
BRANCH  23  28
HETATM   28  O   UNL     1     -10.340   9.432  65.806  1.00  0.00    -0.139 OA 
BRANCH  28  29
HETATM   29  C   UNL     1      -9.114   8.942  66.374  1.00  0.00    -0.174 C  
BRANCH  29  30
HETATM   30  C   UNL     1      -9.197   8.200  67.721  1.00  0.00    -0.134 C  
BRANCH  30  31
HETATM   31  N   UNL     1      -8.217   8.760  68.694  1.00  0.00    -0.116 NA 
HETATM   32  C   UNL     1      -8.658   9.998  69.364  1.00  0.00    -0.175 C  
HETATM   33  C   UNL     1      -9.907   9.771  70.209  1.00  0.00    -0.296 C  
HETATM   34  C   UNL     1      -9.598   8.763  71.310  1.00  0.00    -0.323 C  
HETATM   35  C   UNL     1      -8.901   7.506  70.776  1.00  0.00    -0.148 C  
HETATM   36  C   UNL     1      -7.817   7.793  69.727  1.00  0.00    -0.106 C  
ENDBRANCH  30  31
ENDBRANCH  29  30
ENDBRANCH  28  29
ENDBRANCH  23  28
ENDBRANCH  20  22
ENDBRANCH  10  20
ENDBRANCH   6   9
TORSDOF 7
ENDMDL
MODEL      175
REMARK 921   NORMALIZED FREE ENERGY PREDICTED BY IDOCK:   -3.97 KCAL/MOL
REMARK 922        TOTAL FREE ENERGY PREDICTED BY IDOCK:   -7.67 KCAL/MOL
REMARK 923 INTER-LIGAND FREE ENERGY PREDICTED BY IDOCK:   -6.04 KCAL/MOL
REMARK 924 INTRA-LIGAND FREE ENERGY PREDICTED BY IDOCK:   -1.63 KCAL/MOL
REMARK 927      BINDING AFFINITY PREDICTED BY RF-SCORE:    0.00 PKD
ROOT
HETATM    1  O   UNL     1     -11.051   6.606  70.585  1.00  0.00    -0.259 OA 
HETATM    2  H   UNL     1     -11.132   5.798  70.092  1.00  0.00     0.000 HD 
HETATM    3  C   UNL     1     -10.804   7.799  69.976  1.00  0.00    -0.241 A  
HETATM    4  C   UNL     1     -10.686   8.980  70.697  1.00  0.00    -0.292 A  
HETATM    5  C   UNL     1     -10.491  10.195  70.022  1.00  0.00    -0.325 A  
HETATM    6  C   UNL     1     -10.393  10.245  68.621  1.00  0.00    -0.203 A  
HETATM    7  C   UNL     1     -10.453   9.019  67.930  1.00  0.00    -0.291 A  
HETATM    8  C   UNL     1     -10.674   7.807  68.601  1.00  0.00    -0.084 A  
ENDROOT
BRANCH   6   9
HETATM    9  C   UNL     1     -10.302  11.540  67.878  1.00  0.00    -0.183 A  
HETATM   10  C   UNL     1      -9.271  12.473  67.689  1.00  0.00    -0.190 A  
HETATM   11  C   UNL     1      -9.566  15.589  65.413  1.00  0.00    -0.150 A  
HETATM   12  C   UNL     1      -9.672  13.563  66.800  1.00  0.00    -0.271 A  
HETATM   13  O   UNL     1     -11.474  16.402  64.305  1.00  0.00    -1.110 OA 
HETATM   14  C   UNL     1     -11.014  13.462  66.441  1.00  0.00    -0.289 A  
HETATM   15  H   UNL     1     -10.964  17.130  63.970  1.00  0.00     0.000 HD 
HETATM   16  C   UNL     1      -8.940  14.647  66.236  1.00  0.00    -0.112 A  
HETATM   17  S   UNL     1     -11.753  12.097  67.136  1.00  0.00    -0.232 SA 
HETATM   18  C   UNL     1     -11.651  14.394  65.598  1.00  0.00    -0.347 A  
HETATM   19  C   UNL     1     -10.906  15.458  65.108  1.00  0.00    -0.431 A  
BRANCH  10  20
HETATM   20  C   UNL     1      -7.914  12.274  68.202  1.00  0.00    -0.155 C  
HETATM   21  O   UNL     1      -7.352  13.176  68.825  1.00  0.00    -0.106 OA 
BRANCH  20  22
HETATM   22  C   UNL     1      -7.151  11.002  68.007  1.00  0.00    -0.077 A  
HETATM   23  C   UNL     1      -5.954   8.507  67.371  1.00  0.00    -0.047 A  
HETATM   24  C   UNL     1      -6.010   8.948  68.697  1.00  0.00    -0.045 A  
HETATM   25  C   UNL     1      -7.060  10.560  66.685  1.00  0.00    -0.118 A  
HETATM   26  C   UNL     1      -6.608  10.191  69.018  1.00  0.00    -0.053 A  
HETATM   27  C   UNL     1      -6.496   9.321  66.377  1.00  0.00    -0.066 A  
BRANCH  23  28
HETATM   28  O   UNL     1      -5.353   7.280  67.116  1.00  0.00    -0.020 OA 
BRANCH  28  29
HETATM   29  C   UNL     1      -6.186   6.446  66.292  1.00  0.00    -0.037 C  
BRANCH  29  30
HETATM   30  C   UNL     1      -6.759   5.164  66.922  1.00  0.00    -0.058 C  
BRANCH  30  31
HETATM   31  N   UNL     1      -7.484   4.353  65.904  1.00  0.00    -0.080 NA 
HETATM   32  C   UNL     1      -6.982   4.508  64.526  1.00  0.00    -0.050 C  
HETATM   33  C   UNL     1      -5.537   4.036  64.393  1.00  0.00    -0.014 C  
HETATM   34  C   UNL     1      -5.457   2.551  64.724  1.00  0.00    -0.009 C  
HETATM   35  C   UNL     1      -6.168   2.203  66.037  1.00  0.00    -0.023 C  
HETATM   36  C   UNL     1      -7.512   2.918  66.227  1.00  0.00    -0.075 C  
ENDBRANCH  30  31
ENDBRANCH  29  30
ENDBRANCH  28  29
ENDBRANCH  23  28
ENDBRANCH  20  22
ENDBRANCH  10  20
ENDBRANCH   6   9
TORSDOF 7
ENDMDL
MODEL      176
REMARK 921   NORMALIZED FREE ENERGY PREDICTED BY IDOCK:   -3.96 KCAL/MOL
REMARK 922        TOTAL FREE ENERGY PREDICTED BY IDOCK:   -7.65 KCAL/MOL
REMARK 923 INTER-LIGAND FREE ENERGY PREDICTED BY IDOCK:   -6.62 KCAL/MOL
REMARK 924 INTRA-LIGAND FREE ENERGY PREDICTED BY IDOCK:   -1.03 KCAL/MOL
REMARK 927      BINDING AFFINITY PREDICTED BY RF-SCORE:    0.00 PKD
ROOT
HETATM    1  O   UNL     1      -7.163   2.070  67.644  1.00  0.00    -0.046 OA 
HETATM    2  H   UNL     1      -6.254   1.921  67.874  1.00  0.00     0.000 HD 
HETATM    3  C   UNL     1      -7.868   3.123  68.142  1.00  0.00    -0.059 A  
HETATM    4  C   UNL     1      -9.198   3.341  67.805  1.00  0.00    -0.240 A  
HETATM    5  C   UNL     1      -9.867   4.474  68.296  1.00  0.00    -0.153 A  
HETATM    6  C   UNL     1      -9.224   5.393  69.143  1.00  0.00    -0.147 A  
HETATM    7  C   UNL     1      -7.895   5.104  69.512  1.00  0.00    -0.076 A  
HETATM    8  C   UNL     1      -7.217   3.987  69.002  1.00  0.00    -0.054 A  
ENDROOT
BRANCH   6   9
HETATM    9  C   UNL     1      -9.880   6.663  69.580  1.00  0.00    -0.157 A  
HETATM   10  C   UNL     1      -9.749   8.003  69.183  1.00  0.00    -0.163 A  
HETATM   11  C   UNL     1     -11.940  10.887  70.545  1.00  0.00    -0.466 A  
HETATM   12  C   UNL     1     -10.688   8.879  69.882  1.00  0.00    -0.236 A  
HETATM   13  O   UNL     1     -13.522  10.812  72.284  1.00  0.00    -0.600 OA 
HETATM   14  C   UNL     1     -11.413   8.184  70.848  1.00  0.00    -0.271 A  
HETATM   15  H   UNL     1     -13.682  11.741  72.173  1.00  0.00     0.000 HD 
HETATM   16  C   UNL     1     -10.997  10.261  69.724  1.00  0.00    -0.338 A  
HETATM   17  S   UNL     1     -10.988   6.537  70.893  1.00  0.00    -0.291 SA 
HETATM   18  C   UNL     1     -12.379   8.800  71.667  1.00  0.00    -0.394 A  
HETATM   19  C   UNL     1     -12.614  10.158  71.505  1.00  0.00    -0.434 A  
BRANCH  10  20
HETATM   20  C   UNL     1      -8.879   8.426  68.083  1.00  0.00    -0.142 C  
HETATM   21  O   UNL     1      -8.569   7.626  67.199  1.00  0.00    -0.119 OA 
BRANCH  20  22
HETATM   22  C   UNL     1      -8.331   9.813  67.968  1.00  0.00    -0.110 A  
HETATM   23  C   UNL     1      -7.239  12.369  67.387  1.00  0.00    -0.148 A  
HETATM   24  C   UNL     1      -6.950  11.734  68.599  1.00  0.00    -0.093 A  
HETATM   25  C   UNL     1      -8.633  10.474  66.775  1.00  0.00    -0.126 A  
HETATM   26  C   UNL     1      -7.491  10.459  68.891  1.00  0.00    -0.099 A  
HETATM   27  C   UNL     1      -8.073  11.718  66.478  1.00  0.00    -0.035 A  
BRANCH  23  28
HETATM   28  O   UNL     1      -6.681  13.620  67.155  1.00  0.00    -0.164 OA 
BRANCH  28  29
HETATM   29  C   UNL     1      -6.375  14.298  68.385  1.00  0.00    -0.101 C  
BRANCH  29  30
HETATM   30  C   UNL     1      -7.061  15.652  68.645  1.00  0.00    -0.127 C  
BRANCH  30  31
HETATM   31  N   UNL     1      -6.049  16.726  68.854  1.00  0.00    -0.150 NA 
HETATM   32  C   UNL     1      -5.189  16.994  67.688  1.00  0.00    -0.124 C  
HETATM   33  C   UNL     1      -5.995  17.494  66.492  1.00  0.00    -0.240 C  
HETATM   34  C   UNL     1      -6.669  18.812  66.852  1.00  0.00    -0.207 C  
HETATM   35  C   UNL     1      -7.411  18.746  68.192  1.00  0.00    -0.281 C  
HETATM   36  C   UNL     1      -6.645  17.998  69.292  1.00  0.00    -0.232 C  
ENDBRANCH  30  31
ENDBRANCH  29  30
ENDBRANCH  28  29
ENDBRANCH  23  28
ENDBRANCH  20  22
ENDBRANCH  10  20
ENDBRANCH   6   9
TORSDOF 7
ENDMDL
MODEL      177
REMARK 921   NORMALIZED FREE ENERGY PREDICTED BY IDOCK:   -3.91 KCAL/MOL
REMARK 922        TOTAL FREE ENERGY PREDICTED BY IDOCK:   -7.59 KCAL/MOL
REMARK 923 INTER-LIGAND FREE ENERGY PREDICTED BY IDOCK:   -6.08 KCAL/MOL
REMARK 924 INTRA-LIGAND FREE ENERGY PREDICTED BY IDOCK:   -1.51 KCAL/MOL
REMARK 927      BINDING AFFINITY PREDICTED BY RF-SCORE:    0.00 PKD
ROOT
HETATM    1  O   UNL     1      -5.221  13.547  68.545  1.00  0.00    -0.074 OA 
HETATM    2  H   UNL     1      -5.187  14.198  67.854  1.00  0.00     0.000 HD 
HETATM    3  C   UNL     1      -5.605  12.263  68.306  1.00  0.00    -0.054 A  
HETATM    4  C   UNL     1      -5.655  11.312  69.317  1.00  0.00    -0.041 A  
HETATM    5  C   UNL     1      -5.999   9.985  69.013  1.00  0.00    -0.037 A  
HETATM    6  C   UNL     1      -6.316   9.595  67.701  1.00  0.00    -0.057 A  
HETATM    7  C   UNL     1      -6.317  10.601  66.715  1.00  0.00    -0.084 A  
HETATM    8  C   UNL     1      -5.947  11.921  67.012  1.00  0.00    -0.153 A  
ENDROOT
BRANCH   6   9
HETATM    9  C   UNL     1      -6.571   8.167  67.337  1.00  0.00    -0.058 A  
HETATM   10  C   UNL     1      -7.487   7.205  67.791  1.00  0.00    -0.098 A  
HETATM   11  C   UNL     1      -7.836   3.664  66.270  1.00  0.00    -0.089 A  
HETATM   12  C   UNL     1      -7.377   5.949  67.051  1.00  0.00    -0.076 A  
HETATM   13  O   UNL     1      -6.481   2.644  64.641  1.00  0.00    -0.025 OA 
HETATM   14  C   UNL     1      -6.320   5.980  66.144  1.00  0.00    -0.042 A  
HETATM   15  H   UNL     1      -7.005   1.855  64.705  1.00  0.00     0.000 HD 
HETATM   16  C   UNL     1      -8.161   4.759  67.077  1.00  0.00    -0.106 A  
HETATM   17  S   UNL     1      -5.506   7.473  66.175  1.00  0.00    -0.029 SA 
HETATM   18  C   UNL     1      -5.995   4.890  65.312  1.00  0.00    -0.025 A  
HETATM   19  C   UNL     1      -6.762   3.737  65.406  1.00  0.00    -0.048 A  
BRANCH  10  20
HETATM   20  C   UNL     1      -8.525   7.499  68.782  1.00  0.00    -0.129 C  
HETATM   21  O   UNL     1      -8.687   6.751  69.747  1.00  0.00    -0.139 OA 
BRANCH  20  22
HETATM   22  C   UNL     1      -9.424   8.691  68.686  1.00  0.00    -0.144 A  
HETATM   23  C   UNL     1     -11.331  10.792  68.777  1.00  0.00    -0.288 A  
HETATM   24  C   UNL     1     -10.791  10.378  67.555  1.00  0.00    -0.358 A  
HETATM   25  C   UNL     1      -9.951   9.137  69.900  1.00  0.00    -0.213 A  
HETATM   26  C   UNL     1      -9.841   9.329  67.506  1.00  0.00    -0.224 A  
HETATM   27  C   UNL     1     -10.910  10.151  69.942  1.00  0.00    -0.347 A  
BRANCH  23  28
HETATM   28  O   UNL     1     -12.258  11.828  68.765  1.00  0.00    -0.367 OA 
BRANCH  28  29
HETATM   29  C   UNL     1     -11.712  13.032  69.329  1.00  0.00    -0.320 C  
BRANCH  29  30
HETATM   30  C   UNL     1     -10.821  13.904  68.425  1.00  0.00    -0.254 C  
BRANCH  30  31
HETATM   31  N   UNL     1     -11.633  14.575  67.371  1.00  0.00    -0.370 NA 
HETATM   32  C   UNL     1     -10.901  15.580  66.580  1.00  0.00    -0.284 C  
HETATM   33  C   UNL     1      -9.749  14.957  65.797  1.00  0.00    -0.359 C  
HETATM   34  C   UNL     1     -10.302  13.938  64.807  1.00  0.00    -0.419 C  
HETATM   35  C   UNL     1     -11.289  12.962  65.459  1.00  0.00    -0.340 C  
HETATM   36  C   UNL     1     -12.264  13.625  66.442  1.00  0.00    -0.423 C  
ENDBRANCH  30  31
ENDBRANCH  29  30
ENDBRANCH  28  29
ENDBRANCH  23  28
ENDBRANCH  20  22
ENDBRANCH  10  20
ENDBRANCH   6   9
TORSDOF 7
ENDMDL
MODEL      178
REMARK 921   NORMALIZED FREE ENERGY PREDICTED BY IDOCK:   -3.90 KCAL/MOL
REMARK 922        TOTAL FREE ENERGY PREDICTED BY IDOCK:   -7.57 KCAL/MOL
REMARK 923 INTER-LIGAND FREE ENERGY PREDICTED BY IDOCK:   -7.71 KCAL/MOL
REMARK 924 INTRA-LIGAND FREE ENERGY PREDICTED BY IDOCK:    0.14 KCAL/MOL
REMARK 927      BINDING AFFINITY PREDICTED BY RF-SCORE:    0.00 PKD
ROOT
HETATM    1  O   UNL     1      -6.155  19.848  70.057  1.00  0.00    -0.293 OA 
HETATM    2  H   UNL     1      -5.613  19.632  70.806  1.00  0.00     0.000 HD 
HETATM    3  C   UNL     1      -6.780  18.887  69.320  1.00  0.00    -0.280 A  
HETATM    4  C   UNL     1      -7.573  19.202  68.225  1.00  0.00    -0.339 A  
HETATM    5  C   UNL     1      -8.246  18.183  67.532  1.00  0.00    -0.236 A  
HETATM    6  C   UNL     1      -8.121  16.836  67.911  1.00  0.00    -0.189 A  
HETATM    7  C   UNL     1      -7.257  16.550  68.987  1.00  0.00    -0.219 A  
HETATM    8  C   UNL     1      -6.605  17.570  69.697  1.00  0.00    -0.088 A  
ENDROOT
BRANCH   6   9
HETATM    9  C   UNL     1      -8.918  15.751  67.261  1.00  0.00    -0.196 A  
HETATM   10  C   UNL     1      -8.657  14.402  66.975  1.00  0.00    -0.226 A  
HETATM   11  C   UNL     1     -11.258  11.972  65.457  1.00  0.00    -0.372 A  
HETATM   12  C   UNL     1      -9.814  13.732  66.381  1.00  0.00    -0.305 A  
HETATM   13  O   UNL     1     -13.410  12.468  64.647  1.00  0.00    -0.804 OA 
HETATM   14  C   UNL     1     -10.858  14.624  66.150  1.00  0.00    -0.321 A  
HETATM   15  H   UNL     1     -13.525  11.556  64.407  1.00  0.00     0.000 HD 
HETATM   16  C   UNL     1     -10.053  12.368  66.045  1.00  0.00    -0.269 A  
HETATM   17  S   UNL     1     -10.463  16.202  66.647  1.00  0.00    -0.277 SA 
HETATM   18  C   UNL     1     -12.084  14.233  65.576  1.00  0.00    -0.397 A  
HETATM   19  C   UNL     1     -12.253  12.901  65.225  1.00  0.00    -0.476 A  
BRANCH  10  20
HETATM   20  C   UNL     1      -7.421  13.727  67.378  1.00  0.00    -0.125 C  
HETATM   21  O   UNL     1      -6.335  14.126  66.957  1.00  0.00    -0.019 OA 
BRANCH  20  22
HETATM   22  C   UNL     1      -7.403  12.549  68.300  1.00  0.00    -0.115 A  
HETATM   23  C   UNL     1      -7.721  10.409  70.139  1.00  0.00     0.151 A  
HETATM   24  C   UNL     1      -6.497  11.076  70.033  1.00  0.00    -0.144 A  
HETATM   25  C   UNL     1      -8.611  11.852  68.398  1.00  0.00    -0.152 A  
HETATM   26  C   UNL     1      -6.335  12.145  69.118  1.00  0.00    -0.094 A  
HETATM   27  C   UNL     1      -8.774  10.819  69.322  1.00  0.00    -0.044 A  
BRANCH  23  28
HETATM   28  O   UNL     1      -7.821   9.366  71.053  1.00  0.00    -0.289 OA 
BRANCH  28  29
HETATM   29  C   UNL     1      -8.992   8.567  70.816  1.00  0.00    -0.165 C  
BRANCH  29  30
HETATM   30  C   UNL     1      -8.866   7.385  69.837  1.00  0.00    -0.141 C  
BRANCH  30  31
HETATM   31  N   UNL     1     -10.200   6.781  69.563  1.00  0.00    -0.178 NA 
HETATM   32  C   UNL     1     -10.482   6.540  68.136  1.00  0.00    -0.217 C  
HETATM   33  C   UNL     1      -9.507   5.538  67.527  1.00  0.00    -0.123 C  
HETATM   34  C   UNL     1      -9.651   4.196  68.235  1.00  0.00    -0.191 C  
HETATM   35  C   UNL     1      -9.622   4.332  69.762  1.00  0.00    -0.279 C  
HETATM   36  C   UNL     1     -10.424   5.527  70.297  1.00  0.00    -0.295 C  
ENDBRANCH  30  31
ENDBRANCH  29  30
ENDBRANCH  28  29
ENDBRANCH  23  28
ENDBRANCH  20  22
ENDBRANCH  10  20
ENDBRANCH   6   9
TORSDOF 7
ENDMDL
MODEL      179
REMARK 921   NORMALIZED FREE ENERGY PREDICTED BY IDOCK:   -3.89 KCAL/MOL
REMARK 922        TOTAL FREE ENERGY PREDICTED BY IDOCK:   -7.56 KCAL/MOL
REMARK 923 INTER-LIGAND FREE ENERGY PREDICTED BY IDOCK:   -6.70 KCAL/MOL
REMARK 924 INTRA-LIGAND FREE ENERGY PREDICTED BY IDOCK:   -0.86 KCAL/MOL
REMARK 927      BINDING AFFINITY PREDICTED BY RF-SCORE:    0.00 PKD
ROOT
HETATM    1  O   UNL     1     -12.648  12.380  71.294  1.00  0.00    -0.343 OA 
HETATM    2  H   UNL     1     -13.026  13.180  70.950  1.00  0.00     0.000 HD 
HETATM    3  C   UNL     1     -12.178  11.397  70.477  1.00  0.00    -0.386 A  
HETATM    4  C   UNL     1     -11.625  10.227  70.980  1.00  0.00    -0.430 A  
HETATM    5  C   UNL     1     -11.099   9.267  70.101  1.00  0.00    -0.260 A  
HETATM    6  C   UNL     1     -11.134   9.454  68.708  1.00  0.00     0.009 A  
HETATM    7  C   UNL     1     -11.761  10.624  68.235  1.00  0.00    -0.136 A  
HETATM    8  C   UNL     1     -12.263  11.596  69.113  1.00  0.00    -0.201 A  
ENDROOT
BRANCH   6   9
HETATM    9  C   UNL     1     -10.476   8.502  67.762  1.00  0.00    -0.223 A  
HETATM   10  C   UNL     1      -9.782   8.668  66.554  1.00  0.00    -0.325 A  
HETATM   11  C   UNL     1      -8.059   5.783  64.635  1.00  0.00    -0.132 A  
HETATM   12  C   UNL     1      -9.259   7.402  66.041  1.00  0.00    -0.092 A  
HETATM   13  O   UNL     1      -8.147   3.478  65.094  1.00  0.00    -0.092 OA 
HETATM   14  C   UNL     1      -9.667   6.325  66.825  1.00  0.00    -0.156 A  
HETATM   15  H   UNL     1      -7.603   3.310  64.334  1.00  0.00     0.000 HD 
HETATM   16  C   UNL     1      -8.409   7.102  64.938  1.00  0.00    -0.019 A  
HETATM   17  S   UNL     1     -10.627   6.828  68.137  1.00  0.00    -0.239 SA 
HETATM   18  C   UNL     1      -9.305   4.994  66.541  1.00  0.00    -0.141 A  
HETATM   19  C   UNL     1      -8.511   4.748  65.430  1.00  0.00    -0.129 A  
BRANCH  10  20
HETATM   20  C   UNL     1      -9.492   9.983  65.976  1.00  0.00    -0.197 C  
HETATM   21  O   UNL     1     -10.107  10.369  64.982  1.00  0.00    -0.309 OA 
BRANCH  20  22
HETATM   22  C   UNL     1      -8.464  10.909  66.544  1.00  0.00    -0.159 A  
HETATM   23  C   UNL     1      -6.750  12.946  67.532  1.00  0.00    -0.154 A  
HETATM   24  C   UNL     1      -6.220  11.834  66.870  1.00  0.00    -0.134 A  
HETATM   25  C   UNL     1      -8.974  12.012  67.233  1.00  0.00    -0.180 A  
HETATM   26  C   UNL     1      -7.073  10.817  66.374  1.00  0.00    -0.134 A  
HETATM   27  C   UNL     1      -8.133  13.027  67.694  1.00  0.00    -0.172 A  
BRANCH  23  28
HETATM   28  O   UNL     1      -5.866  13.911  67.999  1.00  0.00    -0.115 OA 
BRANCH  28  29
HETATM   29  C   UNL     1      -6.560  15.010  68.614  1.00  0.00    -0.086 C  
BRANCH  29  30
HETATM   30  C   UNL     1      -7.529  15.824  67.737  1.00  0.00    -0.144 C  
BRANCH  30  31
HETATM   31  N   UNL     1      -7.950  17.072  68.433  1.00  0.00    -0.229 NA 
HETATM   32  C   UNL     1      -7.860  18.293  67.611  1.00  0.00    -0.229 C  
HETATM   33  C   UNL     1      -8.788  18.231  66.402  1.00  0.00    -0.256 C  
HETATM   34  C   UNL     1     -10.233  18.127  66.877  1.00  0.00    -0.380 C  
HETATM   35  C   UNL     1     -10.425  17.038  67.938  1.00  0.00    -0.354 C  
HETATM   36  C   UNL     1      -9.308  16.989  68.990  1.00  0.00    -0.167 C  
ENDBRANCH  30  31
ENDBRANCH  29  30
ENDBRANCH  28  29
ENDBRANCH  23  28
ENDBRANCH  20  22
ENDBRANCH  10  20
ENDBRANCH   6   9
TORSDOF 7
ENDMDL
MODEL      180
REMARK 921   NORMALIZED FREE ENERGY PREDICTED BY IDOCK:   -3.87 KCAL/MOL
REMARK 922        TOTAL FREE ENERGY PREDICTED BY IDOCK:   -7.53 KCAL/MOL
REMARK 923 INTER-LIGAND FREE ENERGY PREDICTED BY IDOCK:   -7.22 KCAL/MOL
REMARK 924 INTRA-LIGAND FREE ENERGY PREDICTED BY IDOCK:   -0.31 KCAL/MOL
REMARK 927      BINDING AFFINITY PREDICTED BY RF-SCORE:    0.00 PKD
ROOT
HETATM    1  O   UNL     1     -10.477  17.773  67.111  1.00  0.00    -0.350 OA 
HETATM    2  H   UNL     1     -10.060  18.457  67.622  1.00  0.00     0.000 HD 
HETATM    3  C   UNL     1     -10.742  16.544  67.636  1.00  0.00    -0.311 A  
HETATM    4  C   UNL     1     -11.351  15.544  66.890  1.00  0.00    -0.079 A  
HETATM    5  C   UNL     1     -11.660  14.313  67.490  1.00  0.00    -0.390 A  
HETATM    6  C   UNL     1     -11.348  14.058  68.837  1.00  0.00    -0.314 A  
HETATM    7  C   UNL     1     -10.673  15.073  69.542  1.00  0.00    -0.266 A  
HETATM    8  C   UNL     1     -10.387  16.314  68.951  1.00  0.00    -0.263 A  
ENDROOT
BRANCH   6   9
HETATM    9  C   UNL     1     -11.772  12.800  69.525  1.00  0.00    -0.318 A  
HETATM   10  C   UNL     1     -11.623  11.438  69.221  1.00  0.00    -0.384 A  
HETATM   11  C   UNL     1     -12.749   8.566  71.559  1.00  0.00    -0.340 A  
HETATM   12  C   UNL     1     -12.163  10.578  70.273  1.00  0.00    -0.393 A  
HETATM   13  O   UNL     1     -13.968   8.720  73.564  1.00  0.00    -1.055 OA 
HETATM   14  C   UNL     1     -12.787  11.322  71.273  1.00  0.00    -0.389 A  
HETATM   15  H   UNL     1     -13.954   7.773  73.640  1.00  0.00     0.000 HD 
HETATM   16  C   UNL     1     -12.131   9.165  70.456  1.00  0.00    -0.014 A  
HETATM   17  S   UNL     1     -12.705  12.992  70.959  1.00  0.00    -0.182 SA 
HETATM   18  C   UNL     1     -13.397  10.731  72.397  1.00  0.00     0.086 A  
HETATM   19  C   UNL     1     -13.376   9.348  72.508  1.00  0.00    -0.343 A  
BRANCH  10  20
HETATM   20  C   UNL     1     -10.871  10.958  68.059  1.00  0.00    -0.245 C  
HETATM   21  O   UNL     1     -11.176  11.337  66.928  1.00  0.00    -0.298 OA 
BRANCH  20  22
HETATM   22  C   UNL     1      -9.720  10.009  68.173  1.00  0.00    -0.156 A  
HETATM   23  C   UNL     1      -7.787   7.936  68.329  1.00  0.00    -0.120 A  
HETATM   24  C   UNL     1      -7.699   9.051  69.168  1.00  0.00    -0.092 A  
HETATM   25  C   UNL     1      -9.776   8.903  67.322  1.00  0.00    -0.235 A  
HETATM   26  C   UNL     1      -8.663  10.086  69.094  1.00  0.00    -0.168 A  
HETATM   27  C   UNL     1      -8.841   7.871  67.418  1.00  0.00    -0.129 A  
BRANCH  23  28
HETATM   28  O   UNL     1      -6.812   6.952  68.444  1.00  0.00    -0.068 OA 
BRANCH  28  29
HETATM   29  C   UNL     1      -5.758   7.137  67.483  1.00  0.00    -0.025 C  
BRANCH  29  30
HETATM   30  C   UNL     1      -5.861   6.367  66.154  1.00  0.00    -0.024 C  
BRANCH  30  31
HETATM   31  N   UNL     1      -7.057   6.806  65.380  1.00  0.00    -0.062 NA 
HETATM   32  C   UNL     1      -6.938   8.145  64.775  1.00  0.00    -0.074 C  
HETATM   33  C   UNL     1      -5.810   8.205  63.749  1.00  0.00    -0.066 C  
HETATM   34  C   UNL     1      -6.107   7.235  62.612  1.00  0.00    -0.050 C  
HETATM   35  C   UNL     1      -6.494   5.840  63.117  1.00  0.00    -0.028 C  
HETATM   36  C   UNL     1      -7.439   5.855  64.326  1.00  0.00    -0.074 C  
ENDBRANCH  30  31
ENDBRANCH  29  30
ENDBRANCH  28  29
ENDBRANCH  23  28
ENDBRANCH  20  22
ENDBRANCH  10  20
ENDBRANCH   6   9
TORSDOF 7
ENDMDL
MODEL      181
REMARK 921   NORMALIZED FREE ENERGY PREDICTED BY IDOCK:   -3.87 KCAL/MOL
REMARK 922        TOTAL FREE ENERGY PREDICTED BY IDOCK:   -7.53 KCAL/MOL
REMARK 923 INTER-LIGAND FREE ENERGY PREDICTED BY IDOCK:   -5.59 KCAL/MOL
REMARK 924 INTRA-LIGAND FREE ENERGY PREDICTED BY IDOCK:   -1.94 KCAL/MOL
REMARK 927      BINDING AFFINITY PREDICTED BY RF-SCORE:    0.00 PKD
ROOT
HETATM    1  O   UNL     1     -14.217   6.450  72.530  1.00  0.00    -0.596 OA 
HETATM    2  H   UNL     1     -14.975   6.834  72.955  1.00  0.00     0.000 HD 
HETATM    3  C   UNL     1     -13.349   7.198  71.794  1.00  0.00    -0.283 A  
HETATM    4  C   UNL     1     -12.240   6.637  71.174  1.00  0.00    -0.357 A  
HETATM    5  C   UNL     1     -11.340   7.457  70.474  1.00  0.00    -0.295 A  
HETATM    6  C   UNL     1     -11.544   8.843  70.370  1.00  0.00    -0.123 A  
HETATM    7  C   UNL     1     -12.712   9.365  70.959  1.00  0.00    -0.270 A  
HETATM    8  C   UNL     1     -13.599   8.552  71.680  1.00  0.00    -0.393 A  
ENDROOT
BRANCH   6   9
HETATM    9  C   UNL     1     -10.538   9.748  69.732  1.00  0.00    -0.257 A  
HETATM   10  C   UNL     1      -9.149   9.667  69.548  1.00  0.00    -0.209 A  
HETATM   11  C   UNL     1      -7.078  12.265  67.565  1.00  0.00    -0.142 A  
HETATM   12  C   UNL     1      -8.630  10.800  68.783  1.00  0.00    -0.156 A  
HETATM   13  O   UNL     1      -7.797  14.316  66.666  1.00  0.00    -0.243 OA 
HETATM   14  C   UNL     1      -9.626  11.735  68.513  1.00  0.00    -0.170 A  
HETATM   15  H   UNL     1      -6.915  14.485  66.357  1.00  0.00     0.000 HD 
HETATM   16  C   UNL     1      -7.334  11.079  68.260  1.00  0.00    -0.088 A  
HETATM   17  S   UNL     1     -11.131  11.254  69.144  1.00  0.00    -0.271 SA 
HETATM   18  C   UNL     1      -9.384  12.924  67.798  1.00  0.00    -0.203 A  
HETATM   19  C   UNL     1      -8.095  13.172  67.346  1.00  0.00    -0.179 A  
BRANCH  10  20
HETATM   20  C   UNL     1      -8.360   8.499  69.944  1.00  0.00    -0.123 C  
HETATM   21  O   UNL     1      -8.094   8.308  71.132  1.00  0.00    -0.094 OA 
BRANCH  20  22
HETATM   22  C   UNL     1      -7.846   7.495  68.962  1.00  0.00    -0.120 A  
HETATM   23  C   UNL     1      -6.581   5.824  67.046  1.00  0.00    -0.056 A  
HETATM   24  C   UNL     1      -7.974   5.943  67.072  1.00  0.00    -0.102 A  
HETATM   25  C   UNL     1      -6.457   7.341  68.940  1.00  0.00    -0.040 A  
HETATM   26  C   UNL     1      -8.608   6.777  68.025  1.00  0.00    -0.122 A  
HETATM   27  C   UNL     1      -5.835   6.542  67.980  1.00  0.00    -0.016 A  
BRANCH  23  28
HETATM   28  O   UNL     1      -6.014   4.989  66.090  1.00  0.00    -0.021 OA 
BRANCH  28  29
HETATM   29  C   UNL     1      -5.194   5.725  65.166  1.00  0.00    -0.010 C  
BRANCH  29  30
HETATM   30  C   UNL     1      -5.404   7.248  65.081  1.00  0.00    -0.029 C  
BRANCH  30  31
HETATM   31  N   UNL     1      -6.160   7.609  63.848  1.00  0.00    -0.049 NA 
HETATM   32  C   UNL     1      -7.617   7.733  64.036  1.00  0.00    -0.113 C  
HETATM   33  C   UNL     1      -7.970   8.853  65.010  1.00  0.00    -0.125 C  
HETATM   34  C   UNL     1      -7.486  10.184  64.447  1.00  0.00    -0.123 C  
HETATM   35  C   UNL     1      -6.028  10.127  63.975  1.00  0.00    -0.140 C  
HETATM   36  C   UNL     1      -5.669   8.842  63.215  1.00  0.00    -0.073 C  
ENDBRANCH  30  31
ENDBRANCH  29  30
ENDBRANCH  28  29
ENDBRANCH  23  28
ENDBRANCH  20  22
ENDBRANCH  10  20
ENDBRANCH   6   9
TORSDOF 7
ENDMDL
MODEL      182
REMARK 921   NORMALIZED FREE ENERGY PREDICTED BY IDOCK:   -3.82 KCAL/MOL
REMARK 922        TOTAL FREE ENERGY PREDICTED BY IDOCK:   -7.47 KCAL/MOL
REMARK 923 INTER-LIGAND FREE ENERGY PREDICTED BY IDOCK:   -5.75 KCAL/MOL
REMARK 924 INTRA-LIGAND FREE ENERGY PREDICTED BY IDOCK:   -1.71 KCAL/MOL
REMARK 927      BINDING AFFINITY PREDICTED BY RF-SCORE:    0.00 PKD
ROOT
HETATM    1  O   UNL     1      -7.266   5.309  73.459  1.00  0.00    -0.083 OA 
HETATM    2  H   UNL     1      -6.373   5.266  73.779  1.00  0.00     0.000 HD 
HETATM    3  C   UNL     1      -7.556   5.286  72.129  1.00  0.00    -0.099 A  
HETATM    4  C   UNL     1      -8.862   5.349  71.661  1.00  0.00    -0.143 A  
HETATM    5  C   UNL     1      -9.118   5.261  70.283  1.00  0.00    -0.169 A  
HETATM    6  C   UNL     1      -8.072   5.127  69.353  1.00  0.00    -0.087 A  
HETATM    7  C   UNL     1      -6.758   5.131  69.862  1.00  0.00    -0.040 A  
HETATM    8  C   UNL     1      -6.503   5.192  71.240  1.00  0.00    -0.031 A  
ENDROOT
BRANCH   6   9
HETATM    9  C   UNL     1      -8.328   4.915  67.896  1.00  0.00    -0.103 A  
HETATM   10  C   UNL     1      -8.266   5.755  66.774  1.00  0.00    -0.105 A  
HETATM   11  C   UNL     1      -8.823   4.552  63.138  1.00  0.00    -0.128 A  
HETATM   12  C   UNL     1      -8.546   5.036  65.532  1.00  0.00    -0.139 A  
HETATM   13  O   UNL     1      -9.527   2.433  62.402  1.00  0.00    -0.090 OA 
HETATM   14  C   UNL     1      -8.908   3.713  65.777  1.00  0.00    -0.127 A  
HETATM   15  H   UNL     1      -9.502   2.741  61.504  1.00  0.00     0.000 HD 
HETATM   16  C   UNL     1      -8.480   5.437  64.166  1.00  0.00    -0.085 A  
HETATM   17  S   UNL     1      -8.892   3.353  67.439  1.00  0.00    -0.145 SA 
HETATM   18  C   UNL     1      -9.236   2.808  64.749  1.00  0.00    -0.143 A  
HETATM   19  C   UNL     1      -9.199   3.258  63.437  1.00  0.00    -0.096 A  
BRANCH  10  20
HETATM   20  C   UNL     1      -7.816   7.147  66.845  1.00  0.00    -0.107 C  
HETATM   21  O   UNL     1      -6.613   7.405  66.896  1.00  0.00    -0.053 OA 
BRANCH  20  22
HETATM   22  C   UNL     1      -8.762   8.306  66.859  1.00  0.00    -0.141 A  
HETATM   23  C   UNL     1     -10.755  10.310  67.137  1.00  0.00    -0.241 A  
HETATM   24  C   UNL     1     -10.188  10.044  65.887  1.00  0.00    -0.275 A  
HETATM   25  C   UNL     1      -9.319   8.604  68.105  1.00  0.00    -0.145 A  
HETATM   26  C   UNL     1      -9.195   9.044  65.745  1.00  0.00    -0.293 A  
HETATM   27  C   UNL     1     -10.319   9.570  68.236  1.00  0.00    -0.244 A  
BRANCH  23  28
HETATM   28  O   UNL     1     -11.724  11.303  67.218  1.00  0.00    -0.566 OA 
BRANCH  28  29
HETATM   29  C   UNL     1     -11.444  12.228  68.283  1.00  0.00    -0.315 C  
BRANCH  29  30
HETATM   30  C   UNL     1     -10.255  13.190  68.099  1.00  0.00    -0.239 C  
BRANCH  30  31
HETATM   31  N   UNL     1     -10.390  14.373  68.996  1.00  0.00    -0.225 NA 
HETATM   32  C   UNL     1      -9.116  15.028  69.341  1.00  0.00    -0.115 C  
HETATM   33  C   UNL     1      -8.416  15.594  68.109  1.00  0.00    -0.147 C  
HETATM   34  C   UNL     1      -9.299  16.661  67.471  1.00  0.00    -0.219 C  
HETATM   35  C   UNL     1     -10.744  16.187  67.276  1.00  0.00    -0.277 C  
HETATM   36  C   UNL     1     -11.306  15.394  68.464  1.00  0.00    -0.335 C  
ENDBRANCH  30  31
ENDBRANCH  29  30
ENDBRANCH  28  29
ENDBRANCH  23  28
ENDBRANCH  20  22
ENDBRANCH  10  20
ENDBRANCH   6   9
TORSDOF 7
ENDMDL
MODEL      183
REMARK 921   NORMALIZED FREE ENERGY PREDICTED BY IDOCK:   -3.81 KCAL/MOL
REMARK 922        TOTAL FREE ENERGY PREDICTED BY IDOCK:   -7.46 KCAL/MOL
REMARK 923 INTER-LIGAND FREE ENERGY PREDICTED BY IDOCK:   -6.45 KCAL/MOL
REMARK 924 INTRA-LIGAND FREE ENERGY PREDICTED BY IDOCK:   -1.00 KCAL/MOL
REMARK 927      BINDING AFFINITY PREDICTED BY RF-SCORE:    0.00 PKD
ROOT
HETATM    1  O   UNL     1     -12.179  15.319  67.841  1.00  0.00    -0.412 OA 
HETATM    2  H   UNL     1     -12.072  15.487  66.912  1.00  0.00     0.000 HD 
HETATM    3  C   UNL     1     -12.029  14.072  68.369  1.00  0.00    -0.343 A  
HETATM    4  C   UNL     1     -12.186  13.827  69.727  1.00  0.00    -0.368 A  
HETATM    5  C   UNL     1     -11.963  12.537  70.235  1.00  0.00    -0.364 A  
HETATM    6  C   UNL     1     -11.599  11.473  69.393  1.00  0.00    -0.388 A  
HETATM    7  C   UNL     1     -11.513  11.747  68.014  1.00  0.00    -0.388 A  
HETATM    8  C   UNL     1     -11.709  13.041  67.508  1.00  0.00    -0.421 A  
ENDROOT
BRANCH   6   9
HETATM    9  C   UNL     1     -11.244  10.123  69.928  1.00  0.00    -0.287 A  
HETATM   10  C   UNL     1     -10.087   9.330  69.856  1.00  0.00    -0.230 A  
HETATM   11  C   UNL     1      -9.668   5.946  71.685  1.00  0.00    -0.185 A  
HETATM   12  C   UNL     1     -10.220   8.093  70.623  1.00  0.00    -0.211 A  
HETATM   13  O   UNL     1     -11.285   4.737  72.891  1.00  0.00    -0.243 OA 
HETATM   14  C   UNL     1     -11.501   7.954  71.154  1.00  0.00    -0.273 A  
HETATM   15  H   UNL     1     -10.646   4.054  73.054  1.00  0.00     0.000 HD 
HETATM   16  C   UNL     1      -9.286   7.062  70.934  1.00  0.00    -0.156 A  
HETATM   17  S   UNL     1     -12.495   9.276  70.755  1.00  0.00     0.050 SA 
HETATM   18  C   UNL     1     -11.891   6.844  71.927  1.00  0.00    -0.351 A  
HETATM   19  C   UNL     1     -10.958   5.845  72.167  1.00  0.00    -0.266 A  
BRANCH  10  20
HETATM   20  C   UNL     1      -8.851   9.783  69.215  1.00  0.00    -0.169 C  
HETATM   21  O   UNL     1      -8.251  10.765  69.655  1.00  0.00    -0.040 OA 
BRANCH  20  22
HETATM   22  C   UNL     1      -8.256   9.100  68.024  1.00  0.00    -0.112 A  
HETATM   23  C   UNL     1      -7.481   7.777  65.635  1.00  0.00    -0.075 A  
HETATM   24  C   UNL     1      -6.834   7.496  66.843  1.00  0.00    -0.070 A  
HETATM   25  C   UNL     1      -8.873   9.390  66.804  1.00  0.00    -0.142 A  
HETATM   26  C   UNL     1      -7.219   8.153  68.036  1.00  0.00    -0.094 A  
HETATM   27  C   UNL     1      -8.510   8.719  65.636  1.00  0.00    -0.174 A  
BRANCH  23  28
HETATM   28  O   UNL     1      -7.059   7.103  64.495  1.00  0.00    -0.053 OA 
BRANCH  28  29
HETATM   29  C   UNL     1      -7.752   5.854  64.332  1.00  0.00    -0.099 C  
BRANCH  29  30
HETATM   30  C   UNL     1      -7.393   4.992  63.108  1.00  0.00    -0.049 C  
BRANCH  30  31
HETATM   31  N   UNL     1      -8.316   3.828  62.992  1.00  0.00    -0.084 NA 
HETATM   32  C   UNL     1      -7.647   2.514  62.971  1.00  0.00    -0.061 C  
HETATM   33  C   UNL     1      -6.892   2.241  64.268  1.00  0.00    -0.039 C  
HETATM   34  C   UNL     1      -7.878   2.213  65.431  1.00  0.00    -0.077 C  
HETATM   35  C   UNL     1      -8.819   3.423  65.433  1.00  0.00    -0.132 C  
HETATM   36  C   UNL     1      -9.345   3.805  64.043  1.00  0.00    -0.144 C  
ENDBRANCH  30  31
ENDBRANCH  29  30
ENDBRANCH  28  29
ENDBRANCH  23  28
ENDBRANCH  20  22
ENDBRANCH  10  20
ENDBRANCH   6   9
TORSDOF 7
ENDMDL
MODEL      184
REMARK 921   NORMALIZED FREE ENERGY PREDICTED BY IDOCK:   -3.81 KCAL/MOL
REMARK 922        TOTAL FREE ENERGY PREDICTED BY IDOCK:   -7.45 KCAL/MOL
REMARK 923 INTER-LIGAND FREE ENERGY PREDICTED BY IDOCK:   -6.40 KCAL/MOL
REMARK 924 INTRA-LIGAND FREE ENERGY PREDICTED BY IDOCK:   -1.04 KCAL/MOL
REMARK 927      BINDING AFFINITY PREDICTED BY RF-SCORE:    0.00 PKD
ROOT
HETATM    1  O   UNL     1     -12.478  12.486  71.168  1.00  0.00    -0.345 OA 
HETATM    2  H   UNL     1     -13.413  12.360  71.284  1.00  0.00     0.000 HD 
HETATM    3  C   UNL     1     -11.805  11.941  70.116  1.00  0.00    -0.308 A  
HETATM    4  C   UNL     1     -10.439  12.125  69.946  1.00  0.00     1.104 A  
HETATM    5  C   UNL     1      -9.798  11.595  68.815  1.00  0.00    -0.129 A  
HETATM    6  C   UNL     1     -10.507  10.861  67.849  1.00  0.00    -0.227 A  
HETATM    7  C   UNL     1     -11.878  10.643  68.090  1.00  0.00     0.082 A  
HETATM    8  C   UNL     1     -12.526  11.193  69.206  1.00  0.00    -0.008 A  
ENDROOT
BRANCH   6   9
HETATM    9  C   UNL     1      -9.868  10.390  66.582  1.00  0.00    -0.202 A  
HETATM   10  C   UNL     1      -9.941  10.820  65.248  1.00  0.00    -0.342 A  
HETATM   11  C   UNL     1      -7.823   9.322  62.376  1.00  0.00    -0.123 A  
HETATM   12  C   UNL     1      -9.049  10.057  64.375  1.00  0.00    -0.289 A  
HETATM   13  O   UNL     1      -6.398   7.453  62.445  1.00  0.00    -0.060 OA 
HETATM   14  C   UNL     1      -8.422   9.021  65.064  1.00  0.00    -0.174 A  
HETATM   15  H   UNL     1      -6.212   7.566  61.520  1.00  0.00     0.000 HD 
HETATM   16  C   UNL     1      -8.704  10.211  63.001  1.00  0.00    -0.211 A  
HETATM   17  S   UNL     1      -8.879   8.985  66.702  1.00  0.00    -0.137 SA 
HETATM   18  C   UNL     1      -7.519   8.132  64.449  1.00  0.00    -0.103 A  
HETATM   19  C   UNL     1      -7.248   8.296  63.098  1.00  0.00    -0.094 A  
BRANCH  10  20
HETATM   20  C   UNL     1     -10.706  11.997  64.831  1.00  0.00    -0.301 C  
HETATM   21  O   UNL     1     -11.672  11.870  64.078  1.00  0.00    -0.384 OA 
BRANCH  20  22
HETATM   22  C   UNL     1     -10.372  13.384  65.283  1.00  0.00    -0.330 A  
HETATM   23  C   UNL     1      -9.790  16.118  65.783  1.00  0.00    -0.320 A  
HETATM   24  C   UNL     1      -9.080  15.110  66.443  1.00  0.00    -0.331 A  
HETATM   25  C   UNL     1     -11.091  14.403  64.654  1.00  0.00    -0.363 A  
HETATM   26  C   UNL     1      -9.366  13.745  66.195  1.00  0.00    -0.104 A  
HETATM   27  C   UNL     1     -10.786  15.746  64.879  1.00  0.00    -0.385 A  
BRANCH  23  28
HETATM   28  O   UNL     1      -9.467  17.439  66.067  1.00  0.00    -0.473 OA 
BRANCH  28  29
HETATM   29  C   UNL     1      -8.230  17.536  66.792  1.00  0.00    -0.244 C  
BRANCH  29  30
HETATM   30  C   UNL     1      -7.918  18.869  67.497  1.00  0.00    -0.244 C  
BRANCH  30  31
HETATM   31  N   UNL     1      -6.452  19.142  67.487  1.00  0.00    -0.193 NA 
HETATM   32  C   UNL     1      -5.702  18.418  66.445  1.00  0.00    -0.154 C  
HETATM   33  C   UNL     1      -6.147  18.819  65.042  1.00  0.00    -0.298 C  
HETATM   34  C   UNL     1      -5.873  20.303  64.829  1.00  0.00    -0.270 C  
HETATM   35  C   UNL     1      -6.395  21.168  65.982  1.00  0.00    -0.227 C  
HETATM   36  C   UNL     1      -6.136  20.574  67.373  1.00  0.00    -0.214 C  
ENDBRANCH  30  31
ENDBRANCH  29  30
ENDBRANCH  28  29
ENDBRANCH  23  28
ENDBRANCH  20  22
ENDBRANCH  10  20
ENDBRANCH   6   9
TORSDOF 7
ENDMDL
MODEL      185
REMARK 921   NORMALIZED FREE ENERGY PREDICTED BY IDOCK:   -3.80 KCAL/MOL
REMARK 922        TOTAL FREE ENERGY PREDICTED BY IDOCK:   -7.44 KCAL/MOL
REMARK 923 INTER-LIGAND FREE ENERGY PREDICTED BY IDOCK:   -5.48 KCAL/MOL
REMARK 924 INTRA-LIGAND FREE ENERGY PREDICTED BY IDOCK:   -1.96 KCAL/MOL
REMARK 927      BINDING AFFINITY PREDICTED BY RF-SCORE:    0.00 PKD
ROOT
HETATM    1  O   UNL     1      -8.529   6.651  71.920  1.00  0.00    -0.114 OA 
HETATM    2  H   UNL     1      -7.855   6.846  72.561  1.00  0.00     0.000 HD 
HETATM    3  C   UNL     1      -8.951   7.579  71.016  1.00  0.00    -0.147 A  
HETATM    4  C   UNL     1      -9.935   7.296  70.079  1.00  0.00    -0.184 A  
HETATM    5  C   UNL     1     -10.296   8.264  69.128  1.00  0.00    -0.225 A  
HETATM    6  C   UNL     1      -9.691   9.532  69.111  1.00  0.00    -0.178 A  
HETATM    7  C   UNL     1      -8.743   9.804  70.117  1.00  0.00    -0.215 A  
HETATM    8  C   UNL     1      -8.363   8.829  71.052  1.00  0.00    -0.208 A  
ENDROOT
BRANCH   6   9
HETATM    9  C   UNL     1      -9.976  10.533  68.038  1.00  0.00    -0.155 A  
HETATM   10  C   UNL     1      -9.195  11.107  67.023  1.00  0.00    -0.172 A  
HETATM   11  C   UNL     1     -10.578  13.518  64.331  1.00  0.00    -0.394 A  
HETATM   12  C   UNL     1      -9.975  11.999  66.166  1.00  0.00    -0.254 A  
HETATM   13  O   UNL     1     -12.727  14.464  64.196  1.00  0.00    -0.676 OA 
HETATM   14  C   UNL     1     -11.280  12.142  66.631  1.00  0.00    -0.324 A  
HETATM   15  H   UNL     1     -12.465  14.936  63.414  1.00  0.00     0.000 HD 
HETATM   16  C   UNL     1      -9.645  12.693  64.966  1.00  0.00     0.130 A  
HETATM   17  S   UNL     1     -11.555  11.221  68.034  1.00  0.00    -0.234 SA 
HETATM   18  C   UNL     1     -12.234  12.956  65.989  1.00  0.00    -0.431 A  
HETATM   19  C   UNL     1     -11.852  13.646  64.847  1.00  0.00    -0.375 A  
BRANCH  10  20
HETATM   20  C   UNL     1      -7.804  10.720  66.773  1.00  0.00    -0.135 C  
HETATM   21  O   UNL     1      -6.888  11.494  67.054  1.00  0.00    -0.125 OA 
BRANCH  20  22
HETATM   22  C   UNL     1      -7.423   9.400  66.181  1.00  0.00    -0.096 A  
HETATM   23  C   UNL     1      -6.434   6.880  65.325  1.00  0.00    -0.043 A  
HETATM   24  C   UNL     1      -6.861   7.828  64.390  1.00  0.00    -0.059 A  
HETATM   25  C   UNL     1      -7.019   8.430  67.103  1.00  0.00    -0.075 A  
HETATM   26  C   UNL     1      -7.353   9.086  64.814  1.00  0.00    -0.100 A  
HETATM   27  C   UNL     1      -6.507   7.202  66.680  1.00  0.00    -0.054 A  
BRANCH  23  28
HETATM   28  O   UNL     1      -5.962   5.661  64.851  1.00  0.00    -0.021 OA 
BRANCH  28  29
HETATM   29  C   UNL     1      -6.627   4.555  65.485  1.00  0.00    -0.044 C  
BRANCH  29  30
HETATM   30  C   UNL     1      -8.148   4.425  65.282  1.00  0.00    -0.102 C  
BRANCH  30  31
HETATM   31  N   UNL     1      -8.502   3.059  64.803  1.00  0.00    -0.094 NA 
HETATM   32  C   UNL     1      -9.940   2.740  64.867  1.00  0.00     0.192 C  
HETATM   33  C   UNL     1     -10.764   3.656  63.967  1.00  0.00    -0.250 C  
HETATM   34  C   UNL     1     -10.335   3.461  62.517  1.00  0.00    -0.157 C  
HETATM   35  C   UNL     1      -8.813   3.524  62.342  1.00  0.00    -0.085 C  
HETATM   36  C   UNL     1      -8.029   2.789  63.437  1.00  0.00    -0.073 C  
ENDBRANCH  30  31
ENDBRANCH  29  30
ENDBRANCH  28  29
ENDBRANCH  23  28
ENDBRANCH  20  22
ENDBRANCH  10  20
ENDBRANCH   6   9
TORSDOF 7
ENDMDL
MODEL      186
REMARK 921   NORMALIZED FREE ENERGY PREDICTED BY IDOCK:   -3.75 KCAL/MOL
REMARK 922        TOTAL FREE ENERGY PREDICTED BY IDOCK:   -7.37 KCAL/MOL
REMARK 923 INTER-LIGAND FREE ENERGY PREDICTED BY IDOCK:   -5.22 KCAL/MOL
REMARK 924 INTRA-LIGAND FREE ENERGY PREDICTED BY IDOCK:   -2.15 KCAL/MOL
REMARK 927      BINDING AFFINITY PREDICTED BY RF-SCORE:    0.00 PKD
ROOT
HETATM    1  O   UNL     1      -9.265   6.631  71.490  1.00  0.00    -0.147 OA 
HETATM    2  H   UNL     1      -8.725   6.820  72.249  1.00  0.00     0.000 HD 
HETATM    3  C   UNL     1      -9.601   7.596  70.589  1.00  0.00    -0.163 A  
HETATM    4  C   UNL     1     -10.390   7.320  69.480  1.00  0.00    -0.230 A  
HETATM    5  C   UNL     1     -10.661   8.332  68.545  1.00  0.00    -0.143 A  
HETATM    6  C   UNL     1     -10.163   9.636  68.714  1.00  0.00    -0.213 A  
HETATM    7  C   UNL     1      -9.421   9.891  69.884  1.00  0.00    -0.256 A  
HETATM    8  C   UNL     1      -9.127   8.875  70.805  1.00  0.00    -0.260 A  
ENDROOT
BRANCH   6   9
HETATM    9  C   UNL     1     -10.342  10.695  67.674  1.00  0.00    -0.209 A  
HETATM   10  C   UNL     1      -9.474  11.289  66.744  1.00  0.00    -0.196 A  
HETATM   11  C   UNL     1     -10.593  13.869  64.086  1.00  0.00     0.141 A  
HETATM   12  C   UNL     1     -10.165  12.246  65.881  1.00  0.00    -0.274 A  
HETATM   13  O   UNL     1     -12.697  14.893  63.852  1.00  0.00    -0.851 OA 
HETATM   14  C   UNL     1     -11.495  12.411  66.263  1.00  0.00    -0.371 A  
HETATM   15  H   UNL     1     -12.367  15.392  63.114  1.00  0.00     0.000 HD 
HETATM   16  C   UNL     1      -9.731  12.984  64.742  1.00  0.00     0.103 A  
HETATM   17  S   UNL     1     -11.895  11.435  67.597  1.00  0.00     0.074 SA 
HETATM   18  C   UNL     1     -12.376  13.286  65.598  1.00  0.00    -0.521 A  
HETATM   19  C   UNL     1     -11.895  14.015  64.520  1.00  0.00    -0.434 A  
BRANCH  10  20
HETATM   20  C   UNL     1      -8.082  10.867  66.571  1.00  0.00    -0.154 C  
HETATM   21  O   UNL     1      -7.205  11.705  66.359  1.00  0.00    -0.022 OA 
BRANCH  20  22
HETATM   22  C   UNL     1      -7.653   9.435  66.642  1.00  0.00    -0.094 A  
HETATM   23  C   UNL     1      -6.497   6.851  66.861  1.00  0.00    -0.046 A  
HETATM   24  C   UNL     1      -7.461   7.116  65.883  1.00  0.00    -0.080 A  
HETATM   25  C   UNL     1      -6.710   9.146  67.632  1.00  0.00    -0.069 A  
HETATM   26  C   UNL     1      -8.038   8.404  65.770  1.00  0.00    -0.117 A  
HETATM   27  C   UNL     1      -6.122   7.884  67.720  1.00  0.00    -0.046 A  
BRANCH  23  28
HETATM   28  O   UNL     1      -5.966   5.568  66.926  1.00  0.00    -0.017 OA 
BRANCH  28  29
HETATM   29  C   UNL     1      -5.931   5.079  68.277  1.00  0.00    -0.026 C  
BRANCH  29  30
HETATM   30  C   UNL     1      -7.258   4.610  68.902  1.00  0.00    -0.053 C  
BRANCH  30  31
HETATM   31  N   UNL     1      -7.064   3.346  69.668  1.00  0.00    -0.041 NA 
HETATM   32  C   UNL     1      -8.069   3.107  70.719  1.00  0.00    -0.053 C  
HETATM   33  C   UNL     1      -9.472   2.958  70.139  1.00  0.00    -0.198 C  
HETATM   34  C   UNL     1      -9.511   1.749  69.212  1.00  0.00    -0.137 C  
HETATM   35  C   UNL     1      -8.355   1.744  68.205  1.00  0.00    -0.076 C  
HETATM   36  C   UNL     1      -7.004   2.157  68.806  1.00  0.00    -0.040 C  
ENDBRANCH  30  31
ENDBRANCH  29  30
ENDBRANCH  28  29
ENDBRANCH  23  28
ENDBRANCH  20  22
ENDBRANCH  10  20
ENDBRANCH   6   9
TORSDOF 7
ENDMDL
MODEL      187
REMARK 921   NORMALIZED FREE ENERGY PREDICTED BY IDOCK:   -3.71 KCAL/MOL
REMARK 922        TOTAL FREE ENERGY PREDICTED BY IDOCK:   -7.31 KCAL/MOL
REMARK 923 INTER-LIGAND FREE ENERGY PREDICTED BY IDOCK:   -6.53 KCAL/MOL
REMARK 924 INTRA-LIGAND FREE ENERGY PREDICTED BY IDOCK:   -0.78 KCAL/MOL
REMARK 927      BINDING AFFINITY PREDICTED BY RF-SCORE:    0.00 PKD
ROOT
HETATM    1  O   UNL     1     -12.108  13.696  63.200  1.00  0.00    -0.902 OA 
HETATM    2  H   UNL     1     -11.941  12.783  62.998  1.00  0.00     0.000 HD 
HETATM    3  C   UNL     1     -11.417  14.356  64.171  1.00  0.00    -0.088 A  
HETATM    4  C   UNL     1     -11.662  15.691  64.466  1.00  0.00    -0.220 A  
HETATM    5  C   UNL     1     -10.884  16.347  65.434  1.00  0.00    -0.249 A  
HETATM    6  C   UNL     1      -9.865  15.675  66.131  1.00  0.00    -0.340 A  
HETATM    7  C   UNL     1      -9.690  14.306  65.849  1.00  0.00    -0.289 A  
HETATM    8  C   UNL     1     -10.449  13.656  64.864  1.00  0.00    -0.426 A  
ENDROOT
BRANCH   6   9
HETATM    9  C   UNL     1      -8.951  16.384  67.078  1.00  0.00    -0.212 A  
HETATM   10  C   UNL     1      -7.767  16.014  67.734  1.00  0.00    -0.154 A  
HETATM   11  C   UNL     1      -5.670  18.415  69.929  1.00  0.00    -0.242 A  
HETATM   12  C   UNL     1      -7.203  17.115  68.515  1.00  0.00    -0.220 A  
HETATM   13  O   UNL     1      -6.201  20.605  70.600  1.00  0.00    -0.510 OA 
HETATM   14  C   UNL     1      -8.036  18.232  68.499  1.00  0.00    -0.314 A  
HETATM   15  H   UNL     1      -5.390  20.646  71.093  1.00  0.00     0.000 HD 
HETATM   16  C   UNL     1      -5.979  17.242  69.232  1.00  0.00    -0.216 A  
HETATM   17  S   UNL     1      -9.432  17.965  67.565  1.00  0.00    -0.262 SA 
HETATM   18  C   UNL     1      -7.727  19.424  69.182  1.00  0.00    -0.287 A  
HETATM   19  C   UNL     1      -6.542  19.485  69.902  1.00  0.00    -0.219 A  
BRANCH  10  20
HETATM   20  C   UNL     1      -7.108  14.724  67.520  1.00  0.00    -0.184 C  
HETATM   21  O   UNL     1      -6.196  14.626  66.697  1.00  0.00     1.004 OA 
BRANCH  20  22
HETATM   22  C   UNL     1      -7.488  13.484  68.266  1.00  0.00    -0.122 A  
HETATM   23  C   UNL     1      -7.880  10.992  69.570  1.00  0.00     0.096 A  
HETATM   24  C   UNL     1      -8.952  11.645  68.952  1.00  0.00     0.074 A  
HETATM   25  C   UNL     1      -6.435  12.833  68.913  1.00  0.00    -0.091 A  
HETATM   26  C   UNL     1      -8.759  12.887  68.299  1.00  0.00    -0.168 A  
HETATM   27  C   UNL     1      -6.622  11.595  69.529  1.00  0.00    -0.111 A  
BRANCH  23  28
HETATM   28  O   UNL     1      -8.128   9.777  70.197  1.00  0.00    -0.170 OA 
BRANCH  28  29
HETATM   29  C   UNL     1      -7.429   8.698  69.553  1.00  0.00    -0.072 C  
BRANCH  29  30
HETATM   30  C   UNL     1      -8.262   7.500  69.061  1.00  0.00    -0.128 C  
BRANCH  30  31
HETATM   31  N   UNL     1      -9.719   7.767  69.223  1.00  0.00    -0.164 NA 
HETATM   32  C   UNL     1     -10.367   8.369  68.043  1.00  0.00    -0.215 C  
HETATM   33  C   UNL     1     -10.309   7.445  66.831  1.00  0.00    -0.367 C  
HETATM   34  C   UNL     1     -11.065   6.158  67.139  1.00  0.00    -0.335 C  
HETATM   35  C   UNL     1     -10.658   5.544  68.483  1.00  0.00    -0.208 C  
HETATM   36  C   UNL     1     -10.482   6.571  69.610  1.00  0.00    -0.216 C  
ENDBRANCH  30  31
ENDBRANCH  29  30
ENDBRANCH  28  29
ENDBRANCH  23  28
ENDBRANCH  20  22
ENDBRANCH  10  20
ENDBRANCH   6   9
TORSDOF 7
ENDMDL
MODEL      188
REMARK 921   NORMALIZED FREE ENERGY PREDICTED BY IDOCK:   -3.69 KCAL/MOL
REMARK 922        TOTAL FREE ENERGY PREDICTED BY IDOCK:   -7.27 KCAL/MOL
REMARK 923 INTER-LIGAND FREE ENERGY PREDICTED BY IDOCK:   -5.92 KCAL/MOL
REMARK 924 INTRA-LIGAND FREE ENERGY PREDICTED BY IDOCK:   -1.35 KCAL/MOL
REMARK 927      BINDING AFFINITY PREDICTED BY RF-SCORE:    0.00 PKD
ROOT
HETATM    1  O   UNL     1      -6.484   9.935  71.293  1.00  0.00    -0.299 OA 
HETATM    2  H   UNL     1      -7.106  10.534  71.690  1.00  0.00     0.000 HD 
HETATM    3  C   UNL     1      -6.869   8.996  70.385  1.00  0.00    -0.055 A  
HETATM    4  C   UNL     1      -5.960   8.122  69.804  1.00  0.00    -0.029 A  
HETATM    5  C   UNL     1      -6.392   7.210  68.827  1.00  0.00    -0.031 A  
HETATM    6  C   UNL     1      -7.739   7.147  68.431  1.00  0.00    -0.120 A  
HETATM    7  C   UNL     1      -8.641   8.006  69.089  1.00  0.00    -0.137 A  
HETATM    8  C   UNL     1      -8.207   8.936  70.046  1.00  0.00    -0.122 A  
ENDROOT
BRANCH   6   9
HETATM    9  C   UNL     1      -8.197   6.267  67.313  1.00  0.00    -0.109 A  
HETATM   10  C   UNL     1      -8.242   6.425  65.919  1.00  0.00    -0.130 A  
HETATM   11  C   UNL     1      -9.336   3.641  63.463  1.00  0.00    -0.119 A  
HETATM   12  C   UNL     1      -8.720   5.218  65.244  1.00  0.00    -0.151 A  
HETATM   13  O   UNL     1     -10.238   1.529  63.971  1.00  0.00    -0.267 OA 
HETATM   14  C   UNL     1      -9.112   4.243  66.158  1.00  0.00    -0.133 A  
HETATM   15  H   UNL     1     -10.317   1.344  63.043  1.00  0.00     0.000 HD 
HETATM   16  C   UNL     1      -8.817   4.876  63.865  1.00  0.00    -0.077 A  
HETATM   17  S   UNL     1      -8.893   4.758  67.764  1.00  0.00    -0.107 SA 
HETATM   18  C   UNL     1      -9.619   2.988  65.766  1.00  0.00     0.061 A  
HETATM   19  C   UNL     1      -9.734   2.718  64.410  1.00  0.00    -0.124 A  
BRANCH  10  20
HETATM   20  C   UNL     1      -7.718   7.608  65.234  1.00  0.00    -0.110 C  
HETATM   21  O   UNL     1      -6.923   7.480  64.301  1.00  0.00    -0.056 OA 
BRANCH  20  22
HETATM   22  C   UNL     1      -8.106   9.003  65.611  1.00  0.00    -0.115 A  
HETATM   23  C   UNL     1      -9.091  11.630  66.046  1.00  0.00    -0.182 A  
HETATM   24  C   UNL     1      -7.729  11.350  66.197  1.00  0.00     0.073 A  
HETATM   25  C   UNL     1      -9.467   9.294  65.492  1.00  0.00    -0.309 A  
HETATM   26  C   UNL     1      -7.234  10.041  65.979  1.00  0.00    -0.112 A  
HETATM   27  C   UNL     1      -9.946  10.592  65.679  1.00  0.00    -0.332 A  
BRANCH  23  28
HETATM   28  O   UNL     1      -9.520  12.932  66.275  1.00  0.00    -0.254 OA 
BRANCH  28  29
HETATM   29  C   UNL     1      -9.230  13.355  67.618  1.00  0.00    -0.212 C  
BRANCH  29  30
HETATM   30  C   UNL     1      -9.794  14.713  68.077  1.00  0.00    -0.216 C  
BRANCH  30  31
HETATM   31  N   UNL     1     -11.283  14.716  68.014  1.00  0.00    -0.280 NA 
HETATM   32  C   UNL     1     -11.902  13.381  68.099  1.00  0.00    -0.361 C  
HETATM   33  C   UNL     1     -11.604  12.702  69.433  1.00  0.00    -0.369 C  
HETATM   34  C   UNL     1     -12.194  13.532  70.567  1.00  0.00    -0.433 C  
HETATM   35  C   UNL     1     -11.824  15.016  70.462  1.00  0.00    -0.347 C  
HETATM   36  C   UNL     1     -11.898  15.577  69.035  1.00  0.00    -0.354 C  
ENDBRANCH  30  31
ENDBRANCH  29  30
ENDBRANCH  28  29
ENDBRANCH  23  28
ENDBRANCH  20  22
ENDBRANCH  10  20
ENDBRANCH   6   9
TORSDOF 7
ENDMDL
MODEL      189
REMARK 921   NORMALIZED FREE ENERGY PREDICTED BY IDOCK:   -3.54 KCAL/MOL
REMARK 922        TOTAL FREE ENERGY PREDICTED BY IDOCK:   -7.07 KCAL/MOL
REMARK 923 INTER-LIGAND FREE ENERGY PREDICTED BY IDOCK:   -6.57 KCAL/MOL
REMARK 924 INTRA-LIGAND FREE ENERGY PREDICTED BY IDOCK:   -0.50 KCAL/MOL
REMARK 927      BINDING AFFINITY PREDICTED BY RF-SCORE:    0.00 PKD
ROOT
HETATM    1  O   UNL     1     -11.887  14.703  70.648  1.00  0.00    -0.277 OA 
HETATM    2  H   UNL     1     -12.813  14.772  70.849  1.00  0.00     0.000 HD 
HETATM    3  C   UNL     1     -11.418  13.846  69.700  1.00  0.00    -0.248 A  
HETATM    4  C   UNL     1     -10.065  13.746  69.407  1.00  0.00     0.376 A  
HETATM    5  C   UNL     1      -9.632  12.891  68.379  1.00  0.00    -0.176 A  
HETATM    6  C   UNL     1     -10.543  12.113  67.645  1.00  0.00    -0.236 A  
HETATM    7  C   UNL     1     -11.900  12.195  68.014  1.00  0.00    -0.351 A  
HETATM    8  C   UNL     1     -12.337  13.067  69.023  1.00  0.00     0.093 A  
ENDROOT
BRANCH   6   9
HETATM    9  C   UNL     1     -10.117  11.288  66.473  1.00  0.00    -0.217 A  
HETATM   10  C   UNL     1     -10.201  11.471  65.084  1.00  0.00    -0.322 A  
HETATM   11  C   UNL     1      -8.675   9.041  62.488  1.00  0.00    -0.193 A  
HETATM   12  C   UNL     1      -9.560  10.383  64.346  1.00  0.00    -0.375 A  
HETATM   13  O   UNL     1      -7.675   6.947  62.871  1.00  0.00    -0.095 OA 
HETATM   14  C   UNL     1      -9.114   9.378  65.202  1.00  0.00    -0.225 A  
HETATM   15  H   UNL     1      -7.542   6.844  61.936  1.00  0.00     0.000 HD 
HETATM   16  C   UNL     1      -9.297  10.201  62.957  1.00  0.00    -0.330 A  
HETATM   17  S   UNL     1      -9.441   9.745  66.831  1.00  0.00    -0.167 SA 
HETATM   18  C   UNL     1      -8.469   8.213  64.742  1.00  0.00    -0.064 A  
HETATM   19  C   UNL     1      -8.275   8.063  63.376  1.00  0.00    -0.039 A  
BRANCH  10  20
HETATM   20  C   UNL     1     -10.730  12.692  64.472  1.00  0.00    -0.341 C  
HETATM   21  O   UNL     1     -11.478  12.619  63.496  1.00  0.00    -0.461 OA 
BRANCH  20  22
HETATM   22  C   UNL     1     -10.406  14.061  64.980  1.00  0.00    -0.432 A  
HETATM   23  C   UNL     1      -9.967  16.788  65.639  1.00  0.00    -0.134 A  
HETATM   24  C   UNL     1      -8.983  15.829  65.899  1.00  0.00    -0.228 A  
HETATM   25  C   UNL     1     -11.389  15.027  64.753  1.00  0.00    -0.409 A  
HETATM   26  C   UNL     1      -9.198  14.468  65.571  1.00  0.00     0.464 A  
HETATM   27  C   UNL     1     -11.162  16.372  65.052  1.00  0.00    -0.138 A  
BRANCH  23  28
HETATM   28  O   UNL     1      -9.702  18.108  65.985  1.00  0.00    -0.497 OA 
BRANCH  28  29
HETATM   29  C   UNL     1      -8.582  18.204  66.882  1.00  0.00    -0.258 C  
BRANCH  29  30
HETATM   30  C   UNL     1      -7.178  17.963  66.299  1.00  0.00    -0.289 C  
BRANCH  30  31
HETATM   31  N   UNL     1      -6.154  17.937  67.381  1.00  0.00    -0.145 NA 
HETATM   32  C   UNL     1      -6.701  18.056  68.745  1.00  0.00    -0.248 C  
HETATM   33  C   UNL     1      -7.615  16.885  69.094  1.00  0.00    -0.157 C  
HETATM   34  C   UNL     1      -6.815  15.589  69.053  1.00  0.00    -0.139 C  
HETATM   35  C   UNL     1      -5.989  15.448  67.770  1.00  0.00    -0.164 C  
HETATM   36  C   UNL     1      -5.295  16.744  67.330  1.00  0.00    -0.144 C  
ENDBRANCH  30  31
ENDBRANCH  29  30
ENDBRANCH  28  29
ENDBRANCH  23  28
ENDBRANCH  20  22
ENDBRANCH  10  20
ENDBRANCH   6   9
TORSDOF 7
ENDMDL
MODEL      190
REMARK 921   NORMALIZED FREE ENERGY PREDICTED BY IDOCK:   -3.53 KCAL/MOL
REMARK 922        TOTAL FREE ENERGY PREDICTED BY IDOCK:   -7.05 KCAL/MOL
REMARK 923 INTER-LIGAND FREE ENERGY PREDICTED BY IDOCK:   -5.03 KCAL/MOL
REMARK 924 INTRA-LIGAND FREE ENERGY PREDICTED BY IDOCK:   -2.03 KCAL/MOL
REMARK 927      BINDING AFFINITY PREDICTED BY RF-SCORE:    0.00 PKD
ROOT
HETATM    1  O   UNL     1      -6.775   8.441  71.641  1.00  0.00    -0.060 OA 
HETATM    2  H   UNL     1      -7.402   7.743  71.794  1.00  0.00     0.000 HD 
HETATM    3  C   UNL     1      -7.039   9.469  70.788  1.00  0.00    -0.097 A  
HETATM    4  C   UNL     1      -6.124  10.490  70.564  1.00  0.00    -0.118 A  
HETATM    5  C   UNL     1      -6.462  11.561  69.722  1.00  0.00    -0.125 A  
HETATM    6  C   UNL     1      -7.710  11.618  69.078  1.00  0.00    -0.002 A  
HETATM    7  C   UNL     1      -8.585  10.533  69.279  1.00  0.00    -0.136 A  
HETATM    8  C   UNL     1      -8.260   9.475  70.141  1.00  0.00    -0.192 A  
ENDROOT
BRANCH   6   9
HETATM    9  C   UNL     1      -8.133  12.804  68.272  1.00  0.00    -0.154 A  
HETATM   10  C   UNL     1      -8.909  12.954  67.112  1.00  0.00    -0.210 A  
HETATM   11  C   UNL     1      -9.883  16.376  65.590  1.00  0.00    -0.222 A  
HETATM   12  C   UNL     1      -9.095  14.359  66.753  1.00  0.00    -0.278 A  
HETATM   13  O   UNL     1      -9.148  18.515  66.237  1.00  0.00    -0.393 OA 
HETATM   14  C   UNL     1      -8.369  15.202  67.592  1.00  0.00    -0.160 A  
HETATM   15  H   UNL     1      -9.665  18.899  65.539  1.00  0.00     0.000 HD 
HETATM   16  C   UNL     1      -9.889  14.987  65.750  1.00  0.00    -0.386 A  
HETATM   17  S   UNL     1      -7.514  14.330  68.775  1.00  0.00    -0.127 SA 
HETATM   18  C   UNL     1      -8.370  16.604  67.452  1.00  0.00    -0.190 A  
HETATM   19  C   UNL     1      -9.125  17.165  66.432  1.00  0.00    -0.256 A  
BRANCH  10  20
HETATM   20  C   UNL     1      -9.576  11.831  66.449  1.00  0.00    -0.218 C  
HETATM   21  O   UNL     1     -10.806  11.784  66.401  1.00  0.00    -0.259 OA 
BRANCH  20  22
HETATM   22  C   UNL     1      -8.826  10.707  65.807  1.00  0.00    -0.198 A  
HETATM   23  C   UNL     1      -7.615   8.345  64.798  1.00  0.00    -0.102 A  
HETATM   24  C   UNL     1      -6.848   9.492  65.028  1.00  0.00    -0.097 A  
HETATM   25  C   UNL     1      -9.582   9.562  65.545  1.00  0.00    -0.349 A  
HETATM   26  C   UNL     1      -7.449  10.671  65.532  1.00  0.00    -0.063 A  
HETATM   27  C   UNL     1      -8.981   8.392  65.075  1.00  0.00     0.058 A  
BRANCH  23  28
HETATM   28  O   UNL     1      -6.973   7.217  64.300  1.00  0.00    -0.052 OA 
BRANCH  28  29
HETATM   29  C   UNL     1      -6.184   6.569  65.312  1.00  0.00    -0.034 C  
BRANCH  29  30
HETATM   30  C   UNL     1      -6.867   5.485  66.165  1.00  0.00    -0.058 C  
BRANCH  30  31
HETATM   31  N   UNL     1      -6.633   5.728  67.617  1.00  0.00    -0.051 NA 
HETATM   32  C   UNL     1      -7.521   6.738  68.220  1.00  0.00    -0.099 C  
HETATM   33  C   UNL     1      -8.984   6.312  68.164  1.00  0.00    -0.115 C  
HETATM   34  C   UNL     1      -9.170   5.030  68.967  1.00  0.00    -0.157 C  
HETATM   35  C   UNL     1      -8.135   3.958  68.607  1.00  0.00    -0.079 C  
HETATM   36  C   UNL     1      -6.711   4.502  68.424  1.00  0.00    -0.047 C  
ENDBRANCH  30  31
ENDBRANCH  29  30
ENDBRANCH  28  29
ENDBRANCH  23  28
ENDBRANCH  20  22
ENDBRANCH  10  20
ENDBRANCH   6   9
TORSDOF 7
ENDMDL
MODEL      191
REMARK 921   NORMALIZED FREE ENERGY PREDICTED BY IDOCK:   -3.53 KCAL/MOL
REMARK 922        TOTAL FREE ENERGY PREDICTED BY IDOCK:   -7.05 KCAL/MOL
REMARK 923 INTER-LIGAND FREE ENERGY PREDICTED BY IDOCK:   -5.68 KCAL/MOL
REMARK 924 INTRA-LIGAND FREE ENERGY PREDICTED BY IDOCK:   -1.38 KCAL/MOL
REMARK 927      BINDING AFFINITY PREDICTED BY RF-SCORE:    0.00 PKD
ROOT
HETATM    1  O   UNL     1      -5.126  15.228  71.258  1.00  0.00    -0.153 OA 
HETATM    2  H   UNL     1      -5.002  16.166  71.342  1.00  0.00     0.000 HD 
HETATM    3  C   UNL     1      -5.976  14.695  70.337  1.00  0.00    -0.165 A  
HETATM    4  C   UNL     1      -6.157  13.323  70.214  1.00  0.00    -0.086 A  
HETATM    5  C   UNL     1      -6.997  12.815  69.210  1.00  0.00     0.041 A  
HETATM    6  C   UNL     1      -7.682  13.670  68.329  1.00  0.00    -0.140 A  
HETATM    7  C   UNL     1      -7.522  15.056  68.526  1.00  0.00    -0.119 A  
HETATM    8  C   UNL     1      -6.662  15.564  69.512  1.00  0.00    -0.179 A  
ENDROOT
BRANCH   6   9
HETATM    9  C   UNL     1      -8.487  13.148  67.182  1.00  0.00    -0.169 A  
HETATM   10  C   UNL     1      -8.354  12.034  66.339  1.00  0.00     0.053 A  
HETATM   11  C   UNL     1     -10.943  11.046  63.638  1.00  0.00    -0.065 A  
HETATM   12  C   UNL     1      -9.467  11.921  65.397  1.00  0.00    -0.123 A  
HETATM   13  O   UNL     1     -12.843  12.243  62.941  1.00  0.00    -0.621 OA 
HETATM   14  C   UNL     1     -10.335  13.006  65.499  1.00  0.00    -0.294 A  
HETATM   15  H   UNL     1     -13.030  11.566  62.302  1.00  0.00     0.000 HD 
HETATM   16  C   UNL     1      -9.815  10.911  64.454  1.00  0.00    -0.365 A  
HETATM   17  S   UNL     1      -9.833  14.105  66.696  1.00  0.00    -0.291 SA 
HETATM   18  C   UNL     1     -11.483  13.143  64.695  1.00  0.00    -0.368 A  
HETATM   19  C   UNL     1     -11.757  12.154  63.761  1.00  0.00    -0.485 A  
BRANCH  10  20
HETATM   20  C   UNL     1      -7.301  11.030  66.506  1.00  0.00    -0.144 C  
HETATM   21  O   UNL     1      -6.238  11.142  65.894  1.00  0.00    -0.092 OA 
BRANCH  20  22
HETATM   22  C   UNL     1      -7.446   9.843  67.406  1.00  0.00    -0.091 A  
HETATM   23  C   UNL     1      -7.384   7.485  68.986  1.00  0.00    -0.087 A  
HETATM   24  C   UNL     1      -8.580   7.916  68.403  1.00  0.00    -0.128 A  
HETATM   25  C   UNL     1      -6.266   9.415  68.019  1.00  0.00    -0.057 A  
HETATM   26  C   UNL     1      -8.614   9.091  67.612  1.00  0.00    -0.120 A  
HETATM   27  C   UNL     1      -6.231   8.240  68.773  1.00  0.00    -0.045 A  
BRANCH  23  28
HETATM   28  O   UNL     1      -7.411   6.327  69.753  1.00  0.00    -0.077 OA 
BRANCH  28  29
HETATM   29  C   UNL     1      -7.628   6.619  71.144  1.00  0.00    -0.089 C  
BRANCH  29  30
HETATM   30  C   UNL     1      -9.070   6.532  71.676  1.00  0.00    -0.143 C  
BRANCH  30  31
HETATM   31  N   UNL     1      -9.077   6.313  73.150  1.00  0.00    -0.130 NA 
HETATM   32  C   UNL     1     -10.359   6.622  73.810  1.00  0.00    -0.349 C  
HETATM   33  C   UNL     1     -11.484   5.721  73.312  1.00  0.00     0.009 C  
HETATM   34  C   UNL     1     -11.158   4.270  73.646  1.00  0.00    -0.351 C  
HETATM   35  C   UNL     1      -9.736   3.877  73.228  1.00  0.00    -0.151 C  
HETATM   36  C   UNL     1      -8.679   4.948  73.529  1.00  0.00    -0.104 C  
ENDBRANCH  30  31
ENDBRANCH  29  30
ENDBRANCH  28  29
ENDBRANCH  23  28
ENDBRANCH  20  22
ENDBRANCH  10  20
ENDBRANCH   6   9
TORSDOF 7
ENDMDL
MODEL      192
REMARK 921   NORMALIZED FREE ENERGY PREDICTED BY IDOCK:   -3.51 KCAL/MOL
REMARK 922        TOTAL FREE ENERGY PREDICTED BY IDOCK:   -7.03 KCAL/MOL
REMARK 923 INTER-LIGAND FREE ENERGY PREDICTED BY IDOCK:   -5.42 KCAL/MOL
REMARK 924 INTRA-LIGAND FREE ENERGY PREDICTED BY IDOCK:   -1.61 KCAL/MOL
REMARK 927      BINDING AFFINITY PREDICTED BY RF-SCORE:    0.00 PKD
ROOT
HETATM    1  O   UNL     1     -11.082   5.494  73.613  1.00  0.00    -0.421 OA 
HETATM    2  H   UNL     1     -11.733   6.140  73.858  1.00  0.00     0.000 HD 
HETATM    3  C   UNL     1     -10.614   5.392  72.338  1.00  0.00    -0.224 A  
HETATM    4  C   UNL     1      -9.661   4.448  71.979  1.00  0.00    -0.209 A  
HETATM    5  C   UNL     1      -9.164   4.419  70.666  1.00  0.00    -0.198 A  
HETATM    6  C   UNL     1      -9.625   5.319  69.690  1.00  0.00    -0.225 A  
HETATM    7  C   UNL     1     -10.638   6.219  70.076  1.00  0.00    -0.307 A  
HETATM    8  C   UNL     1     -11.117   6.267  71.394  1.00  0.00    -0.339 A  
ENDROOT
BRANCH   6   9
HETATM    9  C   UNL     1      -9.027   5.382  68.322  1.00  0.00    -0.108 A  
HETATM   10  C   UNL     1      -8.290   6.359  67.635  1.00  0.00    -0.117 A  
HETATM   11  C   UNL     1      -6.769   5.845  64.114  1.00  0.00    -0.041 A  
HETATM   12  C   UNL     1      -7.863   5.900  66.314  1.00  0.00    -0.101 A  
HETATM   13  O   UNL     1      -7.064   4.023  62.657  1.00  0.00    -0.038 OA 
HETATM   14  C   UNL     1      -8.381   4.641  66.019  1.00  0.00    -0.114 A  
HETATM   15  H   UNL     1      -6.517   4.456  62.012  1.00  0.00     0.000 HD 
HETATM   16  C   UNL     1      -7.013   6.487  65.333  1.00  0.00    -0.052 A  
HETATM   17  S   UNL     1      -9.329   4.033  67.294  1.00  0.00    -0.195 SA 
HETATM   18  C   UNL     1      -8.127   3.977  64.803  1.00  0.00    -0.093 A  
HETATM   19  C   UNL     1      -7.328   4.609  63.860  1.00  0.00    -0.054 A  
BRANCH  10  20
HETATM   20  C   UNL     1      -7.874   7.622  68.251  1.00  0.00    -0.121 C  
HETATM   21  O   UNL     1      -6.915   7.645  69.024  1.00  0.00    -0.065 OA 
BRANCH  20  22
HETATM   22  C   UNL     1      -8.567   8.921  67.986  1.00  0.00    -0.130 A  
HETATM   23  C   UNL     1      -9.542  11.520  67.391  1.00  0.00    -0.168 A  
HETATM   24  C   UNL     1     -10.074  10.791  68.460  1.00  0.00    -0.187 A  
HETATM   25  C   UNL     1      -8.067   9.651  66.905  1.00  0.00    -0.113 A  
HETATM   26  C   UNL     1      -9.589   9.496  68.760  1.00  0.00    -0.159 A  
HETATM   27  C   UNL     1      -8.528  10.940  66.630  1.00  0.00    -0.151 A  
BRANCH  23  28
HETATM   28  O   UNL     1     -10.059  12.786  67.141  1.00  0.00    -0.230 OA 
BRANCH  28  29
HETATM   29  C   UNL     1      -9.489  13.772  68.019  1.00  0.00    -0.207 C  
BRANCH  29  30
HETATM   30  C   UNL     1      -8.698  14.927  67.378  1.00  0.00    -0.194 C  
BRANCH  30  31
HETATM   31  N   UNL     1      -8.477  16.025  68.361  1.00  0.00    -0.173 NA 
HETATM   32  C   UNL     1      -7.758  15.620  69.582  1.00  0.00    -0.107 C  
HETATM   33  C   UNL     1      -6.346  15.131  69.273  1.00  0.00    -0.117 C  
HETATM   34  C   UNL     1      -5.543  16.265  68.648  1.00  0.00    -0.105 C  
HETATM   35  C   UNL     1      -6.292  16.951  67.500  1.00  0.00    -0.179 C  
HETATM   36  C   UNL     1      -7.783  17.184  67.780  1.00  0.00    -0.177 C  
ENDBRANCH  30  31
ENDBRANCH  29  30
ENDBRANCH  28  29
ENDBRANCH  23  28
ENDBRANCH  20  22
ENDBRANCH  10  20
ENDBRANCH   6   9
TORSDOF 7
ENDMDL
MODEL      193
REMARK 921   NORMALIZED FREE ENERGY PREDICTED BY IDOCK:   -3.48 KCAL/MOL
REMARK 922        TOTAL FREE ENERGY PREDICTED BY IDOCK:   -6.99 KCAL/MOL
REMARK 923 INTER-LIGAND FREE ENERGY PREDICTED BY IDOCK:   -5.52 KCAL/MOL
REMARK 924 INTRA-LIGAND FREE ENERGY PREDICTED BY IDOCK:   -1.46 KCAL/MOL
REMARK 927      BINDING AFFINITY PREDICTED BY RF-SCORE:    0.00 PKD
ROOT
HETATM    1  O   UNL     1      -5.892  10.563  70.182  1.00  0.00    -0.058 OA 
HETATM    2  H   UNL     1      -4.997  10.329  70.398  1.00  0.00     0.000 HD 
HETATM    3  C   UNL     1      -6.221  11.804  69.726  1.00  0.00    -0.138 A  
HETATM    4  C   UNL     1      -7.529  12.146  69.408  1.00  0.00     0.332 A  
HETATM    5  C   UNL     1      -7.812  13.417  68.885  1.00  0.00     0.080 A  
HETATM    6  C   UNL     1      -6.797  14.370  68.688  1.00  0.00    -0.096 A  
HETATM    7  C   UNL     1      -5.494  14.007  69.081  1.00  0.00    -0.077 A  
HETATM    8  C   UNL     1      -5.205  12.728  69.580  1.00  0.00    -0.076 A  
ENDROOT
BRANCH   6   9
HETATM    9  C   UNL     1      -7.059  15.683  68.024  1.00  0.00    -0.122 A  
HETATM   10  C   UNL     1      -8.225  16.315  67.564  1.00  0.00    -0.165 A  
HETATM   11  C   UNL     1      -8.311  19.902  66.114  1.00  0.00    -0.345 A  
HETATM   12  C   UNL     1      -7.955  17.655  67.044  1.00  0.00    -0.242 A  
HETATM   13  O   UNL     1      -6.496  21.315  65.627  1.00  0.00    -0.478 OA 
HETATM   14  C   UNL     1      -6.591  17.936  67.037  1.00  0.00    -0.175 A  
HETATM   15  H   UNL     1      -7.100  21.973  65.304  1.00  0.00     0.000 HD 
HETATM   16  C   UNL     1      -8.823  18.692  66.592  1.00  0.00    -0.305 A  
HETATM   17  S   UNL     1      -5.677  16.640  67.652  1.00  0.00    -0.155 SA 
HETATM   18  C   UNL     1      -6.065  19.159  66.576  1.00  0.00    -0.179 A  
HETATM   19  C   UNL     1      -6.948  20.121  66.105  1.00  0.00    -0.257 A  
BRANCH  10  20
HETATM   20  C   UNL     1      -9.563  15.745  67.740  1.00  0.00    -0.214 C  
HETATM   21  O   UNL     1     -10.376  16.296  68.483  1.00  0.00    -0.239 OA 
BRANCH  20  22
HETATM   22  C   UNL     1     -10.011  14.497  67.048  1.00  0.00    -0.255 A  
HETATM   23  C   UNL     1     -10.855  12.331  65.418  1.00  0.00    -0.286 A  
HETATM   24  C   UNL     1     -11.380  12.496  66.704  1.00  0.00    -0.389 A  
HETATM   25  C   UNL     1      -9.476  14.300  65.772  1.00  0.00    -0.098 A  
HETATM   26  C   UNL     1     -10.962  13.576  67.519  1.00  0.00    -0.283 A  
HETATM   27  C   UNL     1      -9.912  13.252  64.961  1.00  0.00    -0.168 A  
BRANCH  23  28
HETATM   28  O   UNL     1     -11.301  11.252  64.664  1.00  0.00    -0.162 OA 
BRANCH  28  29
HETATM   29  C   UNL     1     -10.208  10.423  64.231  1.00  0.00    -0.135 C  
BRANCH  29  30
HETATM   30  C   UNL     1      -9.617   9.432  65.250  1.00  0.00    -0.180 C  
BRANCH  30  31
HETATM   31  N   UNL     1      -8.238   9.026  64.854  1.00  0.00    -0.144 NA 
HETATM   32  C   UNL     1      -7.260  10.129  64.826  1.00  0.00    -0.130 C  
HETATM   33  C   UNL     1      -7.065  10.749  66.206  1.00  0.00    -0.134 C  
HETATM   34  C   UNL     1      -6.513   9.697  67.160  1.00  0.00    -0.070 C  
HETATM   35  C   UNL     1      -7.305   8.385  67.110  1.00  0.00    -0.085 C  
HETATM   36  C   UNL     1      -7.695   7.947  65.692  1.00  0.00    -0.096 C  
ENDBRANCH  30  31
ENDBRANCH  29  30
ENDBRANCH  28  29
ENDBRANCH  23  28
ENDBRANCH  20  22
ENDBRANCH  10  20
ENDBRANCH   6   9
TORSDOF 7
ENDMDL
MODEL      194
REMARK 921   NORMALIZED FREE ENERGY PREDICTED BY IDOCK:   -3.47 KCAL/MOL
REMARK 922        TOTAL FREE ENERGY PREDICTED BY IDOCK:   -6.97 KCAL/MOL
REMARK 923 INTER-LIGAND FREE ENERGY PREDICTED BY IDOCK:   -6.79 KCAL/MOL
REMARK 924 INTRA-LIGAND FREE ENERGY PREDICTED BY IDOCK:   -0.18 KCAL/MOL
REMARK 927      BINDING AFFINITY PREDICTED BY RF-SCORE:    0.00 PKD
ROOT
HETATM    1  O   UNL     1      -5.743   2.211  68.453  1.00  0.00    -0.018 OA 
HETATM    2  H   UNL     1      -4.816   2.409  68.391  1.00  0.00     0.000 HD 
HETATM    3  C   UNL     1      -6.628   3.082  69.013  1.00  0.00    -0.033 A  
HETATM    4  C   UNL     1      -7.984   2.794  69.103  1.00  0.00    -0.059 A  
HETATM    5  C   UNL     1      -8.868   3.747  69.633  1.00  0.00    -0.148 A  
HETATM    6  C   UNL     1      -8.409   4.991  70.098  1.00  0.00    -0.085 A  
HETATM    7  C   UNL     1      -7.020   5.221  70.048  1.00  0.00    -0.060 A  
HETATM    8  C   UNL     1      -6.138   4.281  69.494  1.00  0.00    -0.026 A  
ENDROOT
BRANCH   6   9
HETATM    9  C   UNL     1      -9.346   6.062  70.557  1.00  0.00    -0.160 A  
HETATM   10  C   UNL     1      -9.356   7.459  70.418  1.00  0.00    -0.161 A  
HETATM   11  C   UNL     1     -12.237   9.732  71.645  1.00  0.00    -0.488 A  
HETATM   12  C   UNL     1     -10.556   8.060  70.998  1.00  0.00    -0.239 A  
HETATM   13  O   UNL     1     -14.121   9.129  72.917  1.00  0.00    -0.989 OA 
HETATM   14  C   UNL     1     -11.346   7.109  71.639  1.00  0.00    -0.251 A  
HETATM   15  H   UNL     1     -14.405  10.035  72.918  1.00  0.00     0.000 HD 
HETATM   16  C   UNL     1     -11.049   9.397  70.989  1.00  0.00    -0.414 A  
HETATM   17  S   UNL     1     -10.673   5.551  71.527  1.00  0.00    -0.187 SA 
HETATM   18  C   UNL     1     -12.555   7.431  72.287  1.00  0.00    -0.082 A  
HETATM   19  C   UNL     1     -12.971   8.755  72.288  1.00  0.00    -0.408 A  
BRANCH  10  20
HETATM   20  C   UNL     1      -8.352   8.189  69.640  1.00  0.00    -0.125 C  
HETATM   21  O   UNL     1      -7.165   7.870  69.711  1.00  0.00    -0.063 OA 
BRANCH  20  22
HETATM   22  C   UNL     1      -8.698   9.332  68.738  1.00  0.00    -0.132 A  
HETATM   23  C   UNL     1      -9.326  11.253  66.744  1.00  0.00    -0.177 A  
HETATM   24  C   UNL     1      -8.537  11.605  67.844  1.00  0.00    -0.150 A  
HETATM   25  C   UNL     1      -9.508   9.004  67.648  1.00  0.00    -0.166 A  
HETATM   26  C   UNL     1      -8.220  10.649  68.839  1.00  0.00    -0.145 A  
HETATM   27  C   UNL     1      -9.793   9.942  66.655  1.00  0.00    -0.265 A  
BRANCH  23  28
HETATM   28  O   UNL     1      -9.606  12.233  65.800  1.00  0.00    -0.241 OA 
BRANCH  28  29
HETATM   29  C   UNL     1      -8.939  13.469  66.107  1.00  0.00     0.254 C  
BRANCH  29  30
HETATM   30  C   UNL     1      -9.809  14.660  66.551  1.00  0.00    -0.275 C  
BRANCH  30  31
HETATM   31  N   UNL     1      -8.965  15.745  67.126  1.00  0.00    -0.205 NA 
HETATM   32  C   UNL     1      -9.088  17.045  66.441  1.00  0.00    -0.270 C  
HETATM   33  C   UNL     1     -10.503  17.606  66.540  1.00  0.00    -0.283 C  
HETATM   34  C   UNL     1     -10.852  17.847  68.004  1.00  0.00    -0.206 C  
HETATM   35  C   UNL     1     -10.538  16.635  68.889  1.00  0.00    -0.337 C  
HETATM   36  C   UNL     1      -9.201  15.955  68.562  1.00  0.00    -0.200 C  
ENDBRANCH  30  31
ENDBRANCH  29  30
ENDBRANCH  28  29
ENDBRANCH  23  28
ENDBRANCH  20  22
ENDBRANCH  10  20
ENDBRANCH   6   9
TORSDOF 7
ENDMDL
MODEL      195
REMARK 921   NORMALIZED FREE ENERGY PREDICTED BY IDOCK:   -3.46 KCAL/MOL
REMARK 922        TOTAL FREE ENERGY PREDICTED BY IDOCK:   -6.96 KCAL/MOL
REMARK 923 INTER-LIGAND FREE ENERGY PREDICTED BY IDOCK:   -5.99 KCAL/MOL
REMARK 924 INTRA-LIGAND FREE ENERGY PREDICTED BY IDOCK:   -0.97 KCAL/MOL
REMARK 927      BINDING AFFINITY PREDICTED BY RF-SCORE:    0.00 PKD
ROOT
HETATM    1  O   UNL     1     -10.990   7.426  73.595  1.00  0.00    -0.533 OA 
HETATM    2  H   UNL     1     -10.575   6.963  74.313  1.00  0.00     0.000 HD 
HETATM    3  C   UNL     1     -10.408   7.522  72.368  1.00  0.00    -0.228 A  
HETATM    4  C   UNL     1     -11.015   8.199  71.318  1.00  0.00    -0.281 A  
HETATM    5  C   UNL     1     -10.406   8.220  70.053  1.00  0.00    -0.212 A  
HETATM    6  C   UNL     1      -9.174   7.583  69.825  1.00  0.00    -0.147 A  
HETATM    7  C   UNL     1      -8.559   6.962  70.930  1.00  0.00    -0.136 A  
HETATM    8  C   UNL     1      -9.179   6.917  72.187  1.00  0.00    -0.143 A  
ENDROOT
BRANCH   6   9
HETATM    9  C   UNL     1      -8.567   7.495  68.461  1.00  0.00    -0.129 A  
HETATM   10  C   UNL     1      -7.886   8.414  67.648  1.00  0.00    -0.107 A  
HETATM   11  C   UNL     1      -6.303   7.520  64.232  1.00  0.00    -0.048 A  
HETATM   12  C   UNL     1      -7.419   7.806  66.403  1.00  0.00    -0.084 A  
HETATM   13  O   UNL     1      -6.471   5.501  63.038  1.00  0.00    -0.024 OA 
HETATM   14  C   UNL     1      -7.855   6.489  66.282  1.00  0.00    -0.105 A  
HETATM   15  H   UNL     1      -5.946   5.875  62.340  1.00  0.00     0.000 HD 
HETATM   16  C   UNL     1      -6.597   8.305  65.351  1.00  0.00    -0.052 A  
HETATM   17  S   UNL     1      -8.776   6.003  67.627  1.00  0.00    -0.102 SA 
HETATM   18  C   UNL     1      -7.549   5.682  65.169  1.00  0.00    -0.078 A  
HETATM   19  C   UNL     1      -6.781   6.228  64.149  1.00  0.00    -0.038 A  
BRANCH  10  20
HETATM   20  C   UNL     1      -7.555   9.772  68.086  1.00  0.00    -0.082 C  
HETATM   21  O   UNL     1      -6.412  10.039  68.459  1.00  0.00    -0.049 OA 
BRANCH  20  22
HETATM   22  C   UNL     1      -8.554  10.885  68.103  1.00  0.00    -0.133 A  
HETATM   23  C   UNL     1     -10.664  12.777  67.921  1.00  0.00    -0.219 A  
HETATM   24  C   UNL     1      -9.331  13.199  67.909  1.00  0.00    -0.215 A  
HETATM   25  C   UNL     1      -9.891  10.483  68.143  1.00  0.00    -0.169 A  
HETATM   26  C   UNL     1      -8.276  12.258  67.998  1.00  0.00    -0.163 A  
HETATM   27  C   UNL     1     -10.928  11.411  68.026  1.00  0.00    -0.290 A  
BRANCH  23  28
HETATM   28  O   UNL     1     -11.658  13.744  67.833  1.00  0.00    -0.301 OA 
BRANCH  28  29
HETATM   29  C   UNL     1     -11.234  14.866  67.041  1.00  0.00    -0.344 C  
BRANCH  29  30
HETATM   30  C   UNL     1     -11.419  16.274  67.638  1.00  0.00     0.095 C  
BRANCH  30  31
HETATM   31  N   UNL     1     -10.099  16.916  67.896  1.00  0.00    -0.277 NA 
HETATM   32  C   UNL     1      -9.328  17.240  66.682  1.00  0.00    -0.260 C  
HETATM   33  C   UNL     1     -10.052  18.256  65.805  1.00  0.00    -0.022 C  
HETATM   34  C   UNL     1     -10.224  19.560  66.576  1.00  0.00    -0.568 C  
HETATM   35  C   UNL     1     -10.800  19.340  67.979  1.00  0.00    -0.215 C  
HETATM   36  C   UNL     1     -10.203  18.132  68.716  1.00  0.00    -0.337 C  
ENDBRANCH  30  31
ENDBRANCH  29  30
ENDBRANCH  28  29
ENDBRANCH  23  28
ENDBRANCH  20  22
ENDBRANCH  10  20
ENDBRANCH   6   9
TORSDOF 7
ENDMDL
MODEL      196
REMARK 921   NORMALIZED FREE ENERGY PREDICTED BY IDOCK:   -3.46 KCAL/MOL
REMARK 922        TOTAL FREE ENERGY PREDICTED BY IDOCK:   -6.96 KCAL/MOL
REMARK 923 INTER-LIGAND FREE ENERGY PREDICTED BY IDOCK:   -6.02 KCAL/MOL
REMARK 924 INTRA-LIGAND FREE ENERGY PREDICTED BY IDOCK:   -0.93 KCAL/MOL
REMARK 927      BINDING AFFINITY PREDICTED BY RF-SCORE:    0.00 PKD
ROOT
HETATM    1  O   UNL     1      -5.445  18.099  69.890  1.00  0.00    -0.203 OA 
HETATM    2  H   UNL     1      -5.226  17.924  70.797  1.00  0.00     0.000 HD 
HETATM    3  C   UNL     1      -6.141  17.205  69.133  1.00  0.00    -0.204 A  
HETATM    4  C   UNL     1      -6.463  17.460  67.807  1.00  0.00    -0.160 A  
HETATM    5  C   UNL     1      -7.233  16.536  67.083  1.00  0.00    -0.223 A  
HETATM    6  C   UNL     1      -7.677  15.337  67.668  1.00  0.00    -0.185 A  
HETATM    7  C   UNL     1      -7.276  15.086  68.995  1.00  0.00    -0.142 A  
HETATM    8  C   UNL     1      -6.529  16.020  69.728  1.00  0.00    -0.164 A  
ENDROOT
BRANCH   6   9
HETATM    9  C   UNL     1      -8.594  14.397  66.953  1.00  0.00    -0.164 A  
HETATM   10  C   UNL     1      -8.537  13.024  66.671  1.00  0.00     0.027 A  
HETATM   11  C   UNL     1     -11.388  11.051  64.953  1.00  0.00     0.224 A  
HETATM   12  C   UNL     1      -9.743  12.552  65.992  1.00  0.00    -0.247 A  
HETATM   13  O   UNL     1     -13.369  11.892  64.004  1.00  0.00    -0.646 OA 
HETATM   14  C   UNL     1     -10.610  13.603  65.700  1.00  0.00    -0.293 A  
HETATM   15  H   UNL     1     -13.615  11.011  63.746  1.00  0.00     0.000 HD 
HETATM   16  C   UNL     1     -10.178  11.245  65.625  1.00  0.00    -0.304 A  
HETATM   17  S   UNL     1      -9.997  15.095  66.240  1.00  0.00    -0.308 SA 
HETATM   18  C   UNL     1     -11.840  13.416  65.040  1.00  0.00    -0.381 A  
HETATM   19  C   UNL     1     -12.200  12.130  64.664  1.00  0.00    -0.298 A  
BRANCH  10  20
HETATM   20  C   UNL     1      -7.459  12.156  67.150  1.00  0.00    -0.129 C  
HETATM   21  O   UNL     1      -6.360  12.172  66.593  1.00  0.00    -0.103 OA 
BRANCH  20  22
HETATM   22  C   UNL     1      -7.620  11.227  68.311  1.00  0.00    -0.114 A  
HETATM   23  C   UNL     1      -8.262   9.623  70.565  1.00  0.00    -0.098 A  
HETATM   24  C   UNL     1      -6.955  10.083  70.371  1.00  0.00    -0.137 A  
HETATM   25  C   UNL     1      -8.913  10.735  68.504  1.00  0.00    -0.160 A  
HETATM   26  C   UNL     1      -6.632  10.884  69.250  1.00  0.00    -0.079 A  
HETATM   27  C   UNL     1      -9.234   9.970  69.627  1.00  0.00    -0.236 A  
BRANCH  23  28
HETATM   28  O   UNL     1      -8.521   8.838  71.682  1.00  0.00    -0.203 OA 
BRANCH  28  29
HETATM   29  C   UNL     1      -7.949   7.526  71.550  1.00  0.00    -0.094 C  
BRANCH  29  30
HETATM   30  C   UNL     1      -8.890   6.317  71.709  1.00  0.00    -0.137 C  
BRANCH  30  31
HETATM   31  N   UNL     1      -8.126   5.103  72.115  1.00  0.00    -0.111 NA 
HETATM   32  C   UNL     1      -8.274   4.733  73.534  1.00  0.00    -0.107 C  
HETATM   33  C   UNL     1      -9.716   4.377  73.880  1.00  0.00    -0.147 C  
HETATM   34  C   UNL     1     -10.149   3.165  73.063  1.00  0.00    -0.220 C  
HETATM   35  C   UNL     1      -9.825   3.316  71.572  1.00  0.00    -0.206 C  
HETATM   36  C   UNL     1      -8.444   3.925  71.294  1.00  0.00    -0.073 C  
ENDBRANCH  30  31
ENDBRANCH  29  30
ENDBRANCH  28  29
ENDBRANCH  23  28
ENDBRANCH  20  22
ENDBRANCH  10  20
ENDBRANCH   6   9
TORSDOF 7
ENDMDL
MODEL      197
REMARK 921   NORMALIZED FREE ENERGY PREDICTED BY IDOCK:   -3.43 KCAL/MOL
REMARK 922        TOTAL FREE ENERGY PREDICTED BY IDOCK:   -6.91 KCAL/MOL
REMARK 923 INTER-LIGAND FREE ENERGY PREDICTED BY IDOCK:   -6.17 KCAL/MOL
REMARK 924 INTRA-LIGAND FREE ENERGY PREDICTED BY IDOCK:   -0.74 KCAL/MOL
REMARK 927      BINDING AFFINITY PREDICTED BY RF-SCORE:    0.00 PKD
ROOT
HETATM    1  O   UNL     1     -11.301   5.172  73.167  1.00  0.00    -0.314 OA 
HETATM    2  H   UNL     1     -12.192   5.344  73.446  1.00  0.00     0.000 HD 
HETATM    3  C   UNL     1     -10.870   5.473  71.911  1.00  0.00    -0.223 A  
HETATM    4  C   UNL     1      -9.566   5.221  71.503  1.00  0.00    -0.201 A  
HETATM    5  C   UNL     1      -9.149   5.604  70.218  1.00  0.00    -0.163 A  
HETATM    6  C   UNL     1     -10.032   6.226  69.318  1.00  0.00    -0.186 A  
HETATM    7  C   UNL     1     -11.362   6.406  69.746  1.00  0.00    -0.494 A  
HETATM    8  C   UNL     1     -11.773   6.049  71.039  1.00  0.00    -0.057 A  
ENDROOT
BRANCH   6   9
HETATM    9  C   UNL     1      -9.577   6.745  67.991  1.00  0.00    -0.117 A  
HETATM   10  C   UNL     1      -9.516   8.029  67.429  1.00  0.00    -0.187 A  
HETATM   11  C   UNL     1      -7.986   8.798  63.958  1.00  0.00    -0.156 A  
HETATM   12  C   UNL     1      -8.913   8.018  66.097  1.00  0.00    -0.215 A  
HETATM   13  O   UNL     1      -7.221   7.274  62.339  1.00  0.00    -0.074 OA 
HETATM   14  C   UNL     1      -8.641   6.720  65.670  1.00  0.00    -0.117 A  
HETATM   15  H   UNL     1      -7.013   7.998  61.761  1.00  0.00     0.000 HD 
HETATM   16  C   UNL     1      -8.541   9.072  65.212  1.00  0.00    -0.199 A  
HETATM   17  S   UNL     1      -9.081   5.566  66.839  1.00  0.00    -0.117 SA 
HETATM   18  C   UNL     1      -8.065   6.433  64.416  1.00  0.00    -0.076 A  
HETATM   19  C   UNL     1      -7.760   7.492  63.572  1.00  0.00    -0.126 A  
BRANCH  10  20
HETATM   20  C   UNL     1      -9.873   9.241  68.170  1.00  0.00    -0.162 C  
HETATM   21  O   UNL     1     -10.950   9.307  68.763  1.00  0.00    -0.138 OA 
BRANCH  20  22
HETATM   22  C   UNL     1      -8.977  10.437  68.251  1.00  0.00    -0.135 A  
HETATM   23  C   UNL     1      -7.151  12.558  68.727  1.00  0.00    -0.092 A  
HETATM   24  C   UNL     1      -8.406  12.816  68.167  1.00  0.00    -0.172 A  
HETATM   25  C   UNL     1      -7.708  10.193  68.782  1.00  0.00    -0.088 A  
HETATM   26  C   UNL     1      -9.320  11.761  67.930  1.00  0.00    -0.184 A  
HETATM   27  C   UNL     1      -6.822  11.240  69.042  1.00  0.00    -0.099 A  
BRANCH  23  28
HETATM   28  O   UNL     1      -6.294  13.633  68.935  1.00  0.00    -0.085 OA 
BRANCH  28  29
HETATM   29  C   UNL     1      -6.588  14.723  68.045  1.00  0.00    -0.147 C  
BRANCH  29  30
HETATM   30  C   UNL     1      -7.610  15.774  68.515  1.00  0.00    -0.138 C  
BRANCH  30  31
HETATM   31  N   UNL     1      -8.178  16.515  67.353  1.00  0.00    -0.159 NA 
HETATM   32  C   UNL     1      -9.620  16.301  67.134  1.00  0.00    -0.233 C  
HETATM   33  C   UNL     1     -10.452  16.798  68.313  1.00  0.00    -0.341 C  
HETATM   34  C   UNL     1     -10.251  18.300  68.477  1.00  0.00    -0.402 C  
HETATM   35  C   UNL     1      -8.771  18.698  68.473  1.00  0.00    -0.362 C  
HETATM   36  C   UNL     1      -7.930  17.963  67.420  1.00  0.00    -0.213 C  
ENDBRANCH  30  31
ENDBRANCH  29  30
ENDBRANCH  28  29
ENDBRANCH  23  28
ENDBRANCH  20  22
ENDBRANCH  10  20
ENDBRANCH   6   9
TORSDOF 7
ENDMDL
MODEL      198
REMARK 921   NORMALIZED FREE ENERGY PREDICTED BY IDOCK:   -3.41 KCAL/MOL
REMARK 922        TOTAL FREE ENERGY PREDICTED BY IDOCK:   -6.88 KCAL/MOL
REMARK 923 INTER-LIGAND FREE ENERGY PREDICTED BY IDOCK:   -5.80 KCAL/MOL
REMARK 924 INTRA-LIGAND FREE ENERGY PREDICTED BY IDOCK:   -1.08 KCAL/MOL
REMARK 927      BINDING AFFINITY PREDICTED BY RF-SCORE:    0.00 PKD
ROOT
HETATM    1  O   UNL     1      -7.812   4.896  73.570  1.00  0.00    -0.097 OA 
HETATM    2  H   UNL     1      -8.544   4.407  73.928  1.00  0.00     0.000 HD 
HETATM    3  C   UNL     1      -7.822   5.376  72.296  1.00  0.00    -0.103 A  
HETATM    4  C   UNL     1      -6.753   6.091  71.773  1.00  0.00    -0.063 A  
HETATM    5  C   UNL     1      -6.832   6.619  70.474  1.00  0.00    -0.062 A  
HETATM    6  C   UNL     1      -7.972   6.424  69.674  1.00  0.00    -0.116 A  
HETATM    7  C   UNL     1      -9.009   5.640  70.217  1.00  0.00    -0.152 A  
HETATM    8  C   UNL     1      -8.942   5.134  71.524  1.00  0.00    -0.154 A  
ENDROOT
BRANCH   6   9
HETATM    9  C   UNL     1      -8.123   7.075  68.337  1.00  0.00    -0.124 A  
HETATM   10  C   UNL     1      -8.611   8.324  67.922  1.00  0.00    -0.132 A  
HETATM   11  C   UNL     1      -8.530   9.567  64.258  1.00  0.00    -0.193 A  
HETATM   12  C   UNL     1      -8.477   8.514  66.478  1.00  0.00    -0.119 A  
HETATM   13  O   UNL     1      -7.907   8.371  62.332  1.00  0.00    -0.126 OA 
HETATM   14  C   UNL     1      -7.993   7.367  65.854  1.00  0.00    -0.118 A  
HETATM   15  H   UNL     1      -8.106   9.132  61.800  1.00  0.00     0.000 HD 
HETATM   16  C   UNL     1      -8.718   9.642  65.642  1.00  0.00    -0.163 A  
HETATM   17  S   UNL     1      -7.696   6.118  66.970  1.00  0.00    -0.101 SA 
HETATM   18  C   UNL     1      -7.782   7.286  64.463  1.00  0.00    -0.113 A  
HETATM   19  C   UNL     1      -8.072   8.398  63.685  1.00  0.00    -0.142 A  
BRANCH  10  20
HETATM   20  C   UNL     1      -9.050   9.359  68.860  1.00  0.00    -0.140 C  
HETATM   21  O   UNL     1      -9.679   9.048  69.873  1.00  0.00    -0.170 OA 
BRANCH  20  22
HETATM   22  C   UNL     1      -8.767  10.813  68.655  1.00  0.00    -0.152 A  
HETATM   23  C   UNL     1      -8.028  13.554  68.581  1.00  0.00    -0.073 A  
HETATM   24  C   UNL     1      -9.309  13.155  68.187  1.00  0.00    -0.217 A  
HETATM   25  C   UNL     1      -7.482  11.226  69.016  1.00  0.00    -0.116 A  
HETATM   26  C   UNL     1      -9.682  11.789  68.225  1.00  0.00    -0.199 A  
HETATM   27  C   UNL     1      -7.128  12.576  69.006  1.00  0.00    -0.037 A  
BRANCH  23  28
HETATM   28  O   UNL     1      -7.717  14.907  68.521  1.00  0.00    -0.112 OA 
BRANCH  28  29
HETATM   29  C   UNL     1      -8.733  15.711  69.145  1.00  0.00    -0.251 C  
BRANCH  29  30
HETATM   30  C   UNL     1      -8.922  17.149  68.630  1.00  0.00    -0.267 C  
BRANCH  30  31
HETATM   31  N   UNL     1      -9.374  17.147  67.210  1.00  0.00    -0.239 NA 
HETATM   32  C   UNL     1     -10.374  18.180  66.882  1.00  0.00    -0.375 C  
HETATM   33  C   UNL     1      -9.819  19.587  67.076  1.00  0.00    -0.469 C  
HETATM   34  C   UNL     1      -8.642  19.802  66.132  1.00  0.00    -0.367 C  
HETATM   35  C   UNL     1      -7.625  18.656  66.191  1.00  0.00    -0.276 C  
HETATM   36  C   UNL     1      -8.262  17.261  66.254  1.00  0.00    -0.267 C  
ENDBRANCH  30  31
ENDBRANCH  29  30
ENDBRANCH  28  29
ENDBRANCH  23  28
ENDBRANCH  20  22
ENDBRANCH  10  20
ENDBRANCH   6   9
TORSDOF 7
ENDMDL
MODEL      199
REMARK 921   NORMALIZED FREE ENERGY PREDICTED BY IDOCK:   -3.36 KCAL/MOL
REMARK 922        TOTAL FREE ENERGY PREDICTED BY IDOCK:   -6.82 KCAL/MOL
REMARK 923 INTER-LIGAND FREE ENERGY PREDICTED BY IDOCK:   -5.31 KCAL/MOL
REMARK 924 INTRA-LIGAND FREE ENERGY PREDICTED BY IDOCK:   -1.51 KCAL/MOL
REMARK 927      BINDING AFFINITY PREDICTED BY RF-SCORE:    0.00 PKD
ROOT
HETATM    1  O   UNL     1      -5.803   5.260  72.885  1.00  0.00    -0.021 OA 
HETATM    2  H   UNL     1      -4.876   5.159  73.070  1.00  0.00     0.000 HD 
HETATM    3  C   UNL     1      -6.293   5.212  71.615  1.00  0.00    -0.031 A  
HETATM    4  C   UNL     1      -7.647   5.358  71.346  1.00  0.00    -0.102 A  
HETATM    5  C   UNL     1      -8.115   5.241  70.027  1.00  0.00    -0.084 A  
HETATM    6  C   UNL     1      -7.235   4.995  68.959  1.00  0.00    -0.054 A  
HETATM    7  C   UNL     1      -5.862   4.916  69.264  1.00  0.00    -0.017 A  
HETATM    8  C   UNL     1      -5.396   5.006  70.585  1.00  0.00    -0.004 A  
ENDROOT
BRANCH   6   9
HETATM    9  C   UNL     1      -7.724   4.751  67.567  1.00  0.00    -0.090 A  
HETATM   10  C   UNL     1      -7.912   5.583  66.452  1.00  0.00    -0.105 A  
HETATM   11  C   UNL     1      -9.008   4.308  62.966  1.00  0.00    -0.122 A  
HETATM   12  C   UNL     1      -8.354   4.834  65.276  1.00  0.00    -0.127 A  
HETATM   13  O   UNL     1      -9.688   2.140  62.361  1.00  0.00    -0.089 OA 
HETATM   14  C   UNL     1      -8.581   3.493  65.579  1.00  0.00    -0.114 A  
HETATM   15  H   UNL     1      -9.839   2.440  61.472  1.00  0.00     0.000 HD 
HETATM   16  C   UNL     1      -8.552   5.224  63.920  1.00  0.00    -0.052 A  
HETATM   17  S   UNL     1      -8.254   3.151  67.213  1.00  0.00    -0.085 SA 
HETATM   18  C   UNL     1      -9.021   2.558  64.622  1.00  0.00    -0.119 A  
HETATM   19  C   UNL     1      -9.241   2.996  63.324  1.00  0.00    -0.094 A  
BRANCH  10  20
HETATM   20  C   UNL     1      -7.549   7.002  66.446  1.00  0.00    -0.088 C  
HETATM   21  O   UNL     1      -6.395   7.344  66.708  1.00  0.00    -0.042 OA 
BRANCH  20  22
HETATM   22  C   UNL     1      -8.528   8.088  66.130  1.00  0.00    -0.141 A  
HETATM   23  C   UNL     1     -10.088  10.350  65.413  1.00  0.00    -0.284 A  
HETATM   24  C   UNL     1     -10.402   9.606  66.555  1.00  0.00    -0.264 A  
HETATM   25  C   UNL     1      -8.245   8.825  64.978  1.00  0.00    -0.156 A  
HETATM   26  C   UNL     1      -9.625   8.479  66.916  1.00  0.00    -0.257 A  
HETATM   27  C   UNL     1      -8.996   9.953  64.641  1.00  0.00    -0.260 A  
BRANCH  23  28
HETATM   28  O   UNL     1     -10.887  11.445  65.105  1.00  0.00    -0.286 OA 
BRANCH  28  29
HETATM   29  C   UNL     1     -10.524  12.598  65.883  1.00  0.00    -0.274 C  
BRANCH  29  30
HETATM   30  C   UNL     1     -11.397  12.937  67.106  1.00  0.00    -0.306 C  
BRANCH  30  31
HETATM   31  N   UNL     1     -10.558  13.079  68.330  1.00  0.00    -0.241 NA 
HETATM   32  C   UNL     1     -10.909  14.228  69.184  1.00  0.00    -0.242 C  
HETATM   33  C   UNL     1     -12.327  14.112  69.736  1.00  0.00    -0.350 C  
HETATM   34  C   UNL     1     -12.429  12.867  70.611  1.00  0.00    -0.333 C  
HETATM   35  C   UNL     1     -11.861  11.619  69.925  1.00  0.00    -0.434 C  
HETATM   36  C   UNL     1     -10.552  11.868  69.164  1.00  0.00    -0.044 C  
ENDBRANCH  30  31
ENDBRANCH  29  30
ENDBRANCH  28  29
ENDBRANCH  23  28
ENDBRANCH  20  22
ENDBRANCH  10  20
ENDBRANCH   6   9
TORSDOF 7
ENDMDL
MODEL      200
REMARK 921   NORMALIZED FREE ENERGY PREDICTED BY IDOCK:   -3.28 KCAL/MOL
REMARK 922        TOTAL FREE ENERGY PREDICTED BY IDOCK:   -6.70 KCAL/MOL
REMARK 923 INTER-LIGAND FREE ENERGY PREDICTED BY IDOCK:   -5.29 KCAL/MOL
REMARK 924 INTRA-LIGAND FREE ENERGY PREDICTED BY IDOCK:   -1.41 KCAL/MOL
REMARK 927      BINDING AFFINITY PREDICTED BY RF-SCORE:    0.00 PKD
ROOT
HETATM    1  O   UNL     1     -13.922   5.948  72.687  1.00  0.00    -0.458 OA 
HETATM    2  H   UNL     1     -14.753   6.165  73.093  1.00  0.00     0.000 HD 
HETATM    3  C   UNL     1     -13.247   6.841  71.911  1.00  0.00    -0.099 A  
HETATM    4  C   UNL     1     -12.031   6.524  71.318  1.00  0.00    -0.364 A  
HETATM    5  C   UNL     1     -11.341   7.496  70.576  1.00  0.00    -0.279 A  
HETATM    6  C   UNL     1     -11.863   8.789  70.401  1.00  0.00     0.045 A  
HETATM    7  C   UNL     1     -13.127   9.052  70.964  1.00  0.00    -0.068 A  
HETATM    8  C   UNL     1     -13.806   8.090  71.728  1.00  0.00    -0.452 A  
ENDROOT
BRANCH   6   9
HETATM    9  C   UNL     1     -11.091   9.870  69.715  1.00  0.00    -0.254 A  
HETATM   10  C   UNL     1      -9.720  10.115  69.542  1.00  0.00    -0.251 A  
HETATM   11  C   UNL     1      -8.292  13.018  67.419  1.00  0.00    -0.194 A  
HETATM   12  C   UNL     1      -9.471  11.294  68.714  1.00  0.00    -0.147 A  
HETATM   13  O   UNL     1      -9.464  14.782  66.397  1.00  0.00    -0.271 OA 
HETATM   14  C   UNL     1     -10.657  11.947  68.385  1.00  0.00    -0.218 A  
HETATM   15  H   UNL     1      -8.642  15.140  66.083  1.00  0.00     0.000 HD 
HETATM   16  C   UNL     1      -8.270  11.846  68.182  1.00  0.00    -0.158 A  
HETATM   17  S   UNL     1     -12.015  11.155  69.036  1.00  0.00    -0.241 SA 
HETATM   18  C   UNL     1     -10.693  13.117  67.602  1.00  0.00    -0.250 A  
HETATM   19  C   UNL     1      -9.493  13.641  67.142  1.00  0.00    -0.244 A  
BRANCH  10  20
HETATM   20  C   UNL     1      -8.681   9.194  70.011  1.00  0.00    -0.177 C  
HETATM   21  O   UNL     1      -8.352   9.188  71.198  1.00  0.00    -0.241 OA 
BRANCH  20  22
HETATM   22  C   UNL     1      -7.981   8.232  69.105  1.00  0.00    -0.112 A  
HETATM   23  C   UNL     1      -6.963   6.197  67.406  1.00  0.00    -0.069 A  
HETATM   24  C   UNL     1      -6.125   6.837  68.325  1.00  0.00    -0.029 A  
HETATM   25  C   UNL     1      -8.796   7.602  68.162  1.00  0.00    -0.125 A  
HETATM   26  C   UNL     1      -6.630   7.851  69.175  1.00  0.00    -0.040 A  
HETATM   27  C   UNL     1      -8.302   6.582  67.347  1.00  0.00    -0.120 A  
BRANCH  23  28
HETATM   28  O   UNL     1      -6.412   5.210  66.597  1.00  0.00    -0.039 OA 
BRANCH  28  29
HETATM   29  C   UNL     1      -7.024   3.931  66.832  1.00  0.00    -0.059 C  
BRANCH  29  30
HETATM   30  C   UNL     1      -7.753   3.724  68.173  1.00  0.00    -0.065 C  
BRANCH  30  31
HETATM   31  N   UNL     1      -6.958   2.844  69.076  1.00  0.00    -0.044 NA 
HETATM   32  C   UNL     1      -6.141   3.564  70.069  1.00  0.00    -0.023 C  
HETATM   33  C   UNL     1      -7.003   4.374  71.032  1.00  0.00    -0.036 C  
HETATM   34  C   UNL     1      -7.913   3.433  71.812  1.00  0.00    -0.062 C  
HETATM   35  C   UNL     1      -8.653   2.445  70.903  1.00  0.00    -0.103 C  
HETATM   36  C   UNL     1      -7.783   1.855  69.785  1.00  0.00    -0.042 C  
ENDBRANCH  30  31
ENDBRANCH  29  30
ENDBRANCH  28  29
ENDBRANCH  23  28
ENDBRANCH  20  22
ENDBRANCH  10  20
ENDBRANCH   6   9
TORSDOF 7
ENDMDL
MODEL      201
REMARK 921   NORMALIZED FREE ENERGY PREDICTED BY IDOCK:   -3.28 KCAL/MOL
REMARK 922        TOTAL FREE ENERGY PREDICTED BY IDOCK:   -6.70 KCAL/MOL
REMARK 923 INTER-LIGAND FREE ENERGY PREDICTED BY IDOCK:   -6.11 KCAL/MOL
REMARK 924 INTRA-LIGAND FREE ENERGY PREDICTED BY IDOCK:   -0.59 KCAL/MOL
REMARK 927      BINDING AFFINITY PREDICTED BY RF-SCORE:    0.00 PKD
ROOT
HETATM    1  O   UNL     1     -12.491   5.433  72.820  1.00  0.00    -0.417 OA 
HETATM    2  H   UNL     1     -13.256   5.710  73.309  1.00  0.00     0.000 HD 
HETATM    3  C   UNL     1     -11.856   6.264  71.946  1.00  0.00    -0.305 A  
HETATM    4  C   UNL     1     -10.737   5.859  71.231  1.00  0.00    -0.325 A  
HETATM    5  C   UNL     1     -10.080   6.768  70.387  1.00  0.00    -0.200 A  
HETATM    6  C   UNL     1     -10.542   8.086  70.231  1.00  0.00    -0.231 A  
HETATM    7  C   UNL     1     -11.717   8.439  70.923  1.00  0.00    -0.269 A  
HETATM    8  C   UNL     1     -12.359   7.540  71.788  1.00  0.00    -0.357 A  
ENDROOT
BRANCH   6   9
HETATM    9  C   UNL     1      -9.791   9.101  69.429  1.00  0.00    -0.172 A  
HETATM   10  C   UNL     1     -10.175  10.265  68.746  1.00  0.00    -0.205 A  
HETATM   11  C   UNL     1      -7.689  12.671  67.011  1.00  0.00    -0.021 A  
HETATM   12  C   UNL     1      -9.029  10.964  68.165  1.00  0.00    -0.144 A  
HETATM   13  O   UNL     1      -5.377  12.387  66.692  1.00  0.00    -0.409 OA 
HETATM   14  C   UNL     1      -7.848  10.247  68.344  1.00  0.00    -0.102 A  
HETATM   15  H   UNL     1      -5.343  13.215  66.228  1.00  0.00     0.000 HD 
HETATM   16  C   UNL     1      -8.919  12.221  67.503  1.00  0.00    -0.180 A  
HETATM   17  S   UNL     1      -8.112   8.798  69.195  1.00  0.00    -0.120 SA 
HETATM   18  C   UNL     1      -6.601  10.699  67.869  1.00  0.00    -0.060 A  
HETATM   19  C   UNL     1      -6.552  11.910  67.192  1.00  0.00    -0.148 A  
BRANCH  10  20
HETATM   20  C   UNL     1     -11.545  10.784  68.762  1.00  0.00    -0.280 C  
HETATM   21  O   UNL     1     -12.496  10.019  68.593  1.00  0.00     0.768 OA 
BRANCH  20  22
HETATM   22  C   UNL     1     -11.863  12.229  68.982  1.00  0.00    -0.358 A  
HETATM   23  C   UNL     1     -12.238  15.040  69.108  1.00  0.00    -0.151 A  
HETATM   24  C   UNL     1     -12.168  14.281  70.281  1.00  0.00    -0.407 A  
HETATM   25  C   UNL     1     -11.964  12.998  67.820  1.00  0.00    -0.344 A  
HETATM   26  C   UNL     1     -11.979  12.879  70.221  1.00  0.00    -0.359 A  
HETATM   27  C   UNL     1     -12.121  14.383  67.883  1.00  0.00    -0.280 A  
BRANCH  23  28
HETATM   28  O   UNL     1     -12.427  16.412  69.227  1.00  0.00     0.215 OA 
BRANCH  28  29
HETATM   29  C   UNL     1     -11.337  17.148  68.646  1.00  0.00     0.292 C  
BRANCH  29  30
HETATM   30  C   UNL     1      -9.981  17.110  69.375  1.00  0.00    -0.061 C  
BRANCH  30  31
HETATM   31  N   UNL     1      -8.964  17.917  68.642  1.00  0.00    -0.283 NA 
HETATM   32  C   UNL     1      -7.569  17.504  68.878  1.00  0.00    -0.225 C  
HETATM   33  C   UNL     1      -7.309  16.081  68.394  1.00  0.00    -0.131 C  
HETATM   34  C   UNL     1      -7.540  16.007  66.889  1.00  0.00    -0.268 C  
HETATM   35  C   UNL     1      -8.873  16.636  66.468  1.00  0.00    -0.314 C  
HETATM   36  C   UNL     1      -9.198  17.951  67.191  1.00  0.00    -0.258 C  
ENDBRANCH  30  31
ENDBRANCH  29  30
ENDBRANCH  28  29
ENDBRANCH  23  28
ENDBRANCH  20  22
ENDBRANCH  10  20
ENDBRANCH   6   9
TORSDOF 7
ENDMDL
MODEL      202
REMARK 921   NORMALIZED FREE ENERGY PREDICTED BY IDOCK:   -3.25 KCAL/MOL
REMARK 922        TOTAL FREE ENERGY PREDICTED BY IDOCK:   -6.66 KCAL/MOL
REMARK 923 INTER-LIGAND FREE ENERGY PREDICTED BY IDOCK:   -5.66 KCAL/MOL
REMARK 924 INTRA-LIGAND FREE ENERGY PREDICTED BY IDOCK:   -1.00 KCAL/MOL
REMARK 927      BINDING AFFINITY PREDICTED BY RF-SCORE:    0.00 PKD
ROOT
HETATM    1  O   UNL     1     -12.733  11.690  71.371  1.00  0.00    -0.388 OA 
HETATM    2  H   UNL     1     -13.333  12.178  70.820  1.00  0.00     0.000 HD 
HETATM    3  C   UNL     1     -11.977  10.667  70.884  1.00  0.00    -0.363 A  
HETATM    4  C   UNL     1     -11.100   9.954  71.690  1.00  0.00     0.112 A  
HETATM    5  C   UNL     1     -10.297   8.947  71.131  1.00  0.00    -0.338 A  
HETATM    6  C   UNL     1     -10.373   8.626  69.764  1.00  0.00    -0.212 A  
HETATM    7  C   UNL     1     -11.320   9.327  68.993  1.00  0.00     0.246 A  
HETATM    8  C   UNL     1     -12.104  10.352  69.545  1.00  0.00    -0.125 A  
ENDROOT
BRANCH   6   9
HETATM    9  C   UNL     1      -9.446   7.640  69.128  1.00  0.00    -0.154 A  
HETATM   10  C   UNL     1      -8.824   7.574  67.872  1.00  0.00    -0.126 A  
HETATM   11  C   UNL     1      -6.283   4.836  66.859  1.00  0.00    -0.032 A  
HETATM   12  C   UNL     1      -7.934   6.419  67.759  1.00  0.00    -0.114 A  
HETATM   13  O   UNL     1      -5.669   2.910  68.060  1.00  0.00    -0.018 OA 
HETATM   14  C   UNL     1      -8.002   5.609  68.890  1.00  0.00    -0.097 A  
HETATM   15  H   UNL     1      -5.092   2.656  67.349  1.00  0.00     0.000 HD 
HETATM   16  C   UNL     1      -7.022   6.018  66.740  1.00  0.00    -0.068 A  
HETATM   17  S   UNL     1      -9.083   6.230  70.047  1.00  0.00    -0.149 SA 
HETATM   18  C   UNL     1      -7.249   4.427  69.029  1.00  0.00    -0.052 A  
HETATM   19  C   UNL     1      -6.406   4.055  67.990  1.00  0.00    -0.037 A  
BRANCH  10  20
HETATM   20  C   UNL     1      -8.943   8.634  66.868  1.00  0.00    -0.138 C  
HETATM   21  O   UNL     1      -9.175   8.347  65.692  1.00  0.00    -0.154 OA 
BRANCH  20  22
HETATM   22  C   UNL     1      -8.796  10.085  67.198  1.00  0.00    -0.142 A  
HETATM   23  C   UNL     1      -8.589  12.905  67.461  1.00  0.00    -0.188 A  
HETATM   24  C   UNL     1      -7.736  12.061  68.181  1.00  0.00    -0.135 A  
HETATM   25  C   UNL     1      -9.659  10.942  66.509  1.00  0.00    -0.224 A  
HETATM   26  C   UNL     1      -7.836  10.655  68.050  1.00  0.00    -0.105 A  
HETATM   27  C   UNL     1      -9.538  12.328  66.618  1.00  0.00    -0.227 A  
BRANCH  23  28
HETATM   28  O   UNL     1      -8.447  14.277  67.631  1.00  0.00    -0.157 OA 
BRANCH  28  29
HETATM   29  C   UNL     1      -9.399  15.008  66.839  1.00  0.00    -0.241 C  
BRANCH  29  30
HETATM   30  C   UNL     1      -9.602  16.500  67.163  1.00  0.00    -0.240 C  
BRANCH  30  31
HETATM   31  N   UNL     1      -8.782  17.353  66.257  1.00  0.00    -0.427 NA 
HETATM   32  C   UNL     1      -8.994  18.803  66.422  1.00  0.00    -0.292 C  
HETATM   33  C   UNL     1      -8.597  19.280  67.815  1.00  0.00    -0.341 C  
HETATM   34  C   UNL     1      -7.109  19.027  68.031  1.00  0.00    -0.263 C  
HETATM   35  C   UNL     1      -6.695  17.600  67.656  1.00  0.00    -0.182 C  
HETATM   36  C   UNL     1      -7.340  17.083  66.363  1.00  0.00    -0.293 C  
ENDBRANCH  30  31
ENDBRANCH  29  30
ENDBRANCH  28  29
ENDBRANCH  23  28
ENDBRANCH  20  22
ENDBRANCH  10  20
ENDBRANCH   6   9
TORSDOF 7
ENDMDL
MODEL      203
REMARK 921   NORMALIZED FREE ENERGY PREDICTED BY IDOCK:   -3.19 KCAL/MOL
REMARK 922        TOTAL FREE ENERGY PREDICTED BY IDOCK:   -6.58 KCAL/MOL
REMARK 923 INTER-LIGAND FREE ENERGY PREDICTED BY IDOCK:   -5.39 KCAL/MOL
REMARK 924 INTRA-LIGAND FREE ENERGY PREDICTED BY IDOCK:   -1.19 KCAL/MOL
REMARK 927      BINDING AFFINITY PREDICTED BY RF-SCORE:    0.00 PKD
ROOT
HETATM    1  O   UNL     1      -9.430   6.280  73.943  1.00  0.00    -0.137 OA 
HETATM    2  H   UNL     1     -10.037   6.308  74.673  1.00  0.00     0.000 HD 
HETATM    3  C   UNL     1      -9.661   6.964  72.789  1.00  0.00    -0.150 A  
HETATM    4  C   UNL     1      -8.773   6.924  71.721  1.00  0.00    -0.120 A  
HETATM    5  C   UNL     1      -9.023   7.693  70.573  1.00  0.00    -0.151 A  
HETATM    6  C   UNL     1     -10.171   8.497  70.469  1.00  0.00    -0.220 A  
HETATM    7  C   UNL     1     -11.079   8.462  71.545  1.00  0.00    -0.329 A  
HETATM    8  C   UNL     1     -10.818   7.715  72.704  1.00  0.00    -0.395 A  
ENDROOT
BRANCH   6   9
HETATM    9  C   UNL     1     -10.396   9.411  69.307  1.00  0.00    -0.208 A  
HETATM   10  C   UNL     1     -10.430   9.214  67.918  1.00  0.00    -0.293 A  
HETATM   11  C   UNL     1     -11.315  11.982  65.363  1.00  0.00    -0.375 A  
HETATM   12  C   UNL     1     -10.766  10.441  67.196  1.00  0.00    -0.316 A  
HETATM   13  O   UNL     1     -11.660  14.273  65.765  1.00  0.00    -0.333 OA 
HETATM   14  C   UNL     1     -10.870  11.529  68.059  1.00  0.00    -0.213 A  
HETATM   15  H   UNL     1     -11.799  14.411  64.836  1.00  0.00     0.000 HD 
HETATM   16  C   UNL     1     -11.028  10.691  65.818  1.00  0.00     0.091 A  
HETATM   17  S   UNL     1     -10.589  11.082  69.676  1.00  0.00     0.011 SA 
HETATM   18  C   UNL     1     -11.176  12.830  67.614  1.00  0.00    -0.323 A  
HETATM   19  C   UNL     1     -11.380  13.032  66.256  1.00  0.00    -0.317 A  
BRANCH  10  20
HETATM   20  C   UNL     1     -10.297   7.894  67.297  1.00  0.00    -0.307 C  
HETATM   21  O   UNL     1     -11.266   7.135  67.248  1.00  0.00    -0.240 OA 
BRANCH  20  22
HETATM   22  C   UNL     1      -9.016   7.402  66.701  1.00  0.00    -0.168 A  
HETATM   23  C   UNL     1      -6.413   6.649  65.851  1.00  0.00    -0.046 A  
HETATM   24  C   UNL     1      -7.401   6.966  64.913  1.00  0.00    -0.087 A  
HETATM   25  C   UNL     1      -8.026   7.055  67.624  1.00  0.00    -0.114 A  
HETATM   26  C   UNL     1      -8.700   7.343  65.334  1.00  0.00     0.004 A  
HETATM   27  C   UNL     1      -6.739   6.712  67.206  1.00  0.00    -0.063 A  
BRANCH  23  28
HETATM   28  O   UNL     1      -5.158   6.284  65.381  1.00  0.00    -0.013 OA 
BRANCH  28  29
HETATM   29  C   UNL     1      -5.191   5.003  64.729  1.00  0.00    -0.012 C  
BRANCH  29  30
HETATM   30  C   UNL     1      -6.412   4.680  63.849  1.00  0.00    -0.037 C  
BRANCH  30  31
HETATM   31  N   UNL     1      -6.800   3.248  63.988  1.00  0.00    -0.042 NA 
HETATM   32  C   UNL     1      -7.250   2.863  65.338  1.00  0.00    -0.066 C  
HETATM   33  C   UNL     1      -8.511   3.614  65.751  1.00  0.00    -0.111 C  
HETATM   34  C   UNL     1      -9.645   3.264  64.795  1.00  0.00    -0.149 C  
HETATM   35  C   UNL     1      -9.232   3.386  63.324  1.00  0.00    -0.094 C  
HETATM   36  C   UNL     1      -7.831   2.837  63.023  1.00  0.00    -0.068 C  
ENDBRANCH  30  31
ENDBRANCH  29  30
ENDBRANCH  28  29
ENDBRANCH  23  28
ENDBRANCH  20  22
ENDBRANCH  10  20
ENDBRANCH   6   9
TORSDOF 7
ENDMDL
MODEL      204
REMARK 921   NORMALIZED FREE ENERGY PREDICTED BY IDOCK:   -3.09 KCAL/MOL
REMARK 922        TOTAL FREE ENERGY PREDICTED BY IDOCK:   -6.43 KCAL/MOL
REMARK 923 INTER-LIGAND FREE ENERGY PREDICTED BY IDOCK:   -5.08 KCAL/MOL
REMARK 924 INTRA-LIGAND FREE ENERGY PREDICTED BY IDOCK:   -1.35 KCAL/MOL
REMARK 927      BINDING AFFINITY PREDICTED BY RF-SCORE:    0.00 PKD
ROOT
HETATM    1  O   UNL     1      -8.949   3.097  74.320  1.00  0.00    -0.079 OA 
HETATM    2  H   UNL     1      -9.492   3.588  74.926  1.00  0.00     0.000 HD 
HETATM    3  C   UNL     1      -8.916   3.384  72.989  1.00  0.00    -0.087 A  
HETATM    4  C   UNL     1      -8.122   2.666  72.104  1.00  0.00    -0.054 A  
HETATM    5  C   UNL     1      -8.073   3.036  70.750  1.00  0.00    -0.064 A  
HETATM    6  C   UNL     1      -8.829   4.114  70.259  1.00  0.00    -0.137 A  
HETATM    7  C   UNL     1      -9.670   4.776  71.175  1.00  0.00    -0.249 A  
HETATM    8  C   UNL     1      -9.700   4.425  72.533  1.00  0.00    -0.204 A  
ENDROOT
BRANCH   6   9
HETATM    9  C   UNL     1      -8.702   4.596  68.850  1.00  0.00    -0.089 A  
HETATM   10  C   UNL     1      -8.104   5.724  68.267  1.00  0.00    -0.108 A  
HETATM   11  C   UNL     1      -7.885   6.325  64.450  1.00  0.00    -0.115 A  
HETATM   12  C   UNL     1      -8.192   5.700  66.807  1.00  0.00    -0.105 A  
HETATM   13  O   UNL     1      -8.873   5.071  62.724  1.00  0.00    -0.177 OA 
HETATM   14  C   UNL     1      -8.939   4.614  66.357  1.00  0.00    -0.114 A  
HETATM   15  H   UNL     1      -8.512   5.673  62.085  1.00  0.00     0.000 HD 
HETATM   16  C   UNL     1      -7.635   6.549  65.808  1.00  0.00    -0.085 A  
HETATM   17  S   UNL     1      -9.496   3.654  67.646  1.00  0.00    -0.148 SA 
HETATM   18  C   UNL     1      -9.182   4.367  64.992  1.00  0.00    -0.157 A  
HETATM   19  C   UNL     1      -8.654   5.248  64.058  1.00  0.00    -0.059 A  
BRANCH  10  20
HETATM   20  C   UNL     1      -7.348   6.713  69.039  1.00  0.00    -0.094 C  
HETATM   21  O   UNL     1      -6.539   6.344  69.891  1.00  0.00    -0.045 OA 
BRANCH  20  22
HETATM   22  C   UNL     1      -7.506   8.188  68.844  1.00  0.00    -0.089 A  
HETATM   23  C   UNL     1      -8.135  10.905  68.309  1.00  0.00    -0.124 A  
HETATM   24  C   UNL     1      -6.817  10.447  68.202  1.00  0.00    -0.072 A  
HETATM   25  C   UNL     1      -8.812   8.667  68.974  1.00  0.00    -0.138 A  
HETATM   26  C   UNL     1      -6.501   9.093  68.466  1.00  0.00    -0.054 A  
HETATM   27  C   UNL     1      -9.125   9.996  68.684  1.00  0.00    -0.139 A  
BRANCH  23  28
HETATM   28  O   UNL     1      -8.386  12.245  68.040  1.00  0.00    -0.148 OA 
BRANCH  28  29
HETATM   29  C   UNL     1      -9.796  12.511  67.955  1.00  0.00    -0.214 C  
BRANCH  29  30
HETATM   30  C   UNL     1     -10.289  13.899  68.405  1.00  0.00    -0.249 C  
BRANCH  30  31
HETATM   31  N   UNL     1      -9.223  14.924  68.220  1.00  0.00    -0.182 NA 
HETATM   32  C   UNL     1      -8.872  15.197  66.815  1.00  0.00    -0.271 C  
HETATM   33  C   UNL     1     -10.053  15.769  66.037  1.00  0.00    -0.359 C  
HETATM   34  C   UNL     1     -10.468  17.101  66.652  1.00  0.00    -0.259 C  
HETATM   35  C   UNL     1     -10.632  17.018  68.174  1.00  0.00    -0.369 C  
HETATM   36  C   UNL     1      -9.537  16.202  68.876  1.00  0.00    -0.245 C  
ENDBRANCH  30  31
ENDBRANCH  29  30
ENDBRANCH  28  29
ENDBRANCH  23  28
ENDBRANCH  20  22
ENDBRANCH  10  20
ENDBRANCH   6   9
TORSDOF 7
ENDMDL
MODEL      205
REMARK 921   NORMALIZED FREE ENERGY PREDICTED BY IDOCK:   -2.89 KCAL/MOL
REMARK 922        TOTAL FREE ENERGY PREDICTED BY IDOCK:   -6.15 KCAL/MOL
REMARK 923 INTER-LIGAND FREE ENERGY PREDICTED BY IDOCK:   -4.98 KCAL/MOL
REMARK 924 INTRA-LIGAND FREE ENERGY PREDICTED BY IDOCK:   -1.17 KCAL/MOL
REMARK 927      BINDING AFFINITY PREDICTED BY RF-SCORE:    0.00 PKD
ROOT
HETATM    1  O   UNL     1     -10.904  12.603  68.184  1.00  0.00    -0.211 OA 
HETATM    2  H   UNL     1     -11.308  12.873  67.368  1.00  0.00     0.000 HD 
HETATM    3  C   UNL     1     -10.699  11.290  68.484  1.00  0.00    -0.201 A  
HETATM    4  C   UNL     1     -10.108  10.894  69.677  1.00  0.00     0.039 A  
HETATM    5  C   UNL     1      -9.862   9.533  69.918  1.00  0.00    -0.254 A  
HETATM    6  C   UNL     1     -10.218   8.548  68.979  1.00  0.00    -0.218 A  
HETATM    7  C   UNL     1     -10.873   8.984  67.811  1.00  0.00    -0.125 A  
HETATM    8  C   UNL     1     -11.096  10.346  67.557  1.00  0.00    -0.336 A  
ENDROOT
BRANCH   6   9
HETATM    9  C   UNL     1      -9.860   7.109  69.165  1.00  0.00    -0.160 A  
HETATM   10  C   UNL     1      -9.161   6.180  68.377  1.00  0.00    -0.111 A  
HETATM   11  C   UNL     1      -8.323   2.578  69.516  1.00  0.00    -0.075 A  
HETATM   12  C   UNL     1      -9.013   4.890  69.050  1.00  0.00    -0.134 A  
HETATM   13  O   UNL     1      -9.037   1.467  71.462  1.00  0.00    -0.062 OA 
HETATM   14  C   UNL     1      -9.693   4.866  70.266  1.00  0.00    -0.217 A  
HETATM   15  H   UNL     1      -8.570   0.688  71.183  1.00  0.00     0.000 HD 
HETATM   16  C   UNL     1      -8.292   3.713  68.699  1.00  0.00    -0.093 A  
HETATM   17  S   UNL     1     -10.461   6.349  70.588  1.00  0.00    -0.230 SA 
HETATM   18  C   UNL     1      -9.715   3.736  71.106  1.00  0.00    -0.245 A  
HETATM   19  C   UNL     1      -9.033   2.598  70.700  1.00  0.00    -0.096 A  
BRANCH  10  20
HETATM   20  C   UNL     1      -8.527   6.533  67.105  1.00  0.00    -0.112 C  
HETATM   21  O   UNL     1      -8.461   5.702  66.198  1.00  0.00    -0.120 OA 
BRANCH  20  22
HETATM   22  C   UNL     1      -7.941   7.883  66.837  1.00  0.00    -0.108 A  
HETATM   23  C   UNL     1      -6.872  10.510  66.695  1.00  0.00    -0.108 A  
HETATM   24  C   UNL     1      -7.677  10.015  65.663  1.00  0.00    -0.136 A  
HETATM   25  C   UNL     1      -7.112   8.382  67.844  1.00  0.00    -0.083 A  
HETATM   26  C   UNL     1      -8.213   8.706  65.732  1.00  0.00    -0.126 A  
HETATM   27  C   UNL     1      -6.610   9.683  67.787  1.00  0.00    -0.065 A  
BRANCH  23  28
HETATM   28  O   UNL     1      -6.372  11.800  66.573  1.00  0.00    -0.081 OA 
BRANCH  28  29
HETATM   29  C   UNL     1      -7.071  12.721  67.427  1.00  0.00    -0.132 C  
BRANCH  29  30
HETATM   30  C   UNL     1      -6.234  13.763  68.192  1.00  0.00    -0.126 C  
BRANCH  30  31
HETATM   31  N   UNL     1      -6.222  15.065  67.467  1.00  0.00    -0.322 NA 
HETATM   32  C   UNL     1      -7.513  15.445  66.866  1.00  0.00    -0.019 C  
HETATM   33  C   UNL     1      -8.596  15.638  67.924  1.00  0.00    -0.163 C  
HETATM   34  C   UNL     1      -8.195  16.774  68.857  1.00  0.00    -0.224 C  
HETATM   35  C   UNL     1      -6.758  16.632  69.372  1.00  0.00    -0.218 C  
HETATM   36  C   UNL     1      -5.754  16.182  68.302  1.00  0.00    -0.106 C  
ENDBRANCH  30  31
ENDBRANCH  29  30
ENDBRANCH  28  29
ENDBRANCH  23  28
ENDBRANCH  20  22
ENDBRANCH  10  20
ENDBRANCH   6   9
TORSDOF 7
ENDMDL
MODEL      206
REMARK 921   NORMALIZED FREE ENERGY PREDICTED BY IDOCK:   -2.89 KCAL/MOL
REMARK 922        TOTAL FREE ENERGY PREDICTED BY IDOCK:   -6.15 KCAL/MOL
REMARK 923 INTER-LIGAND FREE ENERGY PREDICTED BY IDOCK:   -6.08 KCAL/MOL
REMARK 924 INTRA-LIGAND FREE ENERGY PREDICTED BY IDOCK:   -0.06 KCAL/MOL
REMARK 927      BINDING AFFINITY PREDICTED BY RF-SCORE:    0.00 PKD
ROOT
HETATM    1  O   UNL     1     -11.932   5.439  73.048  1.00  0.00    -0.548 OA 
HETATM    2  H   UNL     1     -12.535   4.781  72.723  1.00  0.00     0.000 HD 
HETATM    3  C   UNL     1     -11.711   6.605  72.381  1.00  0.00    -0.225 A  
HETATM    4  C   UNL     1     -10.830   7.567  72.856  1.00  0.00    -0.425 A  
HETATM    5  C   UNL     1     -10.679   8.780  72.166  1.00  0.00    -0.383 A  
HETATM    6  C   UNL     1     -11.392   9.042  70.983  1.00  0.00    -0.362 A  
HETATM    7  C   UNL     1     -12.227   8.016  70.499  1.00  0.00     0.208 A  
HETATM    8  C   UNL     1     -12.399   6.814  71.201  1.00  0.00    -0.386 A  
ENDROOT
BRANCH   6   9
HETATM    9  C   UNL     1     -11.334  10.370  70.299  1.00  0.00    -0.328 A  
HETATM   10  C   UNL     1     -10.674  10.834  69.150  1.00  0.00    -0.265 A  
HETATM   11  C   UNL     1     -11.104  14.397  67.702  1.00  0.00    -0.311 A  
HETATM   12  C   UNL     1     -11.003  12.227  68.852  1.00  0.00    -0.265 A  
HETATM   13  O   UNL     1     -12.272  16.212  68.635  1.00  0.00    -0.297 OA 
HETATM   14  C   UNL     1     -11.811  12.784  69.841  1.00  0.00    -0.301 A  
HETATM   15  H   UNL     1     -12.011  16.753  67.899  1.00  0.00     0.000 HD 
HETATM   16  C   UNL     1     -10.677  13.066  67.748  1.00  0.00    -0.242 A  
HETATM   17  S   UNL     1     -12.171  11.663  71.068  1.00  0.00    -0.109 SA 
HETATM   18  C   UNL     1     -12.263  14.118  69.797  1.00  0.00    -0.397 A  
HETATM   19  C   UNL     1     -11.882  14.908  68.721  1.00  0.00    -0.296 A  
BRANCH  10  20
HETATM   20  C   UNL     1      -9.881   9.963  68.280  1.00  0.00    -0.147 C  
HETATM   21  O   UNL     1     -10.126   9.906  67.074  1.00  0.00    -0.195 OA 
BRANCH  20  22
HETATM   22  C   UNL     1      -8.757   9.116  68.787  1.00  0.00    -0.132 A  
HETATM   23  C   UNL     1      -6.886   7.252  69.830  1.00  0.00    -0.056 A  
HETATM   24  C   UNL     1      -6.721   8.622  70.055  1.00  0.00    -0.039 A  
HETATM   25  C   UNL     1      -8.890   7.746  68.547  1.00  0.00    -0.130 A  
HETATM   26  C   UNL     1      -7.653   9.554  69.538  1.00  0.00    -0.096 A  
HETATM   27  C   UNL     1      -7.986   6.828  69.084  1.00  0.00    -0.112 A  
BRANCH  23  28
HETATM   28  O   UNL     1      -5.939   6.383  70.360  1.00  0.00    -0.022 OA 
BRANCH  28  29
HETATM   29  C   UNL     1      -6.287   5.972  71.693  1.00  0.00    -0.049 C  
BRANCH  29  30
HETATM   30  C   UNL     1      -7.676   6.369  72.223  1.00  0.00    -0.098 C  
BRANCH  30  31
HETATM   31  N   UNL     1      -7.589   6.834  73.637  1.00  0.00    -0.082 NA 
HETATM   32  C   UNL     1      -6.327   6.494  74.317  1.00  0.00    -0.066 C  
HETATM   33  C   UNL     1      -5.126   7.159  73.650  1.00  0.00    -0.042 C  
HETATM   34  C   UNL     1      -5.275   8.674  73.734  1.00  0.00    -0.075 C  
HETATM   35  C   UNL     1      -6.659   9.154  73.279  1.00  0.00     0.357 C  
HETATM   36  C   UNL     1      -7.817   8.280  73.780  1.00  0.00    -0.169 C  
ENDBRANCH  30  31
ENDBRANCH  29  30
ENDBRANCH  28  29
ENDBRANCH  23  28
ENDBRANCH  20  22
ENDBRANCH  10  20
ENDBRANCH   6   9
TORSDOF 7
ENDMDL
MODEL      207
REMARK 921   NORMALIZED FREE ENERGY PREDICTED BY IDOCK:   -2.88 KCAL/MOL
REMARK 922        TOTAL FREE ENERGY PREDICTED BY IDOCK:   -6.14 KCAL/MOL
REMARK 923 INTER-LIGAND FREE ENERGY PREDICTED BY IDOCK:   -4.60 KCAL/MOL
REMARK 924 INTRA-LIGAND FREE ENERGY PREDICTED BY IDOCK:   -1.54 KCAL/MOL
REMARK 927      BINDING AFFINITY PREDICTED BY RF-SCORE:    0.00 PKD
ROOT
HETATM    1  O   UNL     1      -6.347  12.220  67.098  1.00  0.00    -0.162 OA 
HETATM    2  H   UNL     1      -5.844  12.944  67.453  1.00  0.00     0.000 HD 
HETATM    3  C   UNL     1      -6.375  10.999  67.701  1.00  0.00    -0.060 A  
HETATM    4  C   UNL     1      -7.111   9.942  67.183  1.00  0.00    -0.085 A  
HETATM    5  C   UNL     1      -7.159   8.719  67.870  1.00  0.00    -0.079 A  
HETATM    6  C   UNL     1      -6.459   8.530  69.074  1.00  0.00    -0.048 A  
HETATM    7  C   UNL     1      -5.673   9.604  69.534  1.00  0.00    -0.033 A  
HETATM    8  C   UNL     1      -5.645  10.836  68.862  1.00  0.00    -0.040 A  
ENDROOT
BRANCH   6   9
HETATM    9  C   UNL     1      -6.590   7.277  69.880  1.00  0.00    -0.040 A  
HETATM   10  C   UNL     1      -7.427   6.897  70.941  1.00  0.00    -0.083 A  
HETATM   11  C   UNL     1      -7.465   3.356  72.501  1.00  0.00    -0.050 A  
HETATM   12  C   UNL     1      -7.206   5.509  71.345  1.00  0.00    -0.073 A  
HETATM   13  O   UNL     1      -6.014   1.559  72.060  1.00  0.00    -0.008 OA 
HETATM   14  C   UNL     1      -6.146   4.935  70.646  1.00  0.00    -0.018 A  
HETATM   15  H   UNL     1      -6.472   1.036  72.707  1.00  0.00     0.000 HD 
HETATM   16  C   UNL     1      -7.888   4.669  72.272  1.00  0.00    -0.093 A  
HETATM   17  S   UNL     1      -5.459   6.025  69.536  1.00  0.00    -0.012 SA 
HETATM   18  C   UNL     1      -5.724   3.608  70.855  1.00  0.00    -0.013 A  
HETATM   19  C   UNL     1      -6.392   2.843  71.800  1.00  0.00    -0.015 A  
BRANCH  10  20
HETATM   20  C   UNL     1      -8.496   7.754  71.459  1.00  0.00    -0.117 C  
HETATM   21  O   UNL     1      -8.678   7.848  72.673  1.00  0.00    -0.135 OA 
BRANCH  20  22
HETATM   22  C   UNL     1      -9.403   8.546  70.571  1.00  0.00    -0.192 A  
HETATM   23  C   UNL     1     -11.027   9.809  68.614  1.00  0.00    -0.147 A  
HETATM   24  C   UNL     1     -10.346  10.571  69.569  1.00  0.00    -0.251 A  
HETATM   25  C   UNL     1     -10.112   7.798  69.628  1.00  0.00    -0.196 A  
HETATM   26  C   UNL     1      -9.534   9.944  70.545  1.00  0.00    -0.000 A  
HETATM   27  C   UNL     1     -10.888   8.422  68.649  1.00  0.00     0.027 A  
BRANCH  23  28
HETATM   28  O   UNL     1     -11.811  10.478  67.681  1.00  0.00    -0.297 OA 
BRANCH  28  29
HETATM   29  C   UNL     1     -11.433  11.861  67.568  1.00  0.00    -0.326 C  
BRANCH  29  30
HETATM   30  C   UNL     1     -10.379  12.229  66.508  1.00  0.00    -0.227 C  
BRANCH  30  31
HETATM   31  N   UNL     1     -10.993  12.290  65.151  1.00  0.00    -0.294 NA 
HETATM   32  C   UNL     1     -12.451  12.511  65.148  1.00  0.00    -0.379 C  
HETATM   33  C   UNL     1     -12.822  13.855  65.766  1.00  0.00    -0.437 C  
HETATM   34  C   UNL     1     -12.206  14.979  64.941  1.00  0.00    -0.149 C  
HETATM   35  C   UNL     1     -10.718  14.750  64.655  1.00  0.00    -0.279 C  
HETATM   36  C   UNL     1     -10.370  13.301  64.284  1.00  0.00    -0.294 C  
ENDBRANCH  30  31
ENDBRANCH  29  30
ENDBRANCH  28  29
ENDBRANCH  23  28
ENDBRANCH  20  22
ENDBRANCH  10  20
ENDBRANCH   6   9
TORSDOF 7
ENDMDL
MODEL      208
REMARK 921   NORMALIZED FREE ENERGY PREDICTED BY IDOCK:   -2.87 KCAL/MOL
REMARK 922        TOTAL FREE ENERGY PREDICTED BY IDOCK:   -6.13 KCAL/MOL
REMARK 923 INTER-LIGAND FREE ENERGY PREDICTED BY IDOCK:   -4.61 KCAL/MOL
REMARK 924 INTRA-LIGAND FREE ENERGY PREDICTED BY IDOCK:   -1.51 KCAL/MOL
REMARK 927      BINDING AFFINITY PREDICTED BY RF-SCORE:    0.00 PKD
ROOT
HETATM    1  O   UNL     1     -10.650  13.599  65.198  1.00  0.00    -0.322 OA 
HETATM    2  H   UNL     1     -11.225  13.562  64.442  1.00  0.00     0.000 HD 
HETATM    3  C   UNL     1     -10.084  12.478  65.727  1.00  0.00    -0.262 A  
HETATM    4  C   UNL     1      -9.243  12.533  66.831  1.00  0.00    -0.211 A  
HETATM    5  C   UNL     1      -8.635  11.359  67.306  1.00  0.00    -0.146 A  
HETATM    6  C   UNL     1      -8.873  10.115  66.696  1.00  0.00    -0.145 A  
HETATM    7  C   UNL     1      -9.781  10.092  65.620  1.00  0.00    -0.336 A  
HETATM    8  C   UNL     1     -10.369  11.267  65.128  1.00  0.00    -0.353 A  
ENDROOT
BRANCH   6   9
HETATM    9  C   UNL     1      -8.146   8.876  67.112  1.00  0.00    -0.103 A  
HETATM   10  C   UNL     1      -7.469   8.503  68.284  1.00  0.00    -0.096 A  
HETATM   11  C   UNL     1      -5.956   4.992  68.881  1.00  0.00    -0.021 A  
HETATM   12  C   UNL     1      -6.980   7.127  68.221  1.00  0.00    -0.076 A  
HETATM   13  O   UNL     1      -5.777   3.210  67.357  1.00  0.00    -0.021 OA 
HETATM   14  C   UNL     1      -7.215   6.556  66.973  1.00  0.00    -0.078 A  
HETATM   15  H   UNL     1      -5.338   2.692  68.021  1.00  0.00     0.000 HD 
HETATM   16  C   UNL     1      -6.357   6.294  69.196  1.00  0.00    -0.041 A  
HETATM   17  S   UNL     1      -8.012   7.635  65.926  1.00  0.00    -0.123 SA 
HETATM   18  C   UNL     1      -6.832   5.240  66.650  1.00  0.00    -0.063 A  
HETATM   19  C   UNL     1      -6.190   4.483  67.620  1.00  0.00    -0.036 A  
BRANCH  10  20
HETATM   20  C   UNL     1      -7.411   9.354  69.475  1.00  0.00    -0.083 C  
HETATM   21  O   UNL     1      -6.707  10.364  69.478  1.00  0.00    -0.058 OA 
BRANCH  20  22
HETATM   22  C   UNL     1      -8.182   9.057  70.722  1.00  0.00    -0.213 A  
HETATM   23  C   UNL     1      -9.407   8.208  73.139  1.00  0.00    -0.258 A  
HETATM   24  C   UNL     1     -10.185   8.690  72.082  1.00  0.00    -0.394 A  
HETATM   25  C   UNL     1      -7.418   8.600  71.799  1.00  0.00    -0.114 A  
HETATM   26  C   UNL     1      -9.578   9.112  70.874  1.00  0.00    -0.347 A  
HETATM   27  C   UNL     1      -8.023   8.157  72.976  1.00  0.00    -0.220 A  
BRANCH  23  28
HETATM   28  O   UNL     1     -10.057   7.809  74.301  1.00  0.00     0.353 OA 
BRANCH  28  29
HETATM   29  C   UNL     1     -10.704   6.536  74.134  1.00  0.00     0.071 C  
BRANCH  29  30
HETATM   30  C   UNL     1      -9.814   5.316  73.837  1.00  0.00    -0.168 C  
BRANCH  30  31
HETATM   31  N   UNL     1     -10.403   4.483  72.751  1.00  0.00    -0.181 NA 
HETATM   32  C   UNL     1      -9.558   4.355  71.549  1.00  0.00    -0.162 C  
HETATM   33  C   UNL     1      -8.238   3.656  71.856  1.00  0.00    -0.072 C  
HETATM   34  C   UNL     1      -8.518   2.240  72.348  1.00  0.00    -0.064 C  
HETATM   35  C   UNL     1      -9.581   2.201  73.451  1.00  0.00    -0.112 C  
HETATM   36  C   UNL     1     -10.775   3.133  73.200  1.00  0.00    -0.161 C  
ENDBRANCH  30  31
ENDBRANCH  29  30
ENDBRANCH  28  29
ENDBRANCH  23  28
ENDBRANCH  20  22
ENDBRANCH  10  20
ENDBRANCH   6   9
TORSDOF 7
ENDMDL
MODEL      209
REMARK 921   NORMALIZED FREE ENERGY PREDICTED BY IDOCK:   -2.83 KCAL/MOL
REMARK 922        TOTAL FREE ENERGY PREDICTED BY IDOCK:   -6.06 KCAL/MOL
REMARK 923 INTER-LIGAND FREE ENERGY PREDICTED BY IDOCK:   -7.39 KCAL/MOL
REMARK 924 INTRA-LIGAND FREE ENERGY PREDICTED BY IDOCK:    1.32 KCAL/MOL
REMARK 927      BINDING AFFINITY PREDICTED BY RF-SCORE:    0.00 PKD
ROOT
HETATM    1  O   UNL     1      -9.085   3.309  66.358  1.00  0.00    -0.144 OA 
HETATM    2  H   UNL     1      -9.099   3.171  65.418  1.00  0.00     0.000 HD 
HETATM    3  C   UNL     1      -9.371   4.521  66.911  1.00  0.00    -0.145 A  
HETATM    4  C   UNL     1      -9.351   4.723  68.284  1.00  0.00    -0.177 A  
HETATM    5  C   UNL     1      -9.710   5.974  68.813  1.00  0.00    -0.156 A  
HETATM    6  C   UNL     1     -10.076   7.042  67.977  1.00  0.00    -0.199 A  
HETATM    7  C   UNL     1     -10.022   6.817  66.587  1.00  0.00    -0.207 A  
HETATM    8  C   UNL     1      -9.689   5.561  66.058  1.00  0.00    -0.107 A  
ENDROOT
BRANCH   6   9
HETATM    9  C   UNL     1     -10.574   8.343  68.522  1.00  0.00    -0.106 A  
HETATM   10  C   UNL     1     -10.582   9.656  68.027  1.00  0.00    -0.292 A  
HETATM   11  C   UNL     1     -12.262  12.637  69.834  1.00  0.00    -0.238 A  
HETATM   12  C   UNL     1     -11.264  10.580  68.932  1.00  0.00    -0.323 A  
HETATM   13  O   UNL     1     -13.223  12.679  71.980  1.00  0.00    -0.461 OA 
HETATM   14  C   UNL     1     -11.647   9.950  70.113  1.00  0.00    -0.218 A  
HETATM   15  H   UNL     1     -13.417  13.603  71.870  1.00  0.00     0.000 HD 
HETATM   16  C   UNL     1     -11.616  11.955  68.798  1.00  0.00    -0.366 A  
HETATM   17  S   UNL     1     -11.217   8.304  70.119  1.00  0.00    -0.058 SA 
HETATM   18  C   UNL     1     -12.315  10.622  71.156  1.00  0.00    -0.505 A  
HETATM   19  C   UNL     1     -12.598  11.972  70.996  1.00  0.00    -0.273 A  
BRANCH  10  20
HETATM   20  C   UNL     1     -10.101  10.005  66.688  1.00  0.00    -0.227 C  
HETATM   21  O   UNL     1      -9.268   9.293  66.127  1.00  0.00    -0.166 OA 
BRANCH  20  22
HETATM   22  C   UNL     1     -10.578  11.211  65.943  1.00  0.00    -0.294 A  
HETATM   23  C   UNL     1     -11.176  13.672  64.658  1.00  0.00    -0.373 A  
HETATM   24  C   UNL     1     -12.198  12.897  65.216  1.00  0.00    -0.524 A  
HETATM   25  C   UNL     1      -9.573  11.983  65.356  1.00  0.00    -0.148 A  
HETATM   26  C   UNL     1     -11.903  11.670  65.859  1.00  0.00     0.199 A  
HETATM   27  C   UNL     1      -9.865  13.206  64.749  1.00  0.00    -0.030 A  
BRANCH  23  28
HETATM   28  O   UNL     1     -11.525  14.865  64.038  1.00  0.00    -0.057 OA 
BRANCH  28  29
HETATM   29  C   UNL     1     -11.424  15.979  64.941  1.00  0.00    -0.125 C  
BRANCH  29  30
HETATM   30  C   UNL     1     -10.065  16.227  65.621  1.00  0.00    -0.312 C  
BRANCH  30  31
HETATM   31  N   UNL     1     -10.246  16.536  67.067  1.00  0.00    -0.283 NA 
HETATM   32  C   UNL     1     -10.872  15.456  67.851  1.00  0.00    -0.300 C  
HETATM   33  C   UNL     1     -10.015  14.194  67.863  1.00  0.00    -0.231 C  
HETATM   34  C   UNL     1      -8.676  14.498  68.526  1.00  0.00    -0.177 C  
HETATM   35  C   UNL     1      -8.017  15.763  67.964  1.00  0.00    -0.141 C  
HETATM   36  C   UNL     1      -8.993  16.924  67.732  1.00  0.00    -0.225 C  
ENDBRANCH  30  31
ENDBRANCH  29  30
ENDBRANCH  28  29
ENDBRANCH  23  28
ENDBRANCH  20  22
ENDBRANCH  10  20
ENDBRANCH   6   9
TORSDOF 7
ENDMDL
MODEL      210
REMARK 921   NORMALIZED FREE ENERGY PREDICTED BY IDOCK:   -2.83 KCAL/MOL
REMARK 922        TOTAL FREE ENERGY PREDICTED BY IDOCK:   -6.06 KCAL/MOL
REMARK 923 INTER-LIGAND FREE ENERGY PREDICTED BY IDOCK:   -5.51 KCAL/MOL
REMARK 924 INTRA-LIGAND FREE ENERGY PREDICTED BY IDOCK:   -0.55 KCAL/MOL
REMARK 927      BINDING AFFINITY PREDICTED BY RF-SCORE:    0.00 PKD
ROOT
HETATM    1  O   UNL     1     -12.911  14.019  69.111  1.00  0.00    -0.209 OA 
HETATM    2  H   UNL     1     -13.431  13.763  69.863  1.00  0.00     0.000 HD 
HETATM    3  C   UNL     1     -11.883  13.252  68.652  1.00  0.00    -0.345 A  
HETATM    4  C   UNL     1     -11.122  13.627  67.553  1.00  0.00    -0.296 A  
HETATM    5  C   UNL     1     -10.110  12.776  67.079  1.00  0.00    -0.240 A  
HETATM    6  C   UNL     1      -9.834  11.549  67.707  1.00  0.00    -0.186 A  
HETATM    7  C   UNL     1     -10.584  11.234  68.857  1.00  0.00    -0.239 A  
HETATM    8  C   UNL     1     -11.613  12.071  69.316  1.00  0.00    -0.380 A  
ENDROOT
BRANCH   6   9
HETATM    9  C   UNL     1      -8.843  10.578  67.150  1.00  0.00    -0.136 A  
HETATM   10  C   UNL     1      -7.533  10.224  67.510  1.00  0.00    -0.090 A  
HETATM   11  C   UNL     1      -5.508   7.406  65.798  1.00  0.00    -0.028 A  
HETATM   12  C   UNL     1      -7.006   9.145  66.675  1.00  0.00    -0.081 A  
HETATM   13  O   UNL     1      -6.086   6.154  63.893  1.00  0.00    -0.024 OA 
HETATM   14  C   UNL     1      -7.896   8.804  65.659  1.00  0.00    -0.097 A  
HETATM   15  H   UNL     1      -5.258   5.692  63.950  1.00  0.00     0.000 HD 
HETATM   16  C   UNL     1      -5.798   8.393  66.744  1.00  0.00    -0.049 A  
HETATM   17  S   UNL     1      -9.317   9.737  65.725  1.00  0.00    -0.242 SA 
HETATM   18  C   UNL     1      -7.623   7.798  64.711  1.00  0.00    -0.108 A  
HETATM   19  C   UNL     1      -6.413   7.123  64.795  1.00  0.00    -0.037 A  
BRANCH  10  20
HETATM   20  C   UNL     1      -6.854  10.773  68.686  1.00  0.00    -0.060 C  
HETATM   21  O   UNL     1      -6.539  10.032  69.618  1.00  0.00    -0.048 OA 
BRANCH  20  22
HETATM   22  C   UNL     1      -6.510  12.223  68.822  1.00  0.00    -0.082 A  
HETATM   23  C   UNL     1      -5.698  14.942  68.741  1.00  0.00    -0.086 A  
HETATM   24  C   UNL     1      -5.649  14.224  69.940  1.00  0.00    -0.104 A  
HETATM   25  C   UNL     1      -6.579  12.963  67.639  1.00  0.00    -0.155 A  
HETATM   26  C   UNL     1      -6.052  12.867  69.983  1.00  0.00    -0.110 A  
HETATM   27  C   UNL     1      -6.154  14.292  67.594  1.00  0.00    -0.071 A  
BRANCH  23  28
HETATM   28  O   UNL     1      -5.293  16.272  68.758  1.00  0.00    -0.103 OA 
BRANCH  28  29
HETATM   29  C   UNL     1      -6.227  17.118  68.066  1.00  0.00    -0.134 C  
BRANCH  29  30
HETATM   30  C   UNL     1      -6.000  17.351  66.561  1.00  0.00    -0.210 C  
BRANCH  30  31
HETATM   31  N   UNL     1      -5.379  18.684  66.321  1.00  0.00    -0.141 NA 
HETATM   32  C   UNL     1      -6.110  19.538  65.368  1.00  0.00    -0.223 C  
HETATM   33  C   UNL     1      -7.508  19.884  65.873  1.00  0.00    -0.342 C  
HETATM   34  C   UNL     1      -7.395  20.673  67.173  1.00  0.00    -0.389 C  
HETATM   35  C   UNL     1      -6.451  20.010  68.182  1.00  0.00    -0.301 C  
HETATM   36  C   UNL     1      -5.166  19.449  67.558  1.00  0.00    -0.164 C  
ENDBRANCH  30  31
ENDBRANCH  29  30
ENDBRANCH  28  29
ENDBRANCH  23  28
ENDBRANCH  20  22
ENDBRANCH  10  20
ENDBRANCH   6   9
TORSDOF 7
ENDMDL
MODEL      211
REMARK 921   NORMALIZED FREE ENERGY PREDICTED BY IDOCK:   -2.78 KCAL/MOL
REMARK 922        TOTAL FREE ENERGY PREDICTED BY IDOCK:   -5.99 KCAL/MOL
REMARK 923 INTER-LIGAND FREE ENERGY PREDICTED BY IDOCK:   -5.04 KCAL/MOL
REMARK 924 INTRA-LIGAND FREE ENERGY PREDICTED BY IDOCK:   -0.96 KCAL/MOL
REMARK 927      BINDING AFFINITY PREDICTED BY RF-SCORE:    0.00 PKD
ROOT
HETATM    1  O   UNL     1      -7.639  17.039  69.022  1.00  0.00    -0.239 OA 
HETATM    2  H   UNL     1      -7.005  17.413  69.622  1.00  0.00     0.000 HD 
HETATM    3  C   UNL     1      -7.534  15.758  68.570  1.00  0.00    -0.129 A  
HETATM    4  C   UNL     1      -8.462  15.211  67.694  1.00  0.00    -0.171 A  
HETATM    5  C   UNL     1      -8.346  13.867  67.302  1.00  0.00    -0.199 A  
HETATM    6  C   UNL     1      -7.294  13.059  67.765  1.00  0.00    -0.139 A  
HETATM    7  C   UNL     1      -6.338  13.668  68.601  1.00  0.00    -0.091 A  
HETATM    8  C   UNL     1      -6.466  15.003  69.015  1.00  0.00    -0.102 A  
ENDROOT
BRANCH   6   9
HETATM    9  C   UNL     1      -7.219  11.598  67.453  1.00  0.00    -0.128 A  
HETATM   10  C   UNL     1      -7.051  10.451  68.245  1.00  0.00    -0.078 A  
HETATM   11  C   UNL     1      -7.178   6.838  66.866  1.00  0.00    -0.081 A  
HETATM   12  C   UNL     1      -7.119   9.223  67.454  1.00  0.00    -0.079 A  
HETATM   13  O   UNL     1      -7.308   6.143  64.624  1.00  0.00    -0.064 OA 
HETATM   14  C   UNL     1      -7.229   9.497  66.092  1.00  0.00    -0.093 A  
HETATM   15  H   UNL     1      -7.279   5.236  64.907  1.00  0.00     0.000 HD 
HETATM   16  C   UNL     1      -7.124   7.849  67.831  1.00  0.00    -0.086 A  
HETATM   17  S   UNL     1      -7.268  11.170  65.786  1.00  0.00     0.306 SA 
HETATM   18  C   UNL     1      -7.304   8.487  65.113  1.00  0.00    -0.081 A  
HETATM   19  C   UNL     1      -7.261   7.163  65.527  1.00  0.00    -0.070 A  
BRANCH  10  20
HETATM   20  C   UNL     1      -6.979  10.496  69.707  1.00  0.00    -0.144 C  
HETATM   21  O   UNL     1      -6.149  11.217  70.262  1.00  0.00    -0.139 OA 
BRANCH  20  22
HETATM   22  C   UNL     1      -7.883   9.695  70.589  1.00  0.00    -0.084 A  
HETATM   23  C   UNL     1      -9.837   8.465  72.242  1.00  0.00    -0.313 A  
HETATM   24  C   UNL     1      -8.475   8.305  72.516  1.00  0.00    -0.251 A  
HETATM   25  C   UNL     1      -9.247   9.820  70.313  1.00  0.00    -0.225 A  
HETATM   26  C   UNL     1      -7.498   8.919  71.695  1.00  0.00    -0.054 A  
HETATM   27  C   UNL     1     -10.207   9.238  71.142  1.00  0.00    -0.387 A  
BRANCH  23  28
HETATM   28  O   UNL     1     -10.751   7.838  73.081  1.00  0.00    -0.378 OA 
BRANCH  28  29
HETATM   29  C   UNL     1     -11.737   7.105  72.334  1.00  0.00    -0.222 C  
BRANCH  29  30
HETATM   30  C   UNL     1     -11.402   5.655  71.939  1.00  0.00    -0.141 C  
BRANCH  30  31
HETATM   31  N   UNL     1     -10.043   5.277  72.419  1.00  0.00    -0.176 NA 
HETATM   32  C   UNL     1     -10.033   4.441  73.633  1.00  0.00    -0.134 C  
HETATM   33  C   UNL     1     -10.714   3.096  73.402  1.00  0.00    -0.299 C  
HETATM   34  C   UNL     1      -9.956   2.322  72.330  1.00  0.00    -0.226 C  
HETATM   35  C   UNL     1      -9.677   3.167  71.082  1.00  0.00    -0.198 C  
HETATM   36  C   UNL     1      -9.237   4.605  71.389  1.00  0.00    -0.142 C  
ENDBRANCH  30  31
ENDBRANCH  29  30
ENDBRANCH  28  29
ENDBRANCH  23  28
ENDBRANCH  20  22
ENDBRANCH  10  20
ENDBRANCH   6   9
TORSDOF 7
ENDMDL
MODEL      212
REMARK 921   NORMALIZED FREE ENERGY PREDICTED BY IDOCK:   -2.61 KCAL/MOL
REMARK 922        TOTAL FREE ENERGY PREDICTED BY IDOCK:   -5.76 KCAL/MOL
REMARK 923 INTER-LIGAND FREE ENERGY PREDICTED BY IDOCK:   -4.55 KCAL/MOL
REMARK 924 INTRA-LIGAND FREE ENERGY PREDICTED BY IDOCK:   -1.21 KCAL/MOL
REMARK 927      BINDING AFFINITY PREDICTED BY RF-SCORE:    0.00 PKD
ROOT
HETATM    1  O   UNL     1      -9.486   6.897  70.931  1.00  0.00    -0.158 OA 
HETATM    2  H   UNL     1     -10.399   6.672  71.065  1.00  0.00     0.000 HD 
HETATM    3  C   UNL     1      -9.107   8.123  70.474  1.00  0.00    -0.150 A  
HETATM    4  C   UNL     1      -7.772   8.451  70.278  1.00  0.00    -0.080 A  
HETATM    5  C   UNL     1      -7.424   9.747  69.863  1.00  0.00    -0.142 A  
HETATM    6  C   UNL     1      -8.405  10.725  69.622  1.00  0.00     0.182 A  
HETATM    7  C   UNL     1      -9.750  10.334  69.770  1.00  0.00    -0.183 A  
HETATM    8  C   UNL     1     -10.098   9.048  70.210  1.00  0.00    -0.232 A  
ENDROOT
BRANCH   6   9
HETATM    9  C   UNL     1      -8.051  12.140  69.294  1.00  0.00     0.572 A  
HETATM   10  C   UNL     1      -8.682  13.142  68.540  1.00  0.00    -0.049 A  
HETATM   11  C   UNL     1      -7.370  16.770  68.239  1.00  0.00    -0.183 A  
HETATM   12  C   UNL     1      -7.949  14.407  68.584  1.00  0.00    -0.145 A  
HETATM   13  O   UNL     1      -5.342  17.652  69.039  1.00  0.00    -0.165 OA 
HETATM   14  C   UNL     1      -6.749  14.279  69.279  1.00  0.00    -0.123 A  
HETATM   15  H   UNL     1      -5.567  18.496  68.667  1.00  0.00     0.000 HD 
HETATM   16  C   UNL     1      -8.261  15.704  68.083  1.00  0.00    -0.144 A  
HETATM   17  S   UNL     1      -6.527  12.699  69.870  1.00  0.00     0.135 SA 
HETATM   18  C   UNL     1      -5.852  15.350  69.459  1.00  0.00    -0.118 A  
HETATM   19  C   UNL     1      -6.181  16.584  68.915  1.00  0.00    -0.149 A  
BRANCH  10  20
HETATM   20  C   UNL     1      -9.998  12.964  67.922  1.00  0.00    -0.233 C  
HETATM   21  O   UNL     1     -11.019  13.206  68.566  1.00  0.00    -0.243 OA 
BRANCH  20  22
HETATM   22  C   UNL     1     -10.176  12.494  66.513  1.00  0.00    -0.255 A  
HETATM   23  C   UNL     1     -10.215  11.383  63.900  1.00  0.00    -0.363 A  
HETATM   24  C   UNL     1     -10.529  12.731  64.102  1.00  0.00    -0.437 A  
HETATM   25  C   UNL     1      -9.894  11.143  66.297  1.00  0.00    -0.253 A  
HETATM   26  C   UNL     1     -10.509  13.289  65.403  1.00  0.00    -0.306 A  
HETATM   27  C   UNL     1      -9.886  10.604  65.009  1.00  0.00    -0.353 A  
BRANCH  23  28
HETATM   28  O   UNL     1     -10.254  10.890  62.601  1.00  0.00    -0.084 OA 
BRANCH  28  29
HETATM   29  C   UNL     1      -9.213   9.926  62.371  1.00  0.00    -0.284 C  
BRANCH  29  30
HETATM   30  C   UNL     1      -7.895  10.098  63.149  1.00  0.00    -0.150 C  
BRANCH  30  31
HETATM   31  N   UNL     1      -7.153   8.808  63.224  1.00  0.00    -0.090 NA 
HETATM   32  C   UNL     1      -5.687   8.946  63.286  1.00  0.00    -0.073 C  
HETATM   33  C   UNL     1      -5.240   9.686  64.543  1.00  0.00    -0.060 C  
HETATM   34  C   UNL     1      -5.658   8.891  65.774  1.00  0.00    -0.049 C  
HETATM   35  C   UNL     1      -7.128   8.461  65.724  1.00  0.00    -0.071 C  
HETATM   36  C   UNL     1      -7.585   7.962  64.346  1.00  0.00    -0.116 C  
ENDBRANCH  30  31
ENDBRANCH  29  30
ENDBRANCH  28  29
ENDBRANCH  23  28
ENDBRANCH  20  22
ENDBRANCH  10  20
ENDBRANCH   6   9
TORSDOF 7
ENDMDL
MODEL      213
REMARK 921   NORMALIZED FREE ENERGY PREDICTED BY IDOCK:   -2.61 KCAL/MOL
REMARK 922        TOTAL FREE ENERGY PREDICTED BY IDOCK:   -5.75 KCAL/MOL
REMARK 923 INTER-LIGAND FREE ENERGY PREDICTED BY IDOCK:   -5.95 KCAL/MOL
REMARK 924 INTRA-LIGAND FREE ENERGY PREDICTED BY IDOCK:    0.19 KCAL/MOL
REMARK 927      BINDING AFFINITY PREDICTED BY RF-SCORE:    0.00 PKD
ROOT
HETATM    1  O   UNL     1      -5.286  20.877  64.640  1.00  0.00    -0.185 OA 
HETATM    2  H   UNL     1      -4.410  20.565  64.446  1.00  0.00     0.000 HD 
HETATM    3  C   UNL     1      -6.194  20.106  65.301  1.00  0.00    -0.248 A  
HETATM    4  C   UNL     1      -7.474  20.563  65.586  1.00  0.00    -0.009 A  
HETATM    5  C   UNL     1      -8.357  19.757  66.322  1.00  0.00    -0.383 A  
HETATM    6  C   UNL     1      -7.980  18.478  66.768  1.00  0.00    -0.265 A  
HETATM    7  C   UNL     1      -6.696  18.026  66.405  1.00  0.00    -0.261 A  
HETATM    8  C   UNL     1      -5.803  18.840  65.692  1.00  0.00    -0.223 A  
ENDROOT
BRANCH   6   9
HETATM    9  C   UNL     1      -8.861  17.653  67.650  1.00  0.00    -0.236 A  
HETATM   10  C   UNL     1      -9.218  16.296  67.659  1.00  0.00    -0.206 A  
HETATM   11  C   UNL     1     -11.401  14.652  70.399  1.00  0.00    -0.232 A  
HETATM   12  C   UNL     1     -10.072  15.959  68.798  1.00  0.00    -0.221 A  
HETATM   13  O   UNL     1     -12.538  15.699  72.171  1.00  0.00    -0.363 OA 
HETATM   14  C   UNL     1     -10.406  17.090  69.539  1.00  0.00    -0.156 A  
HETATM   15  H   UNL     1     -12.879  14.855  72.445  1.00  0.00     0.000 HD 
HETATM   16  C   UNL     1     -10.570  14.713  69.276  1.00  0.00    -0.236 A  
HETATM   17  S   UNL     1      -9.702  18.498  68.894  1.00  0.00    -0.256 SA 
HETATM   18  C   UNL     1     -11.226  17.039  70.683  1.00  0.00     0.696 A  
HETATM   19  C   UNL     1     -11.723  15.807  71.084  1.00  0.00    -0.428 A  
BRANCH  10  20
HETATM   20  C   UNL     1      -8.662  15.320  66.719  1.00  0.00    -0.270 C  
HETATM   21  O   UNL     1      -7.872  15.685  65.847  1.00  0.00     0.719 OA 
BRANCH  20  22
HETATM   22  C   UNL     1      -9.006  13.865  66.761  1.00  0.00    -0.206 A  
HETATM   23  C   UNL     1      -9.299  11.041  66.755  1.00  0.00    -0.181 A  
HETATM   24  C   UNL     1     -10.316  11.860  66.255  1.00  0.00    -0.259 A  
HETATM   25  C   UNL     1      -8.012  13.034  67.283  1.00  0.00    -0.143 A  
HETATM   26  C   UNL     1     -10.173  13.268  66.254  1.00  0.00    -0.296 A  
HETATM   27  C   UNL     1      -8.145  11.645  67.255  1.00  0.00    -0.160 A  
BRANCH  23  28
HETATM   28  O   UNL     1      -9.496   9.665  66.733  1.00  0.00    -0.149 OA 
BRANCH  28  29
HETATM   29  C   UNL     1     -10.475   9.256  67.702  1.00  0.00    -0.264 C  
BRANCH  29  30
HETATM   30  C   UNL     1      -9.981   8.460  68.924  1.00  0.00    -0.187 C  
BRANCH  30  31
HETATM   31  N   UNL     1     -10.654   8.929  70.168  1.00  0.00    -0.216 NA 
HETATM   32  C   UNL     1     -11.853   8.157  70.545  1.00  0.00    -0.005 C  
HETATM   33  C   UNL     1     -11.517   6.701  70.851  1.00  0.00    -0.401 C  
HETATM   34  C   UNL     1     -10.565   6.641  72.040  1.00  0.00    -0.236 C  
HETATM   35  C   UNL     1      -9.375   7.596  71.889  1.00  0.00    -0.181 C  
HETATM   36  C   UNL     1      -9.751   8.974  71.327  1.00  0.00    -0.301 C  
ENDBRANCH  30  31
ENDBRANCH  29  30
ENDBRANCH  28  29
ENDBRANCH  23  28
ENDBRANCH  20  22
ENDBRANCH  10  20
ENDBRANCH   6   9
TORSDOF 7
ENDMDL
MODEL      214
REMARK 921   NORMALIZED FREE ENERGY PREDICTED BY IDOCK:   -2.40 KCAL/MOL
REMARK 922        TOTAL FREE ENERGY PREDICTED BY IDOCK:   -5.46 KCAL/MOL
REMARK 923 INTER-LIGAND FREE ENERGY PREDICTED BY IDOCK:   -4.13 KCAL/MOL
REMARK 924 INTRA-LIGAND FREE ENERGY PREDICTED BY IDOCK:   -1.33 KCAL/MOL
REMARK 927      BINDING AFFINITY PREDICTED BY RF-SCORE:    0.00 PKD
ROOT
HETATM    1  O   UNL     1      -5.154  13.681  68.549  1.00  0.00    -0.078 OA 
HETATM    2  H   UNL     1      -5.077  14.390  67.922  1.00  0.00     0.000 HD 
HETATM    3  C   UNL     1      -5.853  12.546  68.268  1.00  0.00    -0.062 A  
HETATM    4  C   UNL     1      -5.966  11.508  69.183  1.00  0.00    -0.056 A  
HETATM    5  C   UNL     1      -6.646  10.332  68.828  1.00  0.00    -0.052 A  
HETATM    6  C   UNL     1      -7.238  10.185  67.561  1.00  0.00    -0.088 A  
HETATM    7  C   UNL     1      -7.157  11.284  66.684  1.00  0.00    -0.127 A  
HETATM    8  C   UNL     1      -6.455  12.449  67.028  1.00  0.00     0.004 A  
ENDROOT
BRANCH   6   9
HETATM    9  C   UNL     1      -7.864   8.900  67.123  1.00  0.00    -0.096 A  
HETATM   10  C   UNL     1      -9.000   8.189  67.540  1.00  0.00    -0.143 A  
HETATM   11  C   UNL     1     -10.282   4.964  65.827  1.00  0.00    -0.207 A  
HETATM   12  C   UNL     1      -9.231   6.995  66.727  1.00  0.00    -0.181 A  
HETATM   13  O   UNL     1      -9.252   3.720  64.118  1.00  0.00    -0.127 OA 
HETATM   14  C   UNL     1      -8.207   6.799  65.804  1.00  0.00    -0.135 A  
HETATM   15  H   UNL     1      -9.967   3.096  64.147  1.00  0.00     0.000 HD 
HETATM   16  C   UNL     1     -10.302   6.056  66.701  1.00  0.00    -0.264 A  
HETATM   17  S   UNL     1      -7.025   8.019  65.904  1.00  0.00    -0.057 SA 
HETATM   18  C   UNL     1      -8.185   5.714  64.906  1.00  0.00    -0.134 A  
HETATM   19  C   UNL     1      -9.230   4.801  64.949  1.00  0.00    -0.116 A  
BRANCH  10  20
HETATM   20  C   UNL     1      -9.920   8.688  68.565  1.00  0.00    -0.183 C  
HETATM   21  O   UNL     1     -10.205   7.984  69.534  1.00  0.00    -0.199 OA 
BRANCH  20  22
HETATM   22  C   UNL     1     -10.548  10.045  68.500  1.00  0.00    -0.245 A  
HETATM   23  C   UNL     1     -11.605  12.671  68.725  1.00  0.00    -0.313 A  
HETATM   24  C   UNL     1     -12.332  11.667  68.076  1.00  0.00     0.650 A  
HETATM   25  C   UNL     1      -9.823  11.065  69.120  1.00  0.00    -0.117 A  
HETATM   26  C   UNL     1     -11.809  10.356  67.964  1.00  0.00     0.501 A  
HETATM   27  C   UNL     1     -10.355  12.349  69.254  1.00  0.00     0.263 A  
BRANCH  23  28
HETATM   28  O   UNL     1     -12.167  13.939  68.803  1.00  0.00    -0.348 OA 
BRANCH  28  29
HETATM   29  C   UNL     1     -11.901  14.709  67.619  1.00  0.00    -0.337 C  
BRANCH  29  30
HETATM   30  C   UNL     1     -10.433  14.854  67.177  1.00  0.00    -0.271 C  
BRANCH  30  31
HETATM   31  N   UNL     1     -10.331  14.900  65.690  1.00  0.00    -0.323 NA 
HETATM   32  C   UNL     1      -9.541  13.806  65.096  1.00  0.00     0.232 C  
HETATM   33  C   UNL     1     -10.167  12.442  65.367  1.00  0.00    -0.302 C  
HETATM   34  C   UNL     1     -11.549  12.383  64.726  1.00  0.00    -0.395 C  
HETATM   35  C   UNL     1     -12.408  13.606  65.068  1.00  0.00    -0.462 C  
HETATM   36  C   UNL     1     -11.642  14.936  65.026  1.00  0.00    -0.357 C  
ENDBRANCH  30  31
ENDBRANCH  29  30
ENDBRANCH  28  29
ENDBRANCH  23  28
ENDBRANCH  20  22
ENDBRANCH  10  20
ENDBRANCH   6   9
TORSDOF 7
ENDMDL
MODEL      215
REMARK 921   NORMALIZED FREE ENERGY PREDICTED BY IDOCK:   -2.38 KCAL/MOL
REMARK 922        TOTAL FREE ENERGY PREDICTED BY IDOCK:   -5.44 KCAL/MOL
REMARK 923 INTER-LIGAND FREE ENERGY PREDICTED BY IDOCK:   -4.42 KCAL/MOL
REMARK 924 INTRA-LIGAND FREE ENERGY PREDICTED BY IDOCK:   -1.01 KCAL/MOL
REMARK 927      BINDING AFFINITY PREDICTED BY RF-SCORE:    0.00 PKD
ROOT
HETATM    1  O   UNL     1     -11.382   6.183  73.627  1.00  0.00    -0.367 OA 
HETATM    2  H   UNL     1     -12.088   6.662  74.045  1.00  0.00     0.000 HD 
HETATM    3  C   UNL     1     -10.872   6.560  72.422  1.00  0.00    -0.233 A  
HETATM    4  C   UNL     1      -9.840   5.859  71.811  1.00  0.00    -0.192 A  
HETATM    5  C   UNL     1      -9.305   6.319  70.596  1.00  0.00    -0.171 A  
HETATM    6  C   UNL     1      -9.806   7.472  69.967  1.00  0.00    -0.180 A  
HETATM    7  C   UNL     1     -10.895   8.118  70.585  1.00  0.00    -0.246 A  
HETATM    8  C   UNL     1     -11.413   7.675  71.812  1.00  0.00    -0.302 A  
ENDROOT
BRANCH   6   9
HETATM    9  C   UNL     1      -9.175   8.042  68.738  1.00  0.00    -0.143 A  
HETATM   10  C   UNL     1      -9.648   8.867  67.705  1.00  0.00    -0.176 A  
HETATM   11  C   UNL     1      -7.431  10.239  64.846  1.00  0.00    -0.114 A  
HETATM   12  C   UNL     1      -8.596   9.209  66.749  1.00  0.00    -0.133 A  
HETATM   13  O   UNL     1      -5.191   9.710  64.365  1.00  0.00    -0.056 OA 
HETATM   14  C   UNL     1      -7.405   8.548  67.040  1.00  0.00    -0.084 A  
HETATM   15  H   UNL     1      -5.221  10.287  63.610  1.00  0.00     0.000 HD 
HETATM   16  C   UNL     1      -8.577  10.096  65.634  1.00  0.00    -0.166 A  
HETATM   17  S   UNL     1      -7.550   7.568  68.423  1.00  0.00    -0.116 SA 
HETATM   18  C   UNL     1      -6.239   8.699  66.266  1.00  0.00    -0.060 A  
HETATM   19  C   UNL     1      -6.283   9.541  65.163  1.00  0.00    -0.073 A  
BRANCH  10  20
HETATM   20  C   UNL     1     -10.999   9.434  67.695  1.00  0.00    -0.036 C  
HETATM   21  O   UNL     1     -11.932   8.797  67.206  1.00  0.00     2.938 OA 
BRANCH  20  22
HETATM   22  C   UNL     1     -11.318  10.781  68.263  1.00  0.00    -0.376 A  
HETATM   23  C   UNL     1     -11.740  13.479  69.043  1.00  0.00    -0.327 A  
HETATM   24  C   UNL     1     -11.479  12.496  70.003  1.00  0.00    -0.095 A  
HETATM   25  C   UNL     1     -11.609  11.770  67.319  1.00  0.00    -0.344 A  
HETATM   26  C   UNL     1     -11.265  11.150  69.617  1.00  0.00    -0.333 A  
HETATM   27  C   UNL     1     -11.789  13.100  67.701  1.00  0.00    -0.405 A  
BRANCH  23  28
HETATM   28  O   UNL     1     -11.944  14.782  69.480  1.00  0.00    -0.295 OA 
BRANCH  28  29
HETATM   29  C   UNL     1     -11.285  15.734  68.627  1.00  0.00    -0.351 C  
BRANCH  29  30
HETATM   30  C   UNL     1     -10.584  16.929  69.299  1.00  0.00    -0.325 C  
BRANCH  30  31
HETATM   31  N   UNL     1      -9.484  17.448  68.438  1.00  0.00    -0.283 NA 
HETATM   32  C   UNL     1      -9.865  17.689  67.035  1.00  0.00    -0.307 C  
HETATM   33  C   UNL     1     -10.943  18.762  66.916  1.00  0.00    -0.147 C  
HETATM   34  C   UNL     1     -10.406  20.081  67.458  1.00  0.00    -0.519 C  
HETATM   35  C   UNL     1      -9.749  19.927  68.834  1.00  0.00    -0.333 C  
HETATM   36  C   UNL     1      -8.871  18.675  68.968  1.00  0.00    -0.073 C  
ENDBRANCH  30  31
ENDBRANCH  29  30
ENDBRANCH  28  29
ENDBRANCH  23  28
ENDBRANCH  20  22
ENDBRANCH  10  20
ENDBRANCH   6   9
TORSDOF 7
ENDMDL
MODEL      216
REMARK 921   NORMALIZED FREE ENERGY PREDICTED BY IDOCK:   -2.05 KCAL/MOL
REMARK 922        TOTAL FREE ENERGY PREDICTED BY IDOCK:   -4.97 KCAL/MOL
REMARK 923 INTER-LIGAND FREE ENERGY PREDICTED BY IDOCK:   -3.31 KCAL/MOL
REMARK 924 INTRA-LIGAND FREE ENERGY PREDICTED BY IDOCK:   -1.66 KCAL/MOL
REMARK 927      BINDING AFFINITY PREDICTED BY RF-SCORE:    0.00 PKD
ROOT
HETATM    1  O   UNL     1     -11.390   7.270  67.148  1.00  0.00    -0.519 OA 
HETATM    2  H   UNL     1     -11.476   6.648  67.861  1.00  0.00     0.000 HD 
HETATM    3  C   UNL     1     -10.920   8.533  67.348  1.00  0.00     0.181 A  
HETATM    4  C   UNL     1     -10.794   9.442  66.306  1.00  0.00     0.420 A  
HETATM    5  C   UNL     1     -10.248  10.713  66.549  1.00  0.00    -0.288 A  
HETATM    6  C   UNL     1      -9.838  11.099  67.837  1.00  0.00    -0.187 A  
HETATM    7  C   UNL     1     -10.041  10.172  68.878  1.00  0.00    -0.211 A  
HETATM    8  C   UNL     1     -10.562   8.892  68.633  1.00  0.00    -0.182 A  
ENDROOT
BRANCH   6   9
HETATM    9  C   UNL     1      -9.149  12.400  68.094  1.00  0.00    -0.200 A  
HETATM   10  C   UNL     1      -7.800  12.788  68.118  1.00  0.00    -0.146 A  
HETATM   11  C   UNL     1      -6.609  16.436  68.620  1.00  0.00    -0.142 A  
HETATM   12  C   UNL     1      -7.645  14.223  68.353  1.00  0.00    -0.124 A  
HETATM   13  O   UNL     1      -7.903  18.325  69.154  1.00  0.00    -0.163 OA 
HETATM   14  C   UNL     1      -8.871  14.837  68.599  1.00  0.00    -0.180 A  
HETATM   15  H   UNL     1      -7.116  18.856  69.166  1.00  0.00     0.000 HD 
HETATM   16  C   UNL     1      -6.499  15.070  68.339  1.00  0.00    -0.104 A  
HETATM   17  S   UNL     1     -10.158  13.726  68.530  1.00  0.00    -0.198 SA 
HETATM   18  C   UNL     1      -8.997  16.215  68.864  1.00  0.00    -0.247 A  
HETATM   19  C   UNL     1      -7.846  16.990  68.882  1.00  0.00    -0.224 A  
BRANCH  10  20
HETATM   20  C   UNL     1      -6.703  11.877  67.786  1.00  0.00    -0.087 C  
HETATM   21  O   UNL     1      -5.635  11.948  68.396  1.00  0.00    -0.049 OA 
BRANCH  20  22
HETATM   22  C   UNL     1      -6.810  10.833  66.720  1.00  0.00    -0.115 A  
HETATM   23  C   UNL     1      -6.750   8.663  64.889  1.00  0.00    -0.068 A  
HETATM   24  C   UNL     1      -6.901   9.975  64.428  1.00  0.00    -0.127 A  
HETATM   25  C   UNL     1      -6.688   9.514  67.164  1.00  0.00    -0.072 A  
HETATM   26  C   UNL     1      -6.929  11.059  65.338  1.00  0.00     0.292 A  
HETATM   27  C   UNL     1      -6.631   8.451  66.262  1.00  0.00    -0.058 A  
BRANCH  23  28
HETATM   28  O   UNL     1      -6.731   7.638  63.950  1.00  0.00    -0.052 OA 
BRANCH  28  29
HETATM   29  C   UNL     1      -7.777   6.682  64.191  1.00  0.00    -0.109 C  
BRANCH  29  30
HETATM   30  C   UNL     1      -7.866   5.467  63.249  1.00  0.00    -0.095 C  
BRANCH  30  31
HETATM   31  N   UNL     1      -7.970   4.201  64.027  1.00  0.00    -0.087 NA 
HETATM   32  C   UNL     1      -7.257   3.056  63.433  1.00  0.00    -0.049 C  
HETATM   33  C   UNL     1      -5.754   3.302  63.356  1.00  0.00    -0.009 C  
HETATM   34  C   UNL     1      -5.197   3.483  64.763  1.00  0.00    -0.009 C  
HETATM   35  C   UNL     1      -6.009   4.485  65.592  1.00  0.00    -0.023 C  
HETATM   36  C   UNL     1      -7.528   4.347  65.422  1.00  0.00    -0.080 C  
ENDBRANCH  30  31
ENDBRANCH  29  30
ENDBRANCH  28  29
ENDBRANCH  23  28
ENDBRANCH  20  22
ENDBRANCH  10  20
ENDBRANCH   6   9
TORSDOF 7
ENDMDL
MODEL      217
REMARK 921   NORMALIZED FREE ENERGY PREDICTED BY IDOCK:   -1.96 KCAL/MOL
REMARK 922        TOTAL FREE ENERGY PREDICTED BY IDOCK:   -4.84 KCAL/MOL
REMARK 923 INTER-LIGAND FREE ENERGY PREDICTED BY IDOCK:   -5.50 KCAL/MOL
REMARK 924 INTRA-LIGAND FREE ENERGY PREDICTED BY IDOCK:    0.66 KCAL/MOL
REMARK 927      BINDING AFFINITY PREDICTED BY RF-SCORE:    0.00 PKD
ROOT
HETATM    1  O   UNL     1      -7.644   7.873  72.370  1.00  0.00    -0.086 OA 
HETATM    2  H   UNL     1      -8.335   7.498  72.902  1.00  0.00     0.000 HD 
HETATM    3  C   UNL     1      -7.902   8.789  71.395  1.00  0.00    -0.128 A  
HETATM    4  C   UNL     1      -6.891   9.338  70.618  1.00  0.00    -0.094 A  
HETATM    5  C   UNL     1      -7.198  10.323  69.665  1.00  0.00    -0.140 A  
HETATM    6  C   UNL     1      -8.519  10.760  69.464  1.00  0.00     0.091 A  
HETATM    7  C   UNL     1      -9.524  10.133  70.228  1.00  0.00     0.105 A  
HETATM    8  C   UNL     1      -9.216   9.168  71.198  1.00  0.00    -0.301 A  
ENDROOT
BRANCH   6   9
HETATM    9  C   UNL     1      -8.850  11.888  68.541  1.00  0.00    -0.108 A  
HETATM   10  C   UNL     1      -9.737  12.020  67.460  1.00  0.00    -0.188 A  
HETATM   11  C   UNL     1     -10.345  15.335  65.559  1.00  0.00    -0.408 A  
HETATM   12  C   UNL     1      -9.743  13.378  66.918  1.00  0.00    -0.253 A  
HETATM   13  O   UNL     1      -9.203  17.377  65.798  1.00  0.00    -0.517 OA 
HETATM   14  C   UNL     1      -8.790  14.182  67.540  1.00  0.00    -0.201 A  
HETATM   15  H   UNL     1      -9.739  17.753  65.109  1.00  0.00     0.000 HD 
HETATM   16  C   UNL     1     -10.551  14.001  65.923  1.00  0.00    -0.302 A  
HETATM   17  S   UNL     1      -7.937  13.333  68.743  1.00  0.00     0.116 SA 
HETATM   18  C   UNL     1      -8.587  15.532  67.195  1.00  0.00    -0.240 A  
HETATM   19  C   UNL     1      -9.369  16.081  66.189  1.00  0.00    -0.342 A  
BRANCH  10  20
HETATM   20  C   UNL     1     -10.653  10.955  67.046  1.00  0.00    -0.257 C  
HETATM   21  O   UNL     1     -11.855  11.191  66.917  1.00  0.00    -0.339 OA 
BRANCH  20  22
HETATM   22  C   UNL     1     -10.198   9.559  66.762  1.00  0.00    -0.313 A  
HETATM   23  C   UNL     1      -9.396   6.841  66.586  1.00  0.00    -0.165 A  
HETATM   24  C   UNL     1      -8.730   7.825  65.849  1.00  0.00    -0.175 A  
HETATM   25  C   UNL     1     -10.871   8.559  67.468  1.00  0.00    -0.086 A  
HETATM   26  C   UNL     1      -9.126   9.182  65.936  1.00  0.00    -0.256 A  
HETATM   27  C   UNL     1     -10.458   7.227  67.403  1.00  0.00    -0.359 A  
BRANCH  23  28
HETATM   28  O   UNL     1      -8.965   5.525  66.460  1.00  0.00    -0.117 OA 
BRANCH  28  29
HETATM   29  C   UNL     1      -7.543   5.452  66.262  1.00  0.00    -0.087 C  
BRANCH  29  30
HETATM   30  C   UNL     1      -6.964   6.093  64.987  1.00  0.00    -0.055 C  
BRANCH  30  31
HETATM   31  N   UNL     1      -6.788   5.073  63.916  1.00  0.00    -0.046 NA 
HETATM   32  C   UNL     1      -7.507   3.807  64.151  1.00  0.00    -0.067 C  
HETATM   33  C   UNL     1      -9.018   4.013  64.200  1.00  0.00    -0.135 C  
HETATM   34  C   UNL     1      -9.499   4.548  62.856  1.00  0.00    -0.050 C  
HETATM   35  C   UNL     1      -8.666   5.737  62.364  1.00  0.00     0.049 C  
HETATM   36  C   UNL     1      -7.155   5.572  62.582  1.00  0.00    -0.044 C  
ENDBRANCH  30  31
ENDBRANCH  29  30
ENDBRANCH  28  29
ENDBRANCH  23  28
ENDBRANCH  20  22
ENDBRANCH  10  20
ENDBRANCH   6   9
TORSDOF 7
ENDMDL
MODEL      218
REMARK 921   NORMALIZED FREE ENERGY PREDICTED BY IDOCK:   -1.82 KCAL/MOL
REMARK 922        TOTAL FREE ENERGY PREDICTED BY IDOCK:   -4.65 KCAL/MOL
REMARK 923 INTER-LIGAND FREE ENERGY PREDICTED BY IDOCK:   -3.48 KCAL/MOL
REMARK 924 INTRA-LIGAND FREE ENERGY PREDICTED BY IDOCK:   -1.17 KCAL/MOL
REMARK 927      BINDING AFFINITY PREDICTED BY RF-SCORE:    0.00 PKD
ROOT
HETATM    1  O   UNL     1      -5.224  15.338  71.787  1.00  0.00    -0.116 OA 
HETATM    2  H   UNL     1      -5.385  16.213  72.121  1.00  0.00     0.000 HD 
HETATM    3  C   UNL     1      -6.041  14.760  70.864  1.00  0.00    -0.019 A  
HETATM    4  C   UNL     1      -5.806  13.481  70.375  1.00  0.00    -0.164 A  
HETATM    5  C   UNL     1      -6.641  12.948  69.380  1.00  0.00    -0.062 A  
HETATM    6  C   UNL     1      -7.731  13.676  68.873  1.00  0.00     0.005 A  
HETATM    7  C   UNL     1      -7.974  14.943  69.440  1.00  0.00    -0.123 A  
HETATM    8  C   UNL     1      -7.126  15.488  70.415  1.00  0.00     0.504 A  
ENDROOT
BRANCH   6   9
HETATM    9  C   UNL     1      -8.559  13.175  67.734  1.00  0.00    -0.188 A  
HETATM   10  C   UNL     1      -8.311  12.278  66.683  1.00  0.00    -0.016 A  
HETATM   11  C   UNL     1     -10.983  11.166  64.115  1.00  0.00    -0.276 A  
HETATM   12  C   UNL     1      -9.496  12.062  65.853  1.00  0.00    -0.207 A  
HETATM   13  O   UNL     1     -13.174  11.980  63.853  1.00  0.00    -0.705 OA 
HETATM   14  C   UNL     1     -10.552  12.881  66.247  1.00  0.00    -0.266 A  
HETATM   15  H   UNL     1     -13.300  11.392  63.118  1.00  0.00     0.000 HD 
HETATM   16  C   UNL     1      -9.750  11.168  64.773  1.00  0.00    -0.303 A  
HETATM   17  S   UNL     1     -10.133  13.855  67.577  1.00  0.00    -0.247 SA 
HETATM   18  C   UNL     1     -11.805  12.874  65.603  1.00  0.00    -0.464 A  
HETATM   19  C   UNL     1     -11.989  12.015  64.528  1.00  0.00    -0.268 A  
BRANCH  10  20
HETATM   20  C   UNL     1      -7.055  11.536  66.549  1.00  0.00    -0.009 C  
HETATM   21  O   UNL     1      -6.056  12.092  66.092  1.00  0.00     0.294 OA 
BRANCH  20  22
HETATM   22  C   UNL     1      -6.913  10.102  66.950  1.00  0.00    -0.089 A  
HETATM   23  C   UNL     1      -6.312   7.388  67.531  1.00  0.00    -0.052 A  
HETATM   24  C   UNL     1      -7.622   7.775  67.231  1.00  0.00    -0.104 A  
HETATM   25  C   UNL     1      -5.615   9.703  67.279  1.00  0.00    -0.040 A  
HETATM   26  C   UNL     1      -7.925   9.127  66.939  1.00  0.00    -0.105 A  
HETATM   27  C   UNL     1      -5.316   8.364  67.537  1.00  0.00    -0.034 A  
BRANCH  23  28
HETATM   28  O   UNL     1      -6.074   6.048  67.811  1.00  0.00    -0.020 OA 
BRANCH  28  29
HETATM   29  C   UNL     1      -7.126   5.481  68.612  1.00  0.00    -0.065 C  
BRANCH  29  30
HETATM   30  C   UNL     1      -6.724   4.762  69.913  1.00  0.00    -0.037 C  
BRANCH  30  31
HETATM   31  N   UNL     1      -6.302   3.361  69.634  1.00  0.00    -0.028 NA 
HETATM   32  C   UNL     1      -6.067   2.540  70.836  1.00  0.00    -0.018 C  
HETATM   33  C   UNL     1      -7.337   2.370  71.664  1.00  0.00    -0.040 C  
HETATM   34  C   UNL     1      -8.388   1.641  70.835  1.00  0.00    -0.068 C  
HETATM   35  C   UNL     1      -8.562   2.252  69.439  1.00  0.00    -0.106 C  
HETATM   36  C   UNL     1      -7.241   2.642  68.760  1.00  0.00    -0.048 C  
ENDBRANCH  30  31
ENDBRANCH  29  30
ENDBRANCH  28  29
ENDBRANCH  23  28
ENDBRANCH  20  22
ENDBRANCH  10  20
ENDBRANCH   6   9
TORSDOF 7
ENDMDL
MODEL      219
REMARK 921   NORMALIZED FREE ENERGY PREDICTED BY IDOCK:   -1.78 KCAL/MOL
REMARK 922        TOTAL FREE ENERGY PREDICTED BY IDOCK:   -4.58 KCAL/MOL
REMARK 923 INTER-LIGAND FREE ENERGY PREDICTED BY IDOCK:   -3.35 KCAL/MOL
REMARK 924 INTRA-LIGAND FREE ENERGY PREDICTED BY IDOCK:   -1.24 KCAL/MOL
REMARK 927      BINDING AFFINITY PREDICTED BY RF-SCORE:    0.00 PKD
ROOT
HETATM    1  O   UNL     1      -7.257   4.291  74.503  1.00  0.00    -0.068 OA 
HETATM    2  H   UNL     1      -8.077   4.145  74.959  1.00  0.00     0.000 HD 
HETATM    3  C   UNL     1      -7.217   4.610  73.180  1.00  0.00    -0.080 A  
HETATM    4  C   UNL     1      -6.017   4.824  72.513  1.00  0.00    -0.020 A  
HETATM    5  C   UNL     1      -6.026   5.210  71.163  1.00  0.00    -0.021 A  
HETATM    6  C   UNL     1      -7.231   5.369  70.457  1.00  0.00    -0.066 A  
HETATM    7  C   UNL     1      -8.423   5.082  71.150  1.00  0.00    -0.123 A  
HETATM    8  C   UNL     1      -8.417   4.722  72.506  1.00  0.00    -0.116 A  
ENDROOT
BRANCH   6   9
HETATM    9  C   UNL     1      -7.266   5.892  69.056  1.00  0.00    -0.082 A  
HETATM   10  C   UNL     1      -7.547   7.151  68.504  1.00  0.00    -0.115 A  
HETATM   11  C   UNL     1      -7.239   7.975  64.735  1.00  0.00    -0.078 A  
HETATM   12  C   UNL     1      -7.373   7.166  67.052  1.00  0.00    -0.089 A  
HETATM   13  O   UNL     1      -6.798   6.500  62.958  1.00  0.00    -0.043 OA 
HETATM   14  C   UNL     1      -7.071   5.897  66.560  1.00  0.00    -0.069 A  
HETATM   15  H   UNL     1      -6.870   7.223  62.345  1.00  0.00     0.000 HD 
HETATM   16  C   UNL     1      -7.425   8.224  66.099  1.00  0.00    -0.081 A  
HETATM   17  S   UNL     1      -6.985   4.742  67.805  1.00  0.00    -0.062 SA 
HETATM   18  C   UNL     1      -6.864   5.639  65.191  1.00  0.00    -0.052 A  
HETATM   19  C   UNL     1      -6.968   6.695  64.296  1.00  0.00    -0.051 A  
BRANCH  10  20
HETATM   20  C   UNL     1      -7.824   8.335  69.320  1.00  0.00    -0.108 C  
HETATM   21  O   UNL     1      -8.532   8.241  70.323  1.00  0.00    -0.120 OA 
BRANCH  20  22
HETATM   22  C   UNL     1      -7.277   9.690  68.997  1.00  0.00    -0.071 A  
HETATM   23  C   UNL     1      -5.996  12.202  68.663  1.00  0.00    -0.055 A  
HETATM   24  C   UNL     1      -7.381  12.086  68.505  1.00  0.00    -0.111 A  
HETATM   25  C   UNL     1      -5.892   9.817  69.123  1.00  0.00    -0.034 A  
HETATM   26  C   UNL     1      -8.023  10.835  68.673  1.00  0.00    -0.133 A  
HETATM   27  C   UNL     1      -5.266  11.057  68.986  1.00  0.00    -0.041 A  
BRANCH  23  28
HETATM   28  O   UNL     1      -5.419  13.453  68.484  1.00  0.00    -0.074 OA 
BRANCH  28  29
HETATM   29  C   UNL     1      -5.661  14.312  69.611  1.00  0.00    -0.100 C  
BRANCH  29  30
HETATM   30  C   UNL     1      -6.302  15.686  69.338  1.00  0.00    -0.150 C  
BRANCH  30  31
HETATM   31  N   UNL     1      -7.064  15.668  68.058  1.00  0.00    -0.114 NA 
HETATM   32  C   UNL     1      -8.522  15.516  68.214  1.00  0.00    -0.156 C  
HETATM   33  C   UNL     1      -9.136  16.687  68.976  1.00  0.00    -0.209 C  
HETATM   34  C   UNL     1      -8.910  17.975  68.193  1.00  0.00    -0.277 C  
HETATM   35  C   UNL     1      -7.454  18.143  67.746  1.00  0.00    -0.213 C  
HETATM   36  C   UNL     1      -6.809  16.851  67.223  1.00  0.00    -0.166 C  
ENDBRANCH  30  31
ENDBRANCH  29  30
ENDBRANCH  28  29
ENDBRANCH  23  28
ENDBRANCH  20  22
ENDBRANCH  10  20
ENDBRANCH   6   9
TORSDOF 7
ENDMDL
MODEL      220
REMARK 921   NORMALIZED FREE ENERGY PREDICTED BY IDOCK:   -1.76 KCAL/MOL
REMARK 922        TOTAL FREE ENERGY PREDICTED BY IDOCK:   -4.56 KCAL/MOL
REMARK 923 INTER-LIGAND FREE ENERGY PREDICTED BY IDOCK:   -2.80 KCAL/MOL
REMARK 924 INTRA-LIGAND FREE ENERGY PREDICTED BY IDOCK:   -1.76 KCAL/MOL
REMARK 927      BINDING AFFINITY PREDICTED BY RF-SCORE:    0.00 PKD
ROOT
HETATM    1  O   UNL     1     -13.693  13.758  72.640  1.00  0.00    -0.647 OA 
HETATM    2  H   UNL     1     -14.524  14.176  72.833  1.00  0.00     0.000 HD 
HETATM    3  C   UNL     1     -12.824  14.272  71.725  1.00  0.00    -0.348 A  
HETATM    4  C   UNL     1     -11.609  13.662  71.444  1.00  0.00     1.034 A  
HETATM    5  C   UNL     1     -10.719  14.260  70.537  1.00  0.00     0.667 A  
HETATM    6  C   UNL     1     -11.039  15.465  69.886  1.00  0.00    -0.304 A  
HETATM    7  C   UNL     1     -12.306  16.019  70.150  1.00  0.00    -0.017 A  
HETATM    8  C   UNL     1     -13.186  15.437  71.075  1.00  0.00    -0.560 A  
ENDROOT
BRANCH   6   9
HETATM    9  C   UNL     1     -10.059  16.176  69.009  1.00  0.00    -0.247 A  
HETATM   10  C   UNL     1      -9.940  16.322  67.618  1.00  0.00    -0.247 A  
HETATM   11  C   UNL     1      -7.269  18.532  65.898  1.00  0.00    -0.265 A  
HETATM   12  C   UNL     1      -8.825  17.194  67.250  1.00  0.00    -0.226 A  
HETATM   13  O   UNL     1      -5.461  19.662  66.890  1.00  0.00    -0.170 OA 
HETATM   14  C   UNL     1      -8.090  17.584  68.368  1.00  0.00    -0.266 A  
HETATM   15  H   UNL     1      -5.188  19.969  66.034  1.00  0.00     0.000 HD 
HETATM   16  C   UNL     1      -8.402  17.718  65.994  1.00  0.00    -0.082 A  
HETATM   17  S   UNL     1      -8.734  16.936  69.803  1.00  0.00     1.316 SA 
HETATM   18  C   UNL     1      -6.959  18.419  68.285  1.00  0.00    -0.257 A  
HETATM   19  C   UNL     1      -6.560  18.868  67.034  1.00  0.00    -0.195 A  
BRANCH  10  20
HETATM   20  C   UNL     1     -10.922  15.785  66.673  1.00  0.00    -0.179 C  
HETATM   21  O   UNL     1     -11.855  16.490  66.286  1.00  0.00     1.134 OA 
BRANCH  20  22
HETATM   22  C   UNL     1     -10.853  14.391  66.136  1.00  0.00    -0.309 A  
HETATM   23  C   UNL     1     -10.732  11.632  65.475  1.00  0.00    -0.281 A  
HETATM   24  C   UNL     1     -10.001  12.570  64.739  1.00  0.00    -0.177 A  
HETATM   25  C   UNL     1     -11.599  13.444  66.843  1.00  0.00    -0.404 A  
HETATM   26  C   UNL     1     -10.058  13.946  65.067  1.00  0.00    -0.319 A  
HETATM   27  C   UNL     1     -11.518  12.085  66.535  1.00  0.00    -0.413 A  
BRANCH  23  28
HETATM   28  O   UNL     1     -10.640  10.295  65.106  1.00  0.00    -0.136 OA 
BRANCH  28  29
HETATM   29  C   UNL     1      -9.272   9.854  65.056  1.00  0.00    -0.240 C  
BRANCH  29  30
HETATM   30  C   UNL     1      -8.749   9.014  66.236  1.00  0.00    -0.135 C  
BRANCH  30  31
HETATM   31  N   UNL     1      -8.755   7.563  65.896  1.00  0.00    -0.160 NA 
HETATM   32  C   UNL     1      -8.010   7.217  64.672  1.00  0.00    -0.115 C  
HETATM   33  C   UNL     1      -6.526   7.545  64.800  1.00  0.00    -0.041 C  
HETATM   34  C   UNL     1      -5.921   6.720  65.930  1.00  0.00    -0.034 C  
HETATM   35  C   UNL     1      -6.748   6.794  67.219  1.00  0.00    -0.067 C  
HETATM   36  C   UNL     1      -8.264   6.715  66.992  1.00  0.00    -0.113 C  
ENDBRANCH  30  31
ENDBRANCH  29  30
ENDBRANCH  28  29
ENDBRANCH  23  28
ENDBRANCH  20  22
ENDBRANCH  10  20
ENDBRANCH   6   9
TORSDOF 7
ENDMDL
MODEL      221
REMARK 921   NORMALIZED FREE ENERGY PREDICTED BY IDOCK:   -1.73 KCAL/MOL
REMARK 922        TOTAL FREE ENERGY PREDICTED BY IDOCK:   -4.52 KCAL/MOL
REMARK 923 INTER-LIGAND FREE ENERGY PREDICTED BY IDOCK:   -2.90 KCAL/MOL
REMARK 924 INTRA-LIGAND FREE ENERGY PREDICTED BY IDOCK:   -1.62 KCAL/MOL
REMARK 927      BINDING AFFINITY PREDICTED BY RF-SCORE:    0.00 PKD
ROOT
HETATM    1  O   UNL     1      -6.249   6.814  73.490  1.00  0.00    -0.062 OA 
HETATM    2  H   UNL     1      -7.012   6.585  74.008  1.00  0.00     0.000 HD 
HETATM    3  C   UNL     1      -6.259   7.861  72.619  1.00  0.00    -0.061 A  
HETATM    4  C   UNL     1      -5.143   8.196  71.863  1.00  0.00    -0.034 A  
HETATM    5  C   UNL     1      -5.180   9.320  71.022  1.00  0.00    -0.033 A  
HETATM    6  C   UNL     1      -6.336  10.113  70.911  1.00  0.00     0.002 A  
HETATM    7  C   UNL     1      -7.466   9.703  71.645  1.00  0.00     0.850 A  
HETATM    8  C   UNL     1      -7.423   8.596  72.506  1.00  0.00    -0.007 A  
ENDROOT
BRANCH   6   9
HETATM    9  C   UNL     1      -6.358  11.377  70.113  1.00  0.00    -0.099 A  
HETATM   10  C   UNL     1      -6.761  11.684  68.804  1.00  0.00    -0.077 A  
HETATM   11  C   UNL     1      -6.807  15.266  67.341  1.00  0.00    -0.188 A  
HETATM   12  C   UNL     1      -6.649  13.113  68.515  1.00  0.00    -0.088 A  
HETATM   13  O   UNL     1      -5.991  17.244  68.317  1.00  0.00    -0.143 OA 
HETATM   14  C   UNL     1      -6.071  13.805  69.577  1.00  0.00    -0.112 A  
HETATM   15  H   UNL     1      -6.241  17.726  67.538  1.00  0.00     0.000 HD 
HETATM   16  C   UNL     1      -7.046  13.889  67.388  1.00  0.00    -0.091 A  
HETATM   17  S   UNL     1      -5.697  12.772  70.875  1.00  0.00     0.026 SA 
HETATM   18  C   UNL     1      -5.842  15.195  69.548  1.00  0.00    -0.106 A  
HETATM   19  C   UNL     1      -6.207  15.901  68.410  1.00  0.00    -0.107 A  
BRANCH  10  20
HETATM   20  C   UNL     1      -7.368  10.699  67.906  1.00  0.00    -0.089 C  
HETATM   21  O   UNL     1      -7.157  10.756  66.694  1.00  0.00    -0.117 OA 
BRANCH  20  22
HETATM   22  C   UNL     1      -8.254   9.596  68.392  1.00  0.00    -0.106 A  
HETATM   23  C   UNL     1     -10.040   7.738  69.586  1.00  0.00    -0.196 A  
HETATM   24  C   UNL     1      -8.824   7.306  69.047  1.00  0.00    -0.132 A  
HETATM   25  C   UNL     1      -9.486  10.006  68.909  1.00  0.00    -0.172 A  
HETATM   26  C   UNL     1      -7.930   8.230  68.453  1.00  0.00    -0.119 A  
HETATM   27  C   UNL     1     -10.350   9.097  69.521  1.00  0.00    -0.220 A  
BRANCH  23  28
HETATM   28  O   UNL     1     -10.878   6.787  70.155  1.00  0.00    -0.235 OA 
BRANCH  28  29
HETATM   29  C   UNL     1     -10.140   5.834  70.939  1.00  0.00    -0.199 C  
BRANCH  29  30
HETATM   30  C   UNL     1     -10.923   4.993  71.964  1.00  0.00    -0.014 C  
BRANCH  30  31
HETATM   31  N   UNL     1     -10.077   4.687  73.152  1.00  0.00    -0.152 NA 
HETATM   32  C   UNL     1     -10.768   3.941  74.220  1.00  0.00    -0.171 C  
HETATM   33  C   UNL     1     -11.225   2.565  73.747  1.00  0.00    -0.293 C  
HETATM   34  C   UNL     1     -10.009   1.737  73.348  1.00  0.00    -0.140 C  
HETATM   35  C   UNL     1      -9.061   2.498  72.414  1.00  0.00    -0.121 C  
HETATM   36  C   UNL     1      -8.844   3.965  72.807  1.00  0.00    -0.098 C  
ENDBRANCH  30  31
ENDBRANCH  29  30
ENDBRANCH  28  29
ENDBRANCH  23  28
ENDBRANCH  20  22
ENDBRANCH  10  20
ENDBRANCH   6   9
TORSDOF 7
ENDMDL
MODEL      222
REMARK 921   NORMALIZED FREE ENERGY PREDICTED BY IDOCK:   -1.43 KCAL/MOL
REMARK 922        TOTAL FREE ENERGY PREDICTED BY IDOCK:   -4.09 KCAL/MOL
REMARK 923 INTER-LIGAND FREE ENERGY PREDICTED BY IDOCK:   -4.75 KCAL/MOL
REMARK 924 INTRA-LIGAND FREE ENERGY PREDICTED BY IDOCK:    0.66 KCAL/MOL
REMARK 927      BINDING AFFINITY PREDICTED BY RF-SCORE:    0.00 PKD
ROOT
HETATM    1  O   UNL     1      -5.379  21.068  64.389  1.00  0.00    -0.206 OA 
HETATM    2  H   UNL     1      -4.435  20.963  64.358  1.00  0.00     0.000 HD 
HETATM    3  C   UNL     1      -6.177  20.208  65.080  1.00  0.00    -0.269 A  
HETATM    4  C   UNL     1      -7.557  20.363  65.124  1.00  0.00     0.299 A  
HETATM    5  C   UNL     1      -8.335  19.487  65.899  1.00  0.00    -0.147 A  
HETATM    6  C   UNL     1      -7.748  18.435  66.623  1.00  0.00    -0.258 A  
HETATM    7  C   UNL     1      -6.354  18.273  66.502  1.00  0.00    -0.225 A  
HETATM    8  C   UNL     1      -5.572  19.163  65.750  1.00  0.00    -0.185 A  
ENDROOT
BRANCH   6   9
HETATM    9  C   UNL     1      -8.543  17.566  67.544  1.00  0.00    -0.221 A  
HETATM   10  C   UNL     1      -8.364  16.263  68.034  1.00  0.00    -0.165 A  
HETATM   11  C   UNL     1     -10.689  14.594  70.638  1.00  0.00     0.291 A  
HETATM   12  C   UNL     1      -9.408  15.884  68.985  1.00  0.00    -0.243 A  
HETATM   13  O   UNL     1     -12.716  15.409  71.508  1.00  0.00    -0.346 OA 
HETATM   14  C   UNL     1     -10.384  16.873  69.093  1.00  0.00    -0.319 A  
HETATM   15  H   UNL     1     -12.809  14.616  72.023  1.00  0.00     0.000 HD 
HETATM   16  C   UNL     1      -9.570  14.734  69.810  1.00  0.00     0.234 A  
HETATM   17  S   UNL     1     -10.040  18.210  68.099  1.00  0.00    -0.397 SA 
HETATM   18  C   UNL     1     -11.505  16.750  69.937  1.00  0.00     0.437 A  
HETATM   19  C   UNL     1     -11.641  15.592  70.690  1.00  0.00    -0.349 A  
BRANCH  10  20
HETATM   20  C   UNL     1      -7.178  15.456  67.736  1.00  0.00    -0.163 C  
HETATM   21  O   UNL     1      -6.183  15.983  67.237  1.00  0.00    -0.196 OA 
BRANCH  20  22
HETATM   22  C   UNL     1      -7.104  13.988  68.015  1.00  0.00    -0.147 A  
HETATM   23  C   UNL     1      -6.595  11.257  68.601  1.00  0.00    -0.064 A  
HETATM   24  C   UNL     1      -7.515  11.609  67.608  1.00  0.00    -0.116 A  
HETATM   25  C   UNL     1      -6.210  13.619  69.023  1.00  0.00    -0.097 A  
HETATM   26  C   UNL     1      -7.770  12.971  67.312  1.00  0.00    -0.112 A  
HETATM   27  C   UNL     1      -5.940  12.276  69.291  1.00  0.00    -0.087 A  
BRANCH  23  28
HETATM   28  O   UNL     1      -6.388   9.905  68.850  1.00  0.00    -0.041 OA 
BRANCH  28  29
HETATM   29  C   UNL     1      -7.450   9.344  69.639  1.00  0.00    -0.084 C  
BRANCH  29  30
HETATM   30  C   UNL     1      -8.173   8.103  69.085  1.00  0.00    -0.123 C  
BRANCH  30  31
HETATM   31  N   UNL     1      -9.573   8.037  69.592  1.00  0.00    -0.167 NA 
HETATM   32  C   UNL     1     -10.580   8.625  68.690  1.00  0.00    -0.129 C  
HETATM   33  C   UNL     1     -10.650   7.886  67.358  1.00  0.00    -0.342 C  
HETATM   34  C   UNL     1     -11.071   6.441  67.602  1.00  0.00    -0.388 C  
HETATM   35  C   UNL     1     -10.251   5.770  68.711  1.00  0.00    -0.255 C  
HETATM   36  C   UNL     1      -9.997   6.669  69.928  1.00  0.00    -0.171 C  
ENDBRANCH  30  31
ENDBRANCH  29  30
ENDBRANCH  28  29
ENDBRANCH  23  28
ENDBRANCH  20  22
ENDBRANCH  10  20
ENDBRANCH   6   9
TORSDOF 7
ENDMDL
MODEL      223
REMARK 921   NORMALIZED FREE ENERGY PREDICTED BY IDOCK:   -1.32 KCAL/MOL
REMARK 922        TOTAL FREE ENERGY PREDICTED BY IDOCK:   -3.95 KCAL/MOL
REMARK 923 INTER-LIGAND FREE ENERGY PREDICTED BY IDOCK:   -4.11 KCAL/MOL
REMARK 924 INTRA-LIGAND FREE ENERGY PREDICTED BY IDOCK:    0.16 KCAL/MOL
REMARK 927      BINDING AFFINITY PREDICTED BY RF-SCORE:    0.00 PKD
ROOT
HETATM    1  O   UNL     1      -8.683   6.049  72.660  1.00  0.00    -0.122 OA 
HETATM    2  H   UNL     1      -9.474   5.546  72.811  1.00  0.00     0.000 HD 
HETATM    3  C   UNL     1      -8.633   7.055  71.743  1.00  0.00    -0.114 A  
HETATM    4  C   UNL     1      -7.476   7.791  71.524  1.00  0.00    -0.077 A  
HETATM    5  C   UNL     1      -7.488   8.858  70.611  1.00  0.00    -0.091 A  
HETATM    6  C   UNL     1      -8.649   9.193  69.894  1.00  0.00    -0.155 A  
HETATM    7  C   UNL     1      -9.784   8.384  70.097  1.00  0.00    -0.175 A  
HETATM    8  C   UNL     1      -9.782   7.334  71.028  1.00  0.00    -0.169 A  
ENDROOT
BRANCH   6   9
HETATM    9  C   UNL     1      -8.715  10.396  69.008  1.00  0.00    -0.168 A  
HETATM   10  C   UNL     1      -9.433  10.693  67.838  1.00  0.00    -0.168 A  
HETATM   11  C   UNL     1      -9.372  14.141  66.083  1.00  0.00    -0.166 A  
HETATM   12  C   UNL     1      -9.199  12.063  67.383  1.00  0.00    -0.180 A  
HETATM   13  O   UNL     1      -8.023  16.002  66.584  1.00  0.00    -0.243 OA 
HETATM   14  C   UNL     1      -8.240  12.705  68.164  1.00  0.00    -0.170 A  
HETATM   15  H   UNL     1      -8.415  16.475  65.860  1.00  0.00     0.000 HD 
HETATM   16  C   UNL     1      -9.788  12.831  66.337  1.00  0.00    -0.269 A  
HETATM   17  S   UNL     1      -7.661  11.698  69.407  1.00  0.00     0.442 SA 
HETATM   18  C   UNL     1      -7.827  14.031  67.930  1.00  0.00    -0.161 A  
HETATM   19  C   UNL     1      -8.399  14.723  66.872  1.00  0.00    -0.151 A  
BRANCH  10  20
HETATM   20  C   UNL     1     -10.415   9.778  67.252  1.00  0.00    -0.261 C  
HETATM   21  O   UNL     1     -11.483  10.213  66.821  1.00  0.00     0.141 OA 
BRANCH  20  22
HETATM   22  C   UNL     1     -10.186   8.304  67.142  1.00  0.00    -0.365 A  
HETATM   23  C   UNL     1      -9.520   5.588  66.649  1.00  0.00    -0.146 A  
HETATM   24  C   UNL     1     -10.823   5.943  67.012  1.00  0.00    -0.379 A  
HETATM   25  C   UNL     1      -8.883   7.928  66.807  1.00  0.00    -0.154 A  
HETATM   26  C   UNL     1     -11.159   7.297  67.256  1.00  0.00    -0.151 A  
HETATM   27  C   UNL     1      -8.563   6.596  66.537  1.00  0.00    -0.124 A  
BRANCH  23  28
HETATM   28  O   UNL     1      -9.248   4.244  66.423  1.00  0.00    -0.130 OA 
BRANCH  28  29
HETATM   29  C   UNL     1      -8.695   4.030  65.113  1.00  0.00    -0.120 C  
BRANCH  29  30
HETATM   30  C   UNL     1      -9.103   5.008  63.997  1.00  0.00     0.091 C  
BRANCH  30  31
HETATM   31  N   UNL     1      -8.057   5.067  62.937  1.00  0.00    -0.089 NA 
HETATM   32  C   UNL     1      -7.852   6.404  62.351  1.00  0.00    -0.101 C  
HETATM   33  C   UNL     1      -7.361   7.408  63.389  1.00  0.00    -0.087 C  
HETATM   34  C   UNL     1      -6.011   6.955  63.933  1.00  0.00    -0.036 C  
HETATM   35  C   UNL     1      -6.014   5.482  64.359  1.00  0.00    -0.022 C  
HETATM   36  C   UNL     1      -6.755   4.554  63.387  1.00  0.00    -0.038 C  
ENDBRANCH  30  31
ENDBRANCH  29  30
ENDBRANCH  28  29
ENDBRANCH  23  28
ENDBRANCH  20  22
ENDBRANCH  10  20
ENDBRANCH   6   9
TORSDOF 7
ENDMDL
MODEL      224
REMARK 921   NORMALIZED FREE ENERGY PREDICTED BY IDOCK:   -1.23 KCAL/MOL
REMARK 922        TOTAL FREE ENERGY PREDICTED BY IDOCK:   -3.81 KCAL/MOL
REMARK 923 INTER-LIGAND FREE ENERGY PREDICTED BY IDOCK:   -3.60 KCAL/MOL
REMARK 924 INTRA-LIGAND FREE ENERGY PREDICTED BY IDOCK:   -0.21 KCAL/MOL
REMARK 927      BINDING AFFINITY PREDICTED BY RF-SCORE:    0.00 PKD
ROOT
HETATM    1  O   UNL     1      -8.680   6.089  72.656  1.00  0.00    -0.122 OA 
HETATM    2  H   UNL     1      -9.565   5.743  72.686  1.00  0.00     0.000 HD 
HETATM    3  C   UNL     1      -8.350   7.153  71.872  1.00  0.00    -0.105 A  
HETATM    4  C   UNL     1      -7.057   7.658  71.829  1.00  0.00    -0.063 A  
HETATM    5  C   UNL     1      -6.775   8.794  71.053  1.00  0.00    -0.070 A  
HETATM    6  C   UNL     1      -7.776   9.428  70.295  1.00  0.00    -0.151 A  
HETATM    7  C   UNL     1      -9.059   8.847  70.315  1.00  0.00    -0.201 A  
HETATM    8  C   UNL     1      -9.348   7.729  71.111  1.00  0.00    -0.164 A  
ENDROOT
BRANCH   6   9
HETATM    9  C   UNL     1      -7.523  10.703  69.556  1.00  0.00    -0.130 A  
HETATM   10  C   UNL     1      -8.132  11.311  68.448  1.00  0.00    -0.143 A  
HETATM   11  C   UNL     1      -7.171  14.810  67.104  1.00  0.00     0.040 A  
HETATM   12  C   UNL     1      -7.549  12.619  68.149  1.00  0.00    -0.132 A  
HETATM   13  O   UNL     1      -5.389  16.187  67.783  1.00  0.00    -0.118 OA 
HETATM   14  C   UNL     1      -6.461  12.894  68.975  1.00  0.00    -0.103 A  
HETATM   15  H   UNL     1      -5.641  16.828  67.129  1.00  0.00     0.000 HD 
HETATM   16  C   UNL     1      -7.913  13.631  67.215  1.00  0.00    -0.129 A  
HETATM   17  S   UNL     1      -6.170  11.632  70.077  1.00  0.00    -0.101 SA 
HETATM   18  C   UNL     1      -5.717  14.087  68.885  1.00  0.00    -0.082 A  
HETATM   19  C   UNL     1      -6.085  15.024  67.930  1.00  0.00    -0.155 A  
BRANCH  10  20
HETATM   20  C   UNL     1      -9.314  10.757  67.784  1.00  0.00    -0.152 C  
HETATM   21  O   UNL     1     -10.383  11.368  67.816  1.00  0.00    -0.176 OA 
BRANCH  20  22
HETATM   22  C   UNL     1      -9.296   9.454  67.049  1.00  0.00    -0.185 A  
HETATM   23  C   UNL     1      -9.189   6.823  65.985  1.00  0.00    -0.030 A  
HETATM   24  C   UNL     1      -8.672   7.902  65.260  1.00  0.00    -0.032 A  
HETATM   25  C   UNL     1      -9.833   8.370  67.746  1.00  0.00    -0.218 A  
HETATM   26  C   UNL     1      -8.722   9.215  65.789  1.00  0.00    -0.192 A  
HETATM   27  C   UNL     1      -9.755   7.073  67.235  1.00  0.00    -0.189 A  
BRANCH  23  28
HETATM   28  O   UNL     1      -9.114   5.558  65.416  1.00  0.00    -0.141 OA 
BRANCH  28  29
HETATM   29  C   UNL     1      -8.373   4.648  66.246  1.00  0.00    -0.110 C  
BRANCH  29  30
HETATM   30  C   UNL     1      -6.954   5.067  66.675  1.00  0.00    -0.067 C  
BRANCH  30  31
HETATM   31  N   UNL     1      -6.330   4.020  67.533  1.00  0.00    -0.036 NA 
HETATM   32  C   UNL     1      -5.159   4.476  68.303  1.00  0.00    -0.003 C  
HETATM   33  C   UNL     1      -5.526   5.575  69.295  1.00  0.00    -0.007 C  
HETATM   34  C   UNL     1      -6.530   5.031  70.305  1.00  0.00    -0.031 C  
HETATM   35  C   UNL     1      -7.700   4.301  69.634  1.00  0.00    -0.053 C  
HETATM   36  C   UNL     1      -7.284   3.399  68.465  1.00  0.00    -0.050 C  
ENDBRANCH  30  31
ENDBRANCH  29  30
ENDBRANCH  28  29
ENDBRANCH  23  28
ENDBRANCH  20  22
ENDBRANCH  10  20
ENDBRANCH   6   9
TORSDOF 7
ENDMDL
MODEL      225
REMARK 921   NORMALIZED FREE ENERGY PREDICTED BY IDOCK:   -0.93 KCAL/MOL
REMARK 922        TOTAL FREE ENERGY PREDICTED BY IDOCK:   -3.38 KCAL/MOL
REMARK 923 INTER-LIGAND FREE ENERGY PREDICTED BY IDOCK:   -2.43 KCAL/MOL
REMARK 924 INTRA-LIGAND FREE ENERGY PREDICTED BY IDOCK:   -0.95 KCAL/MOL
REMARK 927      BINDING AFFINITY PREDICTED BY RF-SCORE:    0.00 PKD
ROOT
HETATM    1  O   UNL     1     -11.797   7.253  67.110  1.00  0.00     0.385 OA 
HETATM    2  H   UNL     1     -12.039   6.642  67.797  1.00  0.00     0.000 HD 
HETATM    3  C   UNL     1     -11.071   8.375  67.370  1.00  0.00     0.430 A  
HETATM    4  C   UNL     1     -10.717   9.268  66.367  1.00  0.00     0.119 A  
HETATM    5  C   UNL     1      -9.916  10.380  66.671  1.00  0.00    -0.262 A  
HETATM    6  C   UNL     1      -9.474  10.626  67.982  1.00  0.00    -0.164 A  
HETATM    7  C   UNL     1      -9.906   9.733  68.982  1.00  0.00    -0.183 A  
HETATM    8  C   UNL     1     -10.684   8.606  68.676  1.00  0.00    -0.092 A  
ENDROOT
BRANCH   6   9
HETATM    9  C   UNL     1      -8.526  11.737  68.305  1.00  0.00    -0.161 A  
HETATM   10  C   UNL     1      -7.351  11.810  69.069  1.00  0.00    -0.055 A  
HETATM   11  C   UNL     1      -5.150  14.980  69.351  1.00  0.00    -0.088 A  
HETATM   12  C   UNL     1      -6.741  13.138  69.014  1.00  0.00    -0.103 A  
HETATM   13  O   UNL     1      -5.593  17.134  68.518  1.00  0.00    -0.133 OA 
HETATM   14  C   UNL     1      -7.532  14.034  68.299  1.00  0.00    -0.123 A  
HETATM   15  H   UNL     1      -4.778  17.443  68.894  1.00  0.00     0.000 HD 
HETATM   16  C   UNL     1      -5.507  13.639  69.520  1.00  0.00    -0.087 A  
HETATM   17  S   UNL     1      -8.944  13.295  67.704  1.00  0.00    -0.212 SA 
HETATM   18  C   UNL     1      -7.173  15.383  68.105  1.00  0.00    -0.124 A  
HETATM   19  C   UNL     1      -5.982  15.834  68.655  1.00  0.00    -0.101 A  
BRANCH  10  20
HETATM   20  C   UNL     1      -6.743  10.641  69.708  1.00  0.00    -0.130 C  
HETATM   21  O   UNL     1      -6.457  10.671  70.906  1.00  0.00    -0.350 OA 
BRANCH  20  22
HETATM   22  C   UNL     1      -6.442   9.376  68.968  1.00  0.00    -0.046 A  
HETATM   23  C   UNL     1      -5.946   6.798  67.886  1.00  0.00    -0.031 A  
HETATM   24  C   UNL     1      -5.160   7.890  67.504  1.00  0.00    -0.031 A  
HETATM   25  C   UNL     1      -7.235   8.280  69.317  1.00  0.00    -0.064 A  
HETATM   26  C   UNL     1      -5.404   9.177  68.043  1.00  0.00    -0.034 A  
HETATM   27  C   UNL     1      -6.973   7.008  68.806  1.00  0.00    -0.079 A  
BRANCH  23  28
HETATM   28  O   UNL     1      -5.662   5.560  67.322  1.00  0.00    -0.015 OA 
BRANCH  28  29
HETATM   29  C   UNL     1      -6.578   5.240  66.261  1.00  0.00    -0.052 C  
BRANCH  29  30
HETATM   30  C   UNL     1      -6.771   3.754  65.908  1.00  0.00    -0.045 C  
BRANCH  30  31
HETATM   31  N   UNL     1      -7.912   3.174  66.672  1.00  0.00    -0.080 NA 
HETATM   32  C   UNL     1      -8.923   4.156  67.104  1.00  0.00    -0.128 C  
HETATM   33  C   UNL     1      -9.599   4.833  65.916  1.00  0.00    -0.188 C  
HETATM   34  C   UNL     1     -10.332   3.786  65.085  1.00  0.00     0.008 C  
HETATM   35  C   UNL     1      -9.454   2.571  64.766  1.00  0.00    -0.102 C  
HETATM   36  C   UNL     1      -8.597   2.093  65.947  1.00  0.00    -0.111 C  
ENDBRANCH  30  31
ENDBRANCH  29  30
ENDBRANCH  28  29
ENDBRANCH  23  28
ENDBRANCH  20  22
ENDBRANCH  10  20
ENDBRANCH   6   9
TORSDOF 7
ENDMDL
MODEL      226
REMARK 921   NORMALIZED FREE ENERGY PREDICTED BY IDOCK:   -0.63 KCAL/MOL
REMARK 922        TOTAL FREE ENERGY PREDICTED BY IDOCK:   -2.96 KCAL/MOL
REMARK 923 INTER-LIGAND FREE ENERGY PREDICTED BY IDOCK:   -2.28 KCAL/MOL
REMARK 924 INTRA-LIGAND FREE ENERGY PREDICTED BY IDOCK:   -0.69 KCAL/MOL
REMARK 927      BINDING AFFINITY PREDICTED BY RF-SCORE:    0.00 PKD
ROOT
HETATM    1  O   UNL     1     -12.516  14.545  62.622  1.00  0.00     0.171 OA 
HETATM    2  H   UNL     1     -12.375  13.924  61.917  1.00  0.00     0.000 HD 
HETATM    3  C   UNL     1     -11.709  14.585  63.719  1.00  0.00     0.314 A  
HETATM    4  C   UNL     1     -11.916  15.493  64.749  1.00  0.00    -0.026 A  
HETATM    5  C   UNL     1     -11.023  15.538  65.832  1.00  0.00    -0.264 A  
HETATM    6  C   UNL     1      -9.925  14.665  65.910  1.00  0.00    -0.352 A  
HETATM    7  C   UNL     1      -9.786  13.716  64.878  1.00  0.00     0.143 A  
HETATM    8  C   UNL     1     -10.661  13.687  63.782  1.00  0.00     0.524 A  
ENDROOT
BRANCH   6   9
HETATM    9  C   UNL     1      -8.899  14.774  66.992  1.00  0.00    -0.237 A  
HETATM   10  C   UNL     1      -7.976  13.870  67.540  1.00  0.00    -0.190 A  
HETATM   11  C   UNL     1      -5.356  14.818  70.226  1.00  0.00    -0.115 A  
HETATM   12  C   UNL     1      -7.128  14.497  68.554  1.00  0.00    -0.114 A  
HETATM   13  O   UNL     1      -5.139  16.851  71.389  1.00  0.00    -0.360 OA 
HETATM   14  C   UNL     1      -7.514  15.812  68.801  1.00  0.00    -0.158 A  
HETATM   15  H   UNL     1      -4.408  16.489  71.876  1.00  0.00     0.000 HD 
HETATM   16  C   UNL     1      -5.997  14.017  69.276  1.00  0.00    -0.095 A  
HETATM   17  S   UNL     1      -8.835  16.275  67.835  1.00  0.00    -0.184 SA 
HETATM   18  C   UNL     1      -6.863  16.635  69.741  1.00  0.00     0.083 A  
HETATM   19  C   UNL     1      -5.794  16.108  70.452  1.00  0.00    -0.059 A  
BRANCH  10  20
HETATM   20  C   UNL     1      -7.794  12.509  67.030  1.00  0.00    -0.062 C  
HETATM   21  O   UNL     1      -6.856  12.254  66.274  1.00  0.00     0.469 OA 
BRANCH  20  22
HETATM   22  C   UNL     1      -8.709  11.380  67.386  1.00  0.00    -0.145 A  
HETATM   23  C   UNL     1     -10.146   9.013  68.014  1.00  0.00    -0.190 A  
HETATM   24  C   UNL     1     -10.753  10.037  67.280  1.00  0.00    -0.309 A  
HETATM   25  C   UNL     1      -8.127  10.360  68.143  1.00  0.00    -0.111 A  
HETATM   26  C   UNL     1     -10.039  11.218  66.963  1.00  0.00    -0.238 A  
HETATM   27  C   UNL     1      -8.825   9.186  68.427  1.00  0.00    -0.129 A  
BRANCH  23  28
HETATM   28  O   UNL     1     -10.896   7.878  68.298  1.00  0.00    -0.076 OA 
BRANCH  28  29
HETATM   29  C   UNL     1     -10.791   6.900  67.249  1.00  0.00    -0.356 C  
BRANCH  29  30
HETATM   30  C   UNL     1      -9.651   7.068  66.227  1.00  0.00    -0.031 C  
BRANCH  30  31
HETATM   31  N   UNL     1      -8.807   5.840  66.171  1.00  0.00    -0.141 NA 
HETATM   32  C   UNL     1      -9.532   4.617  65.782  1.00  0.00    -0.173 C  
HETATM   33  C   UNL     1     -10.104   4.719  64.372  1.00  0.00     0.357 C  
HETATM   34  C   UNL     1      -8.964   4.890  63.374  1.00  0.00    -0.025 C  
HETATM   35  C   UNL     1      -7.979   5.988  63.790  1.00  0.00    -0.112 C  
HETATM   36  C   UNL     1      -7.641   5.987  65.288  1.00  0.00    -0.088 C  
ENDBRANCH  30  31
ENDBRANCH  29  30
ENDBRANCH  28  29
ENDBRANCH  23  28
ENDBRANCH  20  22
ENDBRANCH  10  20
ENDBRANCH   6   9
TORSDOF 7
ENDMDL
MODEL      227
REMARK 921   NORMALIZED FREE ENERGY PREDICTED BY IDOCK:   -0.60 KCAL/MOL
REMARK 922        TOTAL FREE ENERGY PREDICTED BY IDOCK:   -2.92 KCAL/MOL
REMARK 923 INTER-LIGAND FREE ENERGY PREDICTED BY IDOCK:   -2.71 KCAL/MOL
REMARK 924 INTRA-LIGAND FREE ENERGY PREDICTED BY IDOCK:   -0.21 KCAL/MOL
REMARK 927      BINDING AFFINITY PREDICTED BY RF-SCORE:    0.00 PKD
ROOT
HETATM    1  O   UNL     1     -11.723   5.649  66.803  1.00  0.00     0.395 OA 
HETATM    2  H   UNL     1     -12.135   5.047  67.412  1.00  0.00     0.000 HD 
HETATM    3  C   UNL     1     -11.019   6.735  67.229  1.00  0.00    -0.363 A  
HETATM    4  C   UNL     1     -10.417   7.614  66.338  1.00  0.00     0.218 A  
HETATM    5  C   UNL     1      -9.651   8.686  66.824  1.00  0.00    -0.269 A  
HETATM    6  C   UNL     1      -9.492   8.905  68.203  1.00  0.00    -0.155 A  
HETATM    7  C   UNL     1     -10.171   8.030  69.073  1.00  0.00    -0.217 A  
HETATM    8  C   UNL     1     -10.915   6.943  68.590  1.00  0.00    -0.203 A  
ENDROOT
BRANCH   6   9
HETATM    9  C   UNL     1      -8.588   9.969  68.738  1.00  0.00    -0.131 A  
HETATM   10  C   UNL     1      -7.744  10.043  69.857  1.00  0.00    -0.183 A  
HETATM   11  C   UNL     1      -5.413  13.038  70.612  1.00  0.00    -0.169 A  
HETATM   12  C   UNL     1      -7.000  11.301  69.902  1.00  0.00     0.056 A  
HETATM   13  O   UNL     1      -5.290  15.101  69.489  1.00  0.00    -0.093 OA 
HETATM   14  C   UNL     1      -7.388  12.162  68.878  1.00  0.00    -0.054 A  
HETATM   15  H   UNL     1      -4.621  15.388  70.099  1.00  0.00     0.000 HD 
HETATM   16  C   UNL     1      -5.962  11.761  70.764  1.00  0.00     0.111 A  
HETATM   17  S   UNL     1      -8.590  11.469  67.893  1.00  0.00    -0.150 SA 
HETATM   18  C   UNL     1      -6.829  13.443  68.704  1.00  0.00    -0.098 A  
HETATM   19  C   UNL     1      -5.852  13.863  69.596  1.00  0.00    -0.107 A  
BRANCH  10  20
HETATM   20  C   UNL     1      -7.532   8.918  70.771  1.00  0.00    -0.099 C  
HETATM   21  O   UNL     1      -7.756   9.049  71.975  1.00  0.00    -0.348 OA 
BRANCH  20  22
HETATM   22  C   UNL     1      -7.046   7.580  70.311  1.00  0.00    -0.060 A  
HETATM   23  C   UNL     1      -5.899   5.046  69.739  1.00  0.00    -0.017 A  
HETATM   24  C   UNL     1      -6.204   5.935  68.704  1.00  0.00    -0.029 A  
HETATM   25  C   UNL     1      -6.761   6.668  71.330  1.00  0.00    -0.058 A  
HETATM   26  C   UNL     1      -6.775   7.200  68.985  1.00  0.00    -0.056 A  
HETATM   27  C   UNL     1      -6.172   5.434  71.051  1.00  0.00    -0.030 A  
BRANCH  23  28
HETATM   28  O   UNL     1      -5.343   3.817  69.403  1.00  0.00    -0.010 OA 
BRANCH  28  29
HETATM   29  C   UNL     1      -6.353   2.809  69.234  1.00  0.00    -0.029 C  
BRANCH  29  30
HETATM   30  C   UNL     1      -6.609   2.286  67.808  1.00  0.00    -0.035 C  
BRANCH  30  31
HETATM   31  N   UNL     1      -7.930   1.603  67.724  1.00  0.00    -0.058 NA 
HETATM   32  C   UNL     1      -8.801   1.806  68.897  1.00  0.00    -0.086 C  
HETATM   33  C   UNL     1      -9.172   3.274  69.080  1.00  0.00    -0.224 C  
HETATM   34  C   UNL     1      -9.955   3.754  67.864  1.00  0.00     0.133 C  
HETATM   35  C   UNL     1      -9.272   3.385  66.542  1.00  0.00    -0.178 C  
HETATM   36  C   UNL     1      -8.689   1.965  66.518  1.00  0.00    -0.116 C  
ENDBRANCH  30  31
ENDBRANCH  29  30
ENDBRANCH  28  29
ENDBRANCH  23  28
ENDBRANCH  20  22
ENDBRANCH  10  20
ENDBRANCH   6   9
TORSDOF 7
ENDMDL
MODEL      228
REMARK 921   NORMALIZED FREE ENERGY PREDICTED BY IDOCK:   -0.58 KCAL/MOL
REMARK 922        TOTAL FREE ENERGY PREDICTED BY IDOCK:   -2.90 KCAL/MOL
REMARK 923 INTER-LIGAND FREE ENERGY PREDICTED BY IDOCK:   -5.20 KCAL/MOL
REMARK 924 INTRA-LIGAND FREE ENERGY PREDICTED BY IDOCK:    2.30 KCAL/MOL
REMARK 927      BINDING AFFINITY PREDICTED BY RF-SCORE:    0.00 PKD
ROOT
HETATM    1  O   UNL     1     -13.118  15.155  70.405  1.00  0.00    -0.617 OA 
HETATM    2  H   UNL     1     -13.977  15.200  70.808  1.00  0.00     0.000 HD 
HETATM    3  C   UNL     1     -12.436  13.981  70.297  1.00  0.00    -0.338 A  
HETATM    4  C   UNL     1     -11.181  13.914  69.707  1.00  0.00    -0.149 A  
HETATM    5  C   UNL     1     -10.540  12.672  69.563  1.00  0.00     0.381 A  
HETATM    6  C   UNL     1     -11.137  11.485  70.022  1.00  0.00     0.021 A  
HETATM    7  C   UNL     1     -12.381  11.602  70.671  1.00  0.00    -0.437 A  
HETATM    8  C   UNL     1     -13.034  12.838  70.792  1.00  0.00     0.007 A  
ENDROOT
BRANCH   6   9
HETATM    9  C   UNL     1     -10.526  10.143  69.774  1.00  0.00    -0.263 A  
HETATM   10  C   UNL     1     -10.418   9.328  68.636  1.00  0.00    -0.236 A  
HETATM   11  C   UNL     1      -8.471   5.986  68.547  1.00  0.00    -0.113 A  
HETATM   12  C   UNL     1      -9.649   8.113  68.900  1.00  0.00    -0.153 A  
HETATM   13  O   UNL     1      -7.474   4.838  70.341  1.00  0.00    -0.049 OA 
HETATM   14  C   UNL     1      -9.298   8.013  70.245  1.00  0.00    -0.159 A  
HETATM   15  H   UNL     1      -7.207   4.147  69.746  1.00  0.00     0.000 HD 
HETATM   16  C   UNL     1      -9.187   7.075  68.041  1.00  0.00    -0.129 A  
HETATM   17  S   UNL     1      -9.861   9.341  71.145  1.00  0.00    -0.227 SA 
HETATM   18  C   UNL     1      -8.561   6.930  70.763  1.00  0.00    -0.144 A  
HETATM   19  C   UNL     1      -8.171   5.921  69.893  1.00  0.00    -0.117 A  
BRANCH  10  20
HETATM   20  C   UNL     1     -10.892   9.742  67.313  1.00  0.00    -0.177 C  
HETATM   21  O   UNL     1     -11.371   8.910  66.542  1.00  0.00     1.052 OA 
BRANCH  20  22
HETATM   22  C   UNL     1     -10.827  11.157  66.833  1.00  0.00    -0.333 A  
HETATM   23  C   UNL     1     -10.472  13.905  66.213  1.00  0.00    -0.287 A  
HETATM   24  C   UNL     1     -11.718  13.294  66.038  1.00  0.00    -0.408 A  
HETATM   25  C   UNL     1      -9.582  11.776  66.975  1.00  0.00    -0.196 A  
HETATM   26  C   UNL     1     -11.899  11.925  66.348  1.00  0.00    -0.115 A  
HETATM   27  C   UNL     1      -9.416  13.133  66.696  1.00  0.00    -0.260 A  
BRANCH  23  28
HETATM   28  O   UNL     1     -10.353  15.252  65.890  1.00  0.00    -0.288 OA 
BRANCH  28  29
HETATM   29  C   UNL     1      -9.796  16.008  66.978  1.00  0.00    -0.236 C  
BRANCH  29  30
HETATM   30  C   UNL     1      -8.304  15.805  67.299  1.00  0.00    -0.188 C  
BRANCH  30  31
HETATM   31  N   UNL     1      -7.702  17.060  67.831  1.00  0.00    -0.172 NA 
HETATM   32  C   UNL     1      -7.924  18.251  66.990  1.00  0.00    -0.225 C  
HETATM   33  C   UNL     1      -9.406  18.591  66.869  1.00  0.00    -0.294 C  
HETATM   34  C   UNL     1      -9.964  18.919  68.249  1.00  0.00    -0.431 C  
HETATM   35  C   UNL     1      -9.591  17.865  69.299  1.00  0.00     0.065 C  
HETATM   36  C   UNL     1      -8.141  17.372  69.199  1.00  0.00     0.012 C  
ENDBRANCH  30  31
ENDBRANCH  29  30
ENDBRANCH  28  29
ENDBRANCH  23  28
ENDBRANCH  20  22
ENDBRANCH  10  20
ENDBRANCH   6   9
TORSDOF 7
ENDMDL
MODEL      229
REMARK 921   NORMALIZED FREE ENERGY PREDICTED BY IDOCK:   -0.15 KCAL/MOL
REMARK 922        TOTAL FREE ENERGY PREDICTED BY IDOCK:   -2.29 KCAL/MOL
REMARK 923 INTER-LIGAND FREE ENERGY PREDICTED BY IDOCK:   -1.42 KCAL/MOL
REMARK 924 INTRA-LIGAND FREE ENERGY PREDICTED BY IDOCK:   -0.87 KCAL/MOL
REMARK 927      BINDING AFFINITY PREDICTED BY RF-SCORE:    0.00 PKD
ROOT
HETATM    1  O   UNL     1      -7.069  21.257  63.819  1.00  0.00    -0.368 OA 
HETATM    2  H   UNL     1      -6.254  21.559  63.437  1.00  0.00     0.000 HD 
HETATM    3  C   UNL     1      -7.101  20.287  64.775  1.00  0.00     0.122 A  
HETATM    4  C   UNL     1      -8.293  19.847  65.333  1.00  0.00     0.533 A  
HETATM    5  C   UNL     1      -8.273  18.887  66.359  1.00  0.00    -0.306 A  
HETATM    6  C   UNL     1      -7.064  18.343  66.826  1.00  0.00    -0.228 A  
HETATM    7  C   UNL     1      -5.881  18.768  66.191  1.00  0.00    -0.191 A  
HETATM    8  C   UNL     1      -5.898  19.746  65.185  1.00  0.00    -0.238 A  
ENDROOT
BRANCH   6   9
HETATM    9  C   UNL     1      -7.014  17.410  67.994  1.00  0.00    -0.186 A  
HETATM   10  C   UNL     1      -7.989  16.669  68.679  1.00  0.00    -0.236 A  
HETATM   11  C   UNL     1      -7.203  14.187  71.541  1.00  0.00     2.957 A  
HETATM   12  C   UNL     1      -7.408  15.834  69.730  1.00  0.00    -0.016 A  
HETATM   13  O   UNL     1      -5.140  13.797  72.600  1.00  0.00    -0.172 OA 
HETATM   14  C   UNL     1      -6.040  16.058  69.862  1.00  0.00    -0.166 A  
HETATM   15  H   UNL     1      -5.558  13.166  73.174  1.00  0.00     0.000 HD 
HETATM   16  C   UNL     1      -7.979  14.847  70.584  1.00  0.00     1.496 A  
HETATM   17  S   UNL     1      -5.478  17.215  68.749  1.00  0.00    -0.141 SA 
HETATM   18  C   UNL     1      -5.244  15.385  70.811  1.00  0.00    -0.142 A  
HETATM   19  C   UNL     1      -5.855  14.463  71.649  1.00  0.00    -0.046 A  
BRANCH  10  20
HETATM   20  C   UNL     1      -9.394  16.631  68.268  1.00  0.00    -0.224 C  
HETATM   21  O   UNL     1     -10.068  17.662  68.276  1.00  0.00    -0.319 OA 
BRANCH  20  22
HETATM   22  C   UNL     1     -10.077  15.376  67.824  1.00  0.00    -0.227 A  
HETATM   23  C   UNL     1     -11.287  13.101  66.630  1.00  0.00    -0.325 A  
HETATM   24  C   UNL     1     -11.866  13.706  67.751  1.00  0.00    -0.403 A  
HETATM   25  C   UNL     1      -9.497  14.742  66.722  1.00  0.00    -0.271 A  
HETATM   26  C   UNL     1     -11.266  14.841  68.347  1.00  0.00    -0.298 A  
HETATM   27  C   UNL     1     -10.107  13.641  66.119  1.00  0.00    -0.311 A  
BRANCH  23  28
HETATM   28  O   UNL     1     -11.919  11.988  66.088  1.00  0.00    -0.581 OA 
BRANCH  28  29
HETATM   29  C   UNL     1     -10.990  11.139  65.394  1.00  0.00    -0.081 C  
BRANCH  29  30
HETATM   30  C   UNL     1     -10.326  10.002  66.193  1.00  0.00    -0.155 C  
BRANCH  30  31
HETATM   31  N   UNL     1      -9.444  10.552  67.261  1.00  0.00    -0.157 NA 
HETATM   32  C   UNL     1      -9.947  10.356  68.632  1.00  0.00    -0.177 C  
HETATM   33  C   UNL     1     -10.058   8.878  68.990  1.00  0.00    -0.205 C  
HETATM   34  C   UNL     1      -8.675   8.238  68.935  1.00  0.00    -0.137 C  
HETATM   35  C   UNL     1      -7.926   8.570  67.639  1.00  0.00    -0.107 C  
HETATM   36  C   UNL     1      -8.070  10.032  67.194  1.00  0.00    -0.117 C  
ENDBRANCH  30  31
ENDBRANCH  29  30
ENDBRANCH  28  29
ENDBRANCH  23  28
ENDBRANCH  20  22
ENDBRANCH  10  20
ENDBRANCH   6   9
TORSDOF 7
ENDMDL
MODEL      230
REMARK 921   NORMALIZED FREE ENERGY PREDICTED BY IDOCK:    0.09 KCAL/MOL
REMARK 922        TOTAL FREE ENERGY PREDICTED BY IDOCK:   -1.96 KCAL/MOL
REMARK 923 INTER-LIGAND FREE ENERGY PREDICTED BY IDOCK:   -0.55 KCAL/MOL
REMARK 924 INTRA-LIGAND FREE ENERGY PREDICTED BY IDOCK:   -1.41 KCAL/MOL
REMARK 927      BINDING AFFINITY PREDICTED BY RF-SCORE:    0.00 PKD
ROOT
HETATM    1  O   UNL     1      -7.071  21.268  63.813  1.00  0.00    -0.368 OA 
HETATM    2  H   UNL     1      -6.254  21.595  63.454  1.00  0.00     0.000 HD 
HETATM    3  C   UNL     1      -7.100  20.284  64.755  1.00  0.00     0.122 A  
HETATM    4  C   UNL     1      -8.293  19.807  65.281  1.00  0.00     0.854 A  
HETATM    5  C   UNL     1      -8.272  18.835  66.294  1.00  0.00    -0.270 A  
HETATM    6  C   UNL     1      -7.061  18.314  66.782  1.00  0.00    -0.232 A  
HETATM    7  C   UNL     1      -5.875  18.777  66.180  1.00  0.00    -0.191 A  
HETATM    8  C   UNL     1      -5.893  19.767  65.186  1.00  0.00    -0.238 A  
ENDROOT
BRANCH   6   9
HETATM    9  C   UNL     1      -7.014  17.367  67.938  1.00  0.00    -0.175 A  
HETATM   10  C   UNL     1      -7.966  16.527  68.536  1.00  0.00    -0.216 A  
HETATM   11  C   UNL     1      -7.176  14.071  71.420  1.00  0.00     2.947 A  
HETATM   12  C   UNL     1      -7.393  15.728  69.619  1.00  0.00    -0.118 A  
HETATM   13  O   UNL     1      -5.172  13.850  72.631  1.00  0.00    -0.188 OA 
HETATM   14  C   UNL     1      -6.065  16.073  69.860  1.00  0.00    -0.166 A  
HETATM   15  H   UNL     1      -5.573  13.173  73.163  1.00  0.00     0.000 HD 
HETATM   16  C   UNL     1      -7.934  14.676  70.413  1.00  0.00     1.167 A  
HETATM   17  S   UNL     1      -5.529  17.298  68.808  1.00  0.00    -0.150 SA 
HETATM   18  C   UNL     1      -5.285  15.457  70.859  1.00  0.00    -0.139 A  
HETATM   19  C   UNL     1      -5.871  14.467  71.636  1.00  0.00    -0.046 A  
BRANCH  10  20
HETATM   20  C   UNL     1      -9.327  16.369  68.017  1.00  0.00    -0.216 C  
HETATM   21  O   UNL     1     -10.178  17.229  68.246  1.00  0.00    -0.307 OA 
BRANCH  20  22
HETATM   22  C   UNL     1      -9.752  15.191  67.199  1.00  0.00    -0.230 A  
HETATM   23  C   UNL     1     -10.605  13.198  65.365  1.00  0.00    -0.299 A  
HETATM   24  C   UNL     1     -10.993  13.138  66.707  1.00  0.00    -0.298 A  
HETATM   25  C   UNL     1      -9.350  15.220  65.861  1.00  0.00    -0.308 A  
HETATM   26  C   UNL     1     -10.571  14.131  67.624  1.00  0.00    -0.253 A  
HETATM   27  C   UNL     1      -9.793  14.255  64.954  1.00  0.00     0.037 A  
BRANCH  23  28
HETATM   28  O   UNL     1     -11.048  12.195  64.511  1.00  0.00    -0.300 OA 
BRANCH  28  29
HETATM   29  C   UNL     1     -10.326  12.204  63.267  1.00  0.00    -0.311 C  
BRANCH  29  30
HETATM   30  C   UNL     1      -9.207  11.163  63.083  1.00  0.00    -0.289 C  
BRANCH  30  31
HETATM   31  N   UNL     1      -9.097  10.287  64.284  1.00  0.00    -0.221 NA 
HETATM   32  C   UNL     1      -9.033   8.844  63.987  1.00  0.00     0.201 C  
HETATM   33  C   UNL     1      -7.794   8.487  63.172  1.00  0.00    -0.149 C  
HETATM   34  C   UNL     1      -6.545   8.825  63.978  1.00  0.00    -0.079 C  
HETATM   35  C   UNL     1      -6.589  10.240  64.564  1.00  0.00    -0.084 C  
HETATM   36  C   UNL     1      -7.955  10.633  65.143  1.00  0.00    -0.036 C  
ENDBRANCH  30  31
ENDBRANCH  29  30
ENDBRANCH  28  29
ENDBRANCH  23  28
ENDBRANCH  20  22
ENDBRANCH  10  20
ENDBRANCH   6   9
TORSDOF 7
ENDMDL
MODEL      231
REMARK 921   NORMALIZED FREE ENERGY PREDICTED BY IDOCK:    0.36 KCAL/MOL
REMARK 922        TOTAL FREE ENERGY PREDICTED BY IDOCK:   -1.57 KCAL/MOL
REMARK 923 INTER-LIGAND FREE ENERGY PREDICTED BY IDOCK:   -2.80 KCAL/MOL
REMARK 924 INTRA-LIGAND FREE ENERGY PREDICTED BY IDOCK:    1.23 KCAL/MOL
REMARK 927      BINDING AFFINITY PREDICTED BY RF-SCORE:    0.00 PKD
ROOT
HETATM    1  O   UNL     1      -7.085  16.682  70.290  1.00  0.00     0.712 OA 
HETATM    2  H   UNL     1      -6.679  16.902  71.120  1.00  0.00     0.000 HD 
HETATM    3  C   UNL     1      -6.817  15.512  69.646  1.00  0.00    -0.178 A  
HETATM    4  C   UNL     1      -7.411  15.189  68.433  1.00  0.00    -0.115 A  
HETATM    5  C   UNL     1      -7.151  13.945  67.835  1.00  0.00    -0.168 A  
HETATM    6  C   UNL     1      -6.280  13.016  68.431  1.00  0.00    -0.081 A  
HETATM    7  C   UNL     1      -5.648  13.406  69.628  1.00  0.00    -0.098 A  
HETATM    8  C   UNL     1      -5.928  14.637  70.240  1.00  0.00    -0.159 A  
ENDROOT
BRANCH   6   9
HETATM    9  C   UNL     1      -6.081  11.644  67.872  1.00  0.00    -0.050 A  
HETATM   10  C   UNL     1      -6.083  10.361  68.442  1.00  0.00    -0.044 A  
HETATM   11  C   UNL     1      -5.739   7.090  66.403  1.00  0.00    -0.030 A  
HETATM   12  C   UNL     1      -5.908   9.313  67.437  1.00  0.00    -0.046 A  
HETATM   13  O   UNL     1      -5.272   6.850  64.110  1.00  0.00    -0.026 OA 
HETATM   14  C   UNL     1      -5.678   9.850  66.172  1.00  0.00    -0.058 A  
HETATM   15  H   UNL     1      -5.286   5.906  64.211  1.00  0.00     0.000 HD 
HETATM   16  C   UNL     1      -5.964   7.892  67.526  1.00  0.00    -0.046 A  
HETATM   17  S   UNL     1      -5.692  11.551  66.197  1.00  0.00     0.303 SA 
HETATM   18  C   UNL     1      -5.468   9.053  65.030  1.00  0.00    -0.042 A  
HETATM   19  C   UNL     1      -5.489   7.673  65.176  1.00  0.00    -0.033 A  
BRANCH  10  20
HETATM   20  C   UNL     1      -6.386  10.117  69.854  1.00  0.00    -0.074 C  
HETATM   21  O   UNL     1      -5.689  10.627  70.731  1.00  0.00    -0.104 OA 
BRANCH  20  22
HETATM   22  C   UNL     1      -7.529   9.262  70.303  1.00  0.00    -0.113 A  
HETATM   23  C   UNL     1      -9.912   7.855  70.936  1.00  0.00    -0.182 A  
HETATM   24  C   UNL     1      -8.941   8.080  71.916  1.00  0.00    -0.200 A  
HETATM   25  C   UNL     1      -8.496   9.003  69.329  1.00  0.00    -0.128 A  
HETATM   26  C   UNL     1      -7.752   8.783  71.604  1.00  0.00    -0.117 A  
HETATM   27  C   UNL     1      -9.680   8.336  69.648  1.00  0.00    -0.173 A  
BRANCH  23  28
HETATM   28  O   UNL     1     -11.058   7.157  71.299  1.00  0.00    -0.242 OA 
BRANCH  28  29
HETATM   29  C   UNL     1     -11.517   6.305  70.236  1.00  0.00    -0.358 C  
BRANCH  29  30
HETATM   30  C   UNL     1     -10.459   5.722  69.281  1.00  0.00    -0.287 C  
BRANCH  30  31
HETATM   31  N   UNL     1      -9.587   4.744  69.992  1.00  0.00    -0.170 NA 
HETATM   32  C   UNL     1      -9.184   3.580  69.182  1.00  0.00    -0.158 C  
HETATM   33  C   UNL     1      -8.345   3.991  67.976  1.00  0.00    -0.099 C  
HETATM   34  C   UNL     1      -7.061   4.657  68.456  1.00  0.00    -0.057 C  
HETATM   35  C   UNL     1      -7.320   5.743  69.507  1.00  0.00    -0.071 C  
HETATM   36  C   UNL     1      -8.375   5.358  70.554  1.00  0.00    -0.111 C  
ENDBRANCH  30  31
ENDBRANCH  29  30
ENDBRANCH  28  29
ENDBRANCH  23  28
ENDBRANCH  20  22
ENDBRANCH  10  20
ENDBRANCH   6   9
TORSDOF 7
ENDMDL
MODEL      232
REMARK 921   NORMALIZED FREE ENERGY PREDICTED BY IDOCK:    0.94 KCAL/MOL
REMARK 922        TOTAL FREE ENERGY PREDICTED BY IDOCK:   -0.76 KCAL/MOL
REMARK 923 INTER-LIGAND FREE ENERGY PREDICTED BY IDOCK:   -2.97 KCAL/MOL
REMARK 924 INTRA-LIGAND FREE ENERGY PREDICTED BY IDOCK:    2.22 KCAL/MOL
REMARK 927      BINDING AFFINITY PREDICTED BY RF-SCORE:    0.00 PKD
ROOT
HETATM    1  O   UNL     1      -5.219  16.591  67.074  1.00  0.00    -0.255 OA 
HETATM    2  H   UNL     1      -5.586  17.424  67.345  1.00  0.00     0.000 HD 
HETATM    3  C   UNL     1      -5.693  15.407  67.552  1.00  0.00     0.003 A  
HETATM    4  C   UNL     1      -5.157  14.189  67.156  1.00  0.00     0.879 A  
HETATM    5  C   UNL     1      -5.717  12.991  67.628  1.00  0.00    -0.118 A  
HETATM    6  C   UNL     1      -6.806  12.994  68.517  1.00  0.00    -0.095 A  
HETATM    7  C   UNL     1      -7.281  14.249  68.945  1.00  0.00    -0.125 A  
HETATM    8  C   UNL     1      -6.740  15.447  68.453  1.00  0.00    -0.116 A  
ENDROOT
BRANCH   6   9
HETATM    9  C   UNL     1      -7.489  11.732  68.939  1.00  0.00    -0.080 A  
HETATM   10  C   UNL     1      -8.654  11.077  68.510  1.00  0.00    -0.158 A  
HETATM   11  C   UNL     1      -9.817   7.639  69.850  1.00  0.00    -0.184 A  
HETATM   12  C   UNL     1      -8.860   9.809  69.208  1.00  0.00    -0.171 A  
HETATM   13  O   UNL     1      -8.906   6.386  71.620  1.00  0.00    -0.136 OA 
HETATM   14  C   UNL     1      -7.904   9.611  70.201  1.00  0.00    -0.174 A  
HETATM   15  H   UNL     1      -9.576   5.725  71.491  1.00  0.00     0.000 HD 
HETATM   16  C   UNL     1      -9.816   8.768  69.026  1.00  0.00    -0.183 A  
HETATM   17  S   UNL     1      -6.793  10.897  70.274  1.00  0.00     0.314 SA 
HETATM   18  C   UNL     1      -7.884   8.468  71.025  1.00  0.00    -0.122 A  
HETATM   19  C   UNL     1      -8.863   7.502  70.838  1.00  0.00    -0.144 A  
BRANCH  10  20
HETATM   20  C   UNL     1      -9.465  11.549  67.385  1.00  0.00    -0.165 C  
HETATM   21  O   UNL     1      -9.735  10.786  66.456  1.00  0.00    -0.186 OA 
BRANCH  20  22
HETATM   22  C   UNL     1     -10.001  12.943  67.299  1.00  0.00    -0.224 A  
HETATM   23  C   UNL     1     -11.100  15.553  67.501  1.00  0.00    -0.305 A  
HETATM   24  C   UNL     1     -11.306  14.784  66.351  1.00  0.00    -0.339 A  
HETATM   25  C   UNL     1      -9.781  13.735  68.428  1.00  0.00    -0.219 A  
HETATM   26  C   UNL     1     -10.761  13.482  66.248  1.00  0.00    -0.288 A  
HETATM   27  C   UNL     1     -10.344  15.007  68.538  1.00  0.00    -0.230 A  
BRANCH  23  28
HETATM   28  O   UNL     1     -11.657  16.826  67.546  1.00  0.00     0.241 OA 
BRANCH  28  29
HETATM   29  C   UNL     1     -11.170  17.577  68.670  1.00  0.00     0.479 C  
BRANCH  29  30
HETATM   30  C   UNL     1      -9.646  17.629  68.888  1.00  0.00    -0.217 C  
BRANCH  30  31
HETATM   31  N   UNL     1      -9.087  18.923  68.406  1.00  0.00    -0.331 NA 
HETATM   32  C   UNL     1      -7.778  18.815  67.736  1.00  0.00    -0.237 C  
HETATM   33  C   UNL     1      -7.858  17.969  66.469  1.00  0.00    -0.292 C  
HETATM   34  C   UNL     1      -8.805  18.633  65.476  1.00  0.00     1.053 C  
HETATM   35  C   UNL     1     -10.141  19.030  66.114  1.00  0.00    -0.462 C  
HETATM   36  C   UNL     1     -10.005  19.647  67.513  1.00  0.00    -0.388 C  
ENDBRANCH  30  31
ENDBRANCH  29  30
ENDBRANCH  28  29
ENDBRANCH  23  28
ENDBRANCH  20  22
ENDBRANCH  10  20
ENDBRANCH   6   9
TORSDOF 7
ENDMDL
MODEL      233
REMARK 921   NORMALIZED FREE ENERGY PREDICTED BY IDOCK:    1.04 KCAL/MOL
REMARK 922        TOTAL FREE ENERGY PREDICTED BY IDOCK:   -0.62 KCAL/MOL
REMARK 923 INTER-LIGAND FREE ENERGY PREDICTED BY IDOCK:   -3.77 KCAL/MOL
REMARK 924 INTRA-LIGAND FREE ENERGY PREDICTED BY IDOCK:    3.16 KCAL/MOL
REMARK 927      BINDING AFFINITY PREDICTED BY RF-SCORE:    0.00 PKD
ROOT
HETATM    1  O   UNL     1     -11.308  12.741  66.390  1.00  0.00    -0.292 OA 
HETATM    2  H   UNL     1     -11.162  13.087  65.517  1.00  0.00     0.000 HD 
HETATM    3  C   UNL     1     -10.732  11.580  66.808  1.00  0.00    -0.270 A  
HETATM    4  C   UNL     1     -10.945  11.073  68.083  1.00  0.00    -0.301 A  
HETATM    5  C   UNL     1     -10.282   9.904  68.492  1.00  0.00    -0.199 A  
HETATM    6  C   UNL     1      -9.414   9.217  67.627  1.00  0.00    -0.164 A  
HETATM    7  C   UNL     1      -9.273   9.726  66.321  1.00  0.00    -0.207 A  
HETATM    8  C   UNL     1      -9.914  10.908  65.920  1.00  0.00    -0.294 A  
ENDROOT
BRANCH   6   9
HETATM    9  C   UNL     1      -8.611   8.040  68.080  1.00  0.00    -0.129 A  
HETATM   10  C   UNL     1      -7.279   7.884  68.496  1.00  0.00    -0.085 A  
HETATM   11  C   UNL     1      -5.801   4.557  69.808  1.00  0.00    -0.017 A  
HETATM   12  C   UNL     1      -6.991   6.512  68.915  1.00  0.00    -0.079 A  
HETATM   13  O   UNL     1      -6.814   2.435  69.852  1.00  0.00    -0.033 OA 
HETATM   14  C   UNL     1      -8.082   5.672  68.699  1.00  0.00    -0.100 A  
HETATM   15  H   UNL     1      -6.020   2.068  70.222  1.00  0.00     0.000 HD 
HETATM   16  C   UNL     1      -5.840   5.923  69.513  1.00  0.00    -0.020 A  
HETATM   17  S   UNL     1      -9.404   6.512  68.036  1.00  0.00    -0.106 SA 
HETATM   18  C   UNL     1      -8.060   4.298  69.010  1.00  0.00    -0.073 A  
HETATM   19  C   UNL     1      -6.900   3.762  69.551  1.00  0.00    -0.041 A  
BRANCH  10  20
HETATM   20  C   UNL     1      -6.352   9.008  68.638  1.00  0.00    -0.053 C  
HETATM   21  O   UNL     1      -5.143   8.801  68.752  1.00  0.00    -0.032 OA 
BRANCH  20  22
HETATM   22  C   UNL     1      -6.803  10.435  68.650  1.00  0.00    -0.058 A  
HETATM   23  C   UNL     1      -7.512  13.165  68.326  1.00  0.00    -0.129 A  
HETATM   24  C   UNL     1      -7.073  12.689  69.566  1.00  0.00     0.274 A  
HETATM   25  C   UNL     1      -7.270  10.921  67.426  1.00  0.00    -0.094 A  
HETATM   26  C   UNL     1      -6.717  11.329  69.730  1.00  0.00    -0.099 A  
HETATM   27  C   UNL     1      -7.592  12.269  67.261  1.00  0.00    -0.152 A  
BRANCH  23  28
HETATM   28  O   UNL     1      -7.850  14.510  68.224  1.00  0.00    -0.116 OA 
BRANCH  28  29
HETATM   29  C   UNL     1      -8.115  15.087  69.514  1.00  0.00    -0.122 C  
BRANCH  29  30
HETATM   30  C   UNL     1      -7.571  16.501  69.789  1.00  0.00     0.498 C  
BRANCH  30  31
HETATM   31  N   UNL     1      -6.334  16.754  68.997  1.00  0.00    -0.175 NA 
HETATM   32  C   UNL     1      -6.548  16.857  67.542  1.00  0.00    -0.144 C  
HETATM   33  C   UNL     1      -7.447  18.035  67.183  1.00  0.00    -0.221 C  
HETATM   34  C   UNL     1      -6.778  19.334  67.621  1.00  0.00    -0.238 C  
HETATM   35  C   UNL     1      -6.277  19.277  69.068  1.00  0.00    -0.291 C  
HETATM   36  C   UNL     1      -5.603  17.950  69.443  1.00  0.00    -0.209 C  
ENDBRANCH  30  31
ENDBRANCH  29  30
ENDBRANCH  28  29
ENDBRANCH  23  28
ENDBRANCH  20  22
ENDBRANCH  10  20
ENDBRANCH   6   9
TORSDOF 7
ENDMDL
MODEL      234
REMARK 921   NORMALIZED FREE ENERGY PREDICTED BY IDOCK:    1.38 KCAL/MOL
REMARK 922        TOTAL FREE ENERGY PREDICTED BY IDOCK:   -0.14 KCAL/MOL
REMARK 923 INTER-LIGAND FREE ENERGY PREDICTED BY IDOCK:    0.24 KCAL/MOL
REMARK 924 INTRA-LIGAND FREE ENERGY PREDICTED BY IDOCK:   -0.38 KCAL/MOL
REMARK 927      BINDING AFFINITY PREDICTED BY RF-SCORE:    0.00 PKD
ROOT
HETATM    1  O   UNL     1      -5.125  14.292  73.566  1.00  0.00    -0.307 OA 
HETATM    2  H   UNL     1      -5.128  15.189  73.876  1.00  0.00     0.000 HD 
HETATM    3  C   UNL     1      -5.781  13.920  72.431  1.00  0.00     0.034 A  
HETATM    4  C   UNL     1      -5.776  12.608  71.978  1.00  0.00     0.872 A  
HETATM    5  C   UNL     1      -6.416  12.282  70.771  1.00  0.00     1.143 A  
HETATM    6  C   UNL     1      -7.084  13.258  70.012  1.00  0.00     0.747 A  
HETATM    7  C   UNL     1      -7.121  14.565  70.537  1.00  0.00     0.489 A  
HETATM    8  C   UNL     1      -6.460  14.897  71.729  1.00  0.00     1.007 A  
ENDROOT
BRANCH   6   9
HETATM    9  C   UNL     1      -7.670  12.956  68.669  1.00  0.00    -0.067 A  
HETATM   10  C   UNL     1      -7.574  11.857  67.801  1.00  0.00    -0.130 A  
HETATM   11  C   UNL     1      -9.553  11.538  64.492  1.00  0.00    -0.177 A  
HETATM   12  C   UNL     1      -8.412  12.019  66.614  1.00  0.00    -0.117 A  
HETATM   13  O   UNL     1     -10.913  13.151  63.452  1.00  0.00    -0.494 OA 
HETATM   14  C   UNL     1      -9.022  13.272  66.586  1.00  0.00    -0.126 A  
HETATM   15  H   UNL     1     -11.075  12.547  62.737  1.00  0.00     0.000 HD 
HETATM   16  C   UNL     1      -8.723  11.134  65.542  1.00  0.00    -0.098 A  
HETATM   17  S   UNL     1      -8.611  14.204  67.948  1.00  0.00    -0.191 SA 
HETATM   18  C   UNL     1      -9.875  13.683  65.543  1.00  0.00    -0.175 A  
HETATM   19  C   UNL     1     -10.113  12.800  64.499  1.00  0.00    -0.242 A  
BRANCH  10  20
HETATM   20  C   UNL     1      -6.839  10.636  68.140  1.00  0.00    -0.068 C  
HETATM   21  O   UNL     1      -5.625  10.682  68.343  1.00  0.00    -0.041 OA 
BRANCH  20  22
HETATM   22  C   UNL     1      -7.500   9.299  68.260  1.00  0.00    -0.079 A  
HETATM   23  C   UNL     1      -8.418   6.615  68.397  1.00  0.00    -0.125 A  
HETATM   24  C   UNL     1      -9.242   7.621  67.882  1.00  0.00    -0.139 A  
HETATM   25  C   UNL     1      -6.700   8.287  68.798  1.00  0.00    -0.058 A  
HETATM   26  C   UNL     1      -8.787   8.959  67.810  1.00  0.00    -0.136 A  
HETATM   27  C   UNL     1      -7.142   6.964  68.840  1.00  0.00    -0.089 A  
BRANCH  23  28
HETATM   28  O   UNL     1      -8.918   5.319  68.445  1.00  0.00    -0.107 OA 
BRANCH  28  29
HETATM   29  C   UNL     1     -10.055   5.225  69.320  1.00  0.00    -0.230 C  
BRANCH  29  30
HETATM   30  C   UNL     1      -9.801   5.328  70.836  1.00  0.00    -0.194 C  
BRANCH  30  31
HETATM   31  N   UNL     1      -8.581   4.563  71.220  1.00  0.00    -0.109 NA 
HETATM   32  C   UNL     1      -7.878   5.087  72.405  1.00  0.00    -0.100 C  
HETATM   33  C   UNL     1      -8.748   5.020  73.657  1.00  0.00    -0.106 C  
HETATM   34  C   UNL     1      -9.091   3.565  73.957  1.00  0.00    -0.096 C  
HETATM   35  C   UNL     1      -9.614   2.818  72.725  1.00  0.00    -0.163 C  
HETATM   36  C   UNL     1      -8.845   3.132  71.434  1.00  0.00    -0.085 C  
ENDBRANCH  30  31
ENDBRANCH  29  30
ENDBRANCH  28  29
ENDBRANCH  23  28
ENDBRANCH  20  22
ENDBRANCH  10  20
ENDBRANCH   6   9
TORSDOF 7
ENDMDL
MODEL      235
REMARK 921   NORMALIZED FREE ENERGY PREDICTED BY IDOCK:    1.79 KCAL/MOL
REMARK 922        TOTAL FREE ENERGY PREDICTED BY IDOCK:    0.44 KCAL/MOL
REMARK 923 INTER-LIGAND FREE ENERGY PREDICTED BY IDOCK:    1.70 KCAL/MOL
REMARK 924 INTRA-LIGAND FREE ENERGY PREDICTED BY IDOCK:   -1.26 KCAL/MOL
REMARK 927      BINDING AFFINITY PREDICTED BY RF-SCORE:    0.00 PKD
ROOT
HETATM    1  O   UNL     1      -6.377  17.323  69.619  1.00  0.00    -0.248 OA 
HETATM    2  H   UNL     1      -5.746  17.847  69.140  1.00  0.00     0.000 HD 
HETATM    3  C   UNL     1      -6.745  16.080  69.201  1.00  0.00    -0.174 A  
HETATM    4  C   UNL     1      -7.667  15.314  69.903  1.00  0.00     0.030 A  
HETATM    5  C   UNL     1      -7.972  14.014  69.468  1.00  0.00     0.488 A  
HETATM    6  C   UNL     1      -7.374  13.469  68.317  1.00  0.00    -0.116 A  
HETATM    7  C   UNL     1      -6.493  14.301  67.598  1.00  0.00    -0.151 A  
HETATM    8  C   UNL     1      -6.168  15.590  68.046  1.00  0.00    -0.153 A  
ENDROOT
BRANCH   6   9
HETATM    9  C   UNL     1      -7.596  12.049  67.905  1.00  0.00    -0.124 A  
HETATM   10  C   UNL     1      -8.611  11.403  67.183  1.00  0.00    -0.151 A  
HETATM   11  C   UNL     1      -8.517   7.661  66.200  1.00  0.00    -0.147 A  
HETATM   12  C   UNL     1      -8.323   9.983  66.980  1.00  0.00    -0.121 A  
HETATM   13  O   UNL     1      -6.953   6.028  66.849  1.00  0.00    -0.065 OA 
HETATM   14  C   UNL     1      -7.159   9.598  67.642  1.00  0.00    -0.088 A  
HETATM   15  H   UNL     1      -7.438   5.376  66.357  1.00  0.00     0.000 HD 
HETATM   16  C   UNL     1      -8.988   8.977  66.221  1.00  0.00    -0.199 A  
HETATM   17  S   UNL     1      -6.437  10.903  68.460  1.00  0.00    -0.055 SA 
HETATM   18  C   UNL     1      -6.665   8.279  67.613  1.00  0.00    -0.062 A  
HETATM   19  C   UNL     1      -7.372   7.325  66.895  1.00  0.00    -0.092 A  
BRANCH  10  20
HETATM   20  C   UNL     1      -9.738  12.117  66.578  1.00  0.00    -0.223 C  
HETATM   21  O   UNL     1     -10.156  11.784  65.469  1.00  0.00    -0.232 OA 
BRANCH  20  22
HETATM   22  C   UNL     1     -10.429  13.260  67.252  1.00  0.00    -0.247 A  
HETATM   23  C   UNL     1     -12.044  15.205  68.546  1.00  0.00    -0.114 A  
HETATM   24  C   UNL     1     -11.131  15.586  67.557  1.00  0.00    -0.305 A  
HETATM   25  C   UNL     1     -11.325  12.900  68.262  1.00  0.00    -0.326 A  
HETATM   26  C   UNL     1     -10.326  14.618  66.908  1.00  0.00    -0.264 A  
HETATM   27  C   UNL     1     -12.138  13.853  68.878  1.00  0.00    -0.355 A  
BRANCH  23  28
HETATM   28  O   UNL     1     -12.806  16.198  69.149  1.00  0.00     0.470 OA 
BRANCH  28  29
HETATM   29  C   UNL     1     -13.998  15.659  69.746  1.00  0.00     2.639 C  
BRANCH  29  30
HETATM   30  C   UNL     1     -14.051  15.572  71.283  1.00  0.00    -0.239 C  
BRANCH  30  31
HETATM   31  N   UNL     1     -12.694  15.320  71.845  1.00  0.00    -0.333 NA 
HETATM   32  C   UNL     1     -11.913  16.537  72.131  1.00  0.00    -0.250 C  
HETATM   33  C   UNL     1     -12.581  17.403  73.194  1.00  0.00     2.213 C  
HETATM   34  C   UNL     1     -12.672  16.622  74.500  1.00  0.00    -0.014 C  
HETATM   35  C   UNL     1     -13.251  15.216  74.305  1.00  0.00     1.104 C  
HETATM   36  C   UNL     1     -12.721  14.492  73.060  1.00  0.00    -0.396 C  
ENDBRANCH  30  31
ENDBRANCH  29  30
ENDBRANCH  28  29
ENDBRANCH  23  28
ENDBRANCH  20  22
ENDBRANCH  10  20
ENDBRANCH   6   9
TORSDOF 7
ENDMDL
MODEL      236
REMARK 921   NORMALIZED FREE ENERGY PREDICTED BY IDOCK:    2.22 KCAL/MOL
REMARK 922        TOTAL FREE ENERGY PREDICTED BY IDOCK:    1.05 KCAL/MOL
REMARK 923 INTER-LIGAND FREE ENERGY PREDICTED BY IDOCK:   -0.38 KCAL/MOL
REMARK 924 INTRA-LIGAND FREE ENERGY PREDICTED BY IDOCK:    1.43 KCAL/MOL
REMARK 927      BINDING AFFINITY PREDICTED BY RF-SCORE:    0.00 PKD
ROOT
HETATM    1  O   UNL     1      -7.599   5.626  71.510  1.00  0.00    -0.099 OA 
HETATM    2  H   UNL     1      -6.814   5.665  72.044  1.00  0.00     0.000 HD 
HETATM    3  C   UNL     1      -8.250   6.751  71.104  1.00  0.00    -0.119 A  
HETATM    4  C   UNL     1      -9.396   6.694  70.322  1.00  0.00    -0.160 A  
HETATM    5  C   UNL     1     -10.000   7.881  69.877  1.00  0.00    -0.192 A  
HETATM    6  C   UNL     1      -9.478   9.140  70.222  1.00  0.00    -0.253 A  
HETATM    7  C   UNL     1      -8.352   9.157  71.068  1.00  0.00    -0.205 A  
HETATM    8  C   UNL     1      -7.732   7.972  71.491  1.00  0.00    -0.098 A  
ENDROOT
BRANCH   6   9
HETATM    9  C   UNL     1     -10.036  10.410  69.663  1.00  0.00    -0.174 A  
HETATM   10  C   UNL     1      -9.767  11.153  68.503  1.00  0.00    -0.196 A  
HETATM   11  C   UNL     1     -11.746  14.307  67.449  1.00  0.00    -0.422 A  
HETATM   12  C   UNL     1     -10.653  12.309  68.373  1.00  0.00    -0.250 A  
HETATM   13  O   UNL     1     -13.401  15.455  68.663  1.00  0.00     1.466 OA 
HETATM   14  C   UNL     1     -11.479  12.448  69.486  1.00  0.00    -0.240 A  
HETATM   15  H   UNL     1     -13.472  16.088  67.958  1.00  0.00     0.000 HD 
HETATM   16  C   UNL     1     -10.829  13.259  67.325  1.00  0.00    -0.275 A  
HETATM   17  S   UNL     1     -11.206  11.221  70.632  1.00  0.00     0.893 SA 
HETATM   18  C   UNL     1     -12.420  13.489  69.614  1.00  0.00    -0.107 A  
HETATM   19  C   UNL     1     -12.523  14.415  68.585  1.00  0.00     0.173 A  
BRANCH  10  20
HETATM   20  C   UNL     1      -8.816  10.714  67.479  1.00  0.00    -0.132 C  
HETATM   21  O   UNL     1      -7.781  11.354  67.283  1.00  0.00    -0.130 OA 
BRANCH  20  22
HETATM   22  C   UNL     1      -9.034   9.498  66.636  1.00  0.00    -0.168 A  
HETATM   23  C   UNL     1      -9.274   7.000  65.308  1.00  0.00     0.586 A  
HETATM   24  C   UNL     1      -9.019   8.167  64.581  1.00  0.00     0.431 A  
HETATM   25  C   UNL     1      -9.317   8.327  67.343  1.00  0.00    -0.171 A  
HETATM   26  C   UNL     1      -8.897   9.414  65.240  1.00  0.00    -0.227 A  
HETATM   27  C   UNL     1      -9.407   7.096  66.693  1.00  0.00    -0.207 A  
BRANCH  23  28
HETATM   28  O   UNL     1      -9.386   5.805  64.608  1.00  0.00     0.383 OA 
BRANCH  28  29
HETATM   29  C   UNL     1      -8.678   4.739  65.264  1.00  0.00    -0.142 C  
BRANCH  29  30
HETATM   30  C   UNL     1      -8.937   3.302  64.776  1.00  0.00    -0.132 C  
BRANCH  30  31
HETATM   31  N   UNL     1      -7.721   2.458  64.950  1.00  0.00    -0.072 NA 
HETATM   32  C   UNL     1      -6.952   2.229  63.713  1.00  0.00    -0.036 C  
HETATM   33  C   UNL     1      -6.401   3.530  63.138  1.00  0.00    -0.022 C  
HETATM   34  C   UNL     1      -5.442   4.161  64.140  1.00  0.00    -0.013 C  
HETATM   35  C   UNL     1      -6.034   4.238  65.552  1.00  0.00    -0.023 C  
HETATM   36  C   UNL     1      -6.803   2.978  65.975  1.00  0.00    -0.048 C  
ENDBRANCH  30  31
ENDBRANCH  29  30
ENDBRANCH  28  29
ENDBRANCH  23  28
ENDBRANCH  20  22
ENDBRANCH  10  20
ENDBRANCH   6   9
TORSDOF 7
ENDMDL
MODEL      237
REMARK 921   NORMALIZED FREE ENERGY PREDICTED BY IDOCK:    2.30 KCAL/MOL
REMARK 922        TOTAL FREE ENERGY PREDICTED BY IDOCK:    1.16 KCAL/MOL
REMARK 923 INTER-LIGAND FREE ENERGY PREDICTED BY IDOCK:    0.88 KCAL/MOL
REMARK 924 INTRA-LIGAND FREE ENERGY PREDICTED BY IDOCK:    0.28 KCAL/MOL
REMARK 927      BINDING AFFINITY PREDICTED BY RF-SCORE:    0.00 PKD
ROOT
HETATM    1  O   UNL     1      -7.032  15.474  71.746  1.00  0.00     2.298 OA 
HETATM    2  H   UNL     1      -6.671  15.405  72.622  1.00  0.00     0.000 HD 
HETATM    3  C   UNL     1      -6.728  14.574  70.770  1.00  0.00     0.328 A  
HETATM    4  C   UNL     1      -7.255  14.675  69.490  1.00  0.00    -0.131 A  
HETATM    5  C   UNL     1      -6.961  13.690  68.532  1.00  0.00    -0.104 A  
HETATM    6  C   UNL     1      -6.124  12.603  68.836  1.00  0.00    -0.079 A  
HETATM    7  C   UNL     1      -5.557  12.570  70.125  1.00  0.00    -0.140 A  
HETATM    8  C   UNL     1      -5.871  13.539  71.091  1.00  0.00    -0.098 A  
ENDROOT
BRANCH   6   9
HETATM    9  C   UNL     1      -5.893  11.485  67.870  1.00  0.00    -0.045 A  
HETATM   10  C   UNL     1      -5.761  10.096  68.017  1.00  0.00    -0.038 A  
HETATM   11  C   UNL     1      -5.407   7.631  65.055  1.00  0.00    -0.029 A  
HETATM   12  C   UNL     1      -5.616   9.417  66.730  1.00  0.00    -0.047 A  
HETATM   13  O   UNL     1      -5.147   8.133  62.772  1.00  0.00    -0.053 OA 
HETATM   14  C   UNL     1      -5.542  10.328  65.678  1.00  0.00    -0.085 A  
HETATM   15  H   UNL     1      -5.093   7.205  62.578  1.00  0.00     0.000 HD 
HETATM   16  C   UNL     1      -5.575   8.036  66.383  1.00  0.00    -0.032 A  
HETATM   17  S   UNL     1      -5.660  11.934  66.224  1.00  0.00     0.754 SA 
HETATM   18  C   UNL     1      -5.392   9.931  64.334  1.00  0.00    -0.080 A  
HETATM   19  C   UNL     1      -5.313   8.575  64.051  1.00  0.00    -0.056 A  
BRANCH  10  20
HETATM   20  C   UNL     1      -5.912   9.413  69.305  1.00  0.00    -0.037 C  
HETATM   21  O   UNL     1      -5.684  10.017  70.354  1.00  0.00    -0.050 OA 
BRANCH  20  22
HETATM   22  C   UNL     1      -6.341   7.985  69.421  1.00  0.00    -0.035 A  
HETATM   23  C   UNL     1      -7.402   5.395  69.899  1.00  0.00    -0.065 A  
HETATM   24  C   UNL     1      -6.034   5.568  69.662  1.00  0.00    -0.017 A  
HETATM   25  C   UNL     1      -7.709   7.791  69.631  1.00  0.00    -0.101 A  
HETATM   26  C   UNL     1      -5.502   6.859  69.425  1.00  0.00    -0.015 A  
HETATM   27  C   UNL     1      -8.225   6.521  69.893  1.00  0.00    -0.126 A  
BRANCH  23  28
HETATM   28  O   UNL     1      -7.868   4.105  70.124  1.00  0.00    -0.051 OA 
BRANCH  28  29
HETATM   29  C   UNL     1      -9.085   3.850  69.401  1.00  0.00    -0.131 C  
BRANCH  29  30
HETATM   30  C   UNL     1      -9.019   2.870  68.215  1.00  0.00    -0.146 C  
BRANCH  30  31
HETATM   31  N   UNL     1      -7.974   3.291  67.239  1.00  0.00    -0.078 NA 
HETATM   32  C   UNL     1      -7.873   2.435  66.043  1.00  0.00    -0.081 C  
HETATM   33  C   UNL     1      -9.157   2.458  65.219  1.00  0.00    -0.123 C  
HETATM   34  C   UNL     1      -9.415   3.876  64.724  1.00  0.00    -0.169 C  
HETATM   35  C   UNL     1      -9.306   4.918  65.843  1.00  0.00    -0.162 C  
HETATM   36  C   UNL     1      -8.128   4.685  66.799  1.00  0.00    -0.103 C  
ENDBRANCH  30  31
ENDBRANCH  29  30
ENDBRANCH  28  29
ENDBRANCH  23  28
ENDBRANCH  20  22
ENDBRANCH  10  20
ENDBRANCH   6   9
TORSDOF 7
ENDMDL
MODEL      238
REMARK 921   NORMALIZED FREE ENERGY PREDICTED BY IDOCK:    3.06 KCAL/MOL
REMARK 922        TOTAL FREE ENERGY PREDICTED BY IDOCK:    2.23 KCAL/MOL
REMARK 923 INTER-LIGAND FREE ENERGY PREDICTED BY IDOCK:    1.58 KCAL/MOL
REMARK 924 INTRA-LIGAND FREE ENERGY PREDICTED BY IDOCK:    0.65 KCAL/MOL
REMARK 927      BINDING AFFINITY PREDICTED BY RF-SCORE:    0.00 PKD
ROOT
HETATM    1  O   UNL     1      -6.782  14.301  73.071  1.00  0.00     0.473 OA 
HETATM    2  H   UNL     1      -6.402  14.014  73.893  1.00  0.00     0.000 HD 
HETATM    3  C   UNL     1      -6.508  13.675  71.893  1.00  0.00     1.865 A  
HETATM    4  C   UNL     1      -7.064  14.096  70.692  1.00  0.00     0.887 A  
HETATM    5  C   UNL     1      -6.800  13.383  69.511  1.00  0.00     0.066 A  
HETATM    6  C   UNL     1      -5.964  12.253  69.511  1.00  0.00    -0.110 A  
HETATM    7  C   UNL     1      -5.368  11.897  70.737  1.00  0.00    -0.149 A  
HETATM    8  C   UNL     1      -5.652  12.592  71.922  1.00  0.00     0.539 A  
ENDROOT
BRANCH   6   9
HETATM    9  C   UNL     1      -5.764  11.414  68.290  1.00  0.00    -0.045 A  
HETATM   10  C   UNL     1      -5.632  10.033  68.081  1.00  0.00    -0.038 A  
HETATM   11  C   UNL     1      -5.370   8.391  64.587  1.00  0.00    -0.036 A  
HETATM   12  C   UNL     1      -5.526   9.699  66.661  1.00  0.00    -0.045 A  
HETATM   13  O   UNL     1      -5.171   9.450  62.496  1.00  0.00    -0.082 OA 
HETATM   14  C   UNL     1      -5.477  10.844  65.869  1.00  0.00    -0.147 A  
HETATM   15  H   UNL     1      -5.125   8.600  62.075  1.00  0.00     0.000 HD 
HETATM   16  C   UNL     1      -5.499   8.449  65.978  1.00  0.00    -0.031 A  
HETATM   17  S   UNL     1      -5.574  12.262  66.803  1.00  0.00     0.447 SA 
HETATM   18  C   UNL     1      -5.366  10.798  64.466  1.00  0.00    -0.069 A  
HETATM   19  C   UNL     1      -5.300   9.556  63.849  1.00  0.00    -0.063 A  
BRANCH  10  20
HETATM   20  C   UNL     1      -5.751   9.049  69.160  1.00  0.00    -0.036 C  
HETATM   21  O   UNL     1      -5.197   9.250  70.242  1.00  0.00    -0.027 OA 
BRANCH  20  22
HETATM   22  C   UNL     1      -6.529   7.779  69.019  1.00  0.00    -0.037 A  
HETATM   23  C   UNL     1      -8.315   5.583  68.792  1.00  0.00    -0.102 A  
HETATM   24  C   UNL     1      -7.100   5.442  69.471  1.00  0.00    -0.063 A  
HETATM   25  C   UNL     1      -7.733   7.895  68.319  1.00  0.00    -0.121 A  
HETATM   26  C   UNL     1      -6.209   6.535  69.588  1.00  0.00    -0.037 A  
HETATM   27  C   UNL     1      -8.623   6.823  68.232  1.00  0.00    -0.124 A  
BRANCH  23  28
HETATM   28  O   UNL     1      -9.149   4.475  68.707  1.00  0.00    -0.106 OA 
BRANCH  28  29
HETATM   29  C   UNL     1      -8.646   3.374  69.482  1.00  0.00    -0.065 C  
BRANCH  29  30
HETATM   30  C   UNL     1      -9.175   3.212  70.920  1.00  0.00    -0.132 C  
BRANCH  30  31
HETATM   31  N   UNL     1      -8.884   4.428  71.730  1.00  0.00    -0.117 NA 
HETATM   32  C   UNL     1     -10.078   5.174  72.168  1.00  0.00    -0.193 C  
HETATM   33  C   UNL     1     -10.962   4.338  73.089  1.00  0.00    -0.300 C  
HETATM   34  C   UNL     1     -10.183   3.977  74.348  1.00  0.00    -0.248 C  
HETATM   35  C   UNL     1      -8.794   3.407  74.037  1.00  0.00    -0.087 C  
HETATM   36  C   UNL     1      -8.056   4.145  72.912  1.00  0.00    -0.089 C  
ENDBRANCH  30  31
ENDBRANCH  29  30
ENDBRANCH  28  29
ENDBRANCH  23  28
ENDBRANCH  20  22
ENDBRANCH  10  20
ENDBRANCH   6   9
TORSDOF 7
ENDMDL
MODEL      239
REMARK 921   NORMALIZED FREE ENERGY PREDICTED BY IDOCK:    3.72 KCAL/MOL
REMARK 922        TOTAL FREE ENERGY PREDICTED BY IDOCK:    3.16 KCAL/MOL
REMARK 923 INTER-LIGAND FREE ENERGY PREDICTED BY IDOCK:    2.93 KCAL/MOL
REMARK 924 INTRA-LIGAND FREE ENERGY PREDICTED BY IDOCK:    0.24 KCAL/MOL
REMARK 927      BINDING AFFINITY PREDICTED BY RF-SCORE:    0.00 PKD
ROOT
HETATM    1  O   UNL     1      -6.477  10.414  71.873  1.00  0.00     0.332 OA 
HETATM    2  H   UNL     1      -5.741  10.259  72.453  1.00  0.00     0.000 HD 
HETATM    3  C   UNL     1      -6.565  11.538  71.108  1.00  0.00     2.047 A  
HETATM    4  C   UNL     1      -7.641  11.765  70.259  1.00  0.00     2.281 A  
HETATM    5  C   UNL     1      -7.661  12.909  69.445  1.00  0.00     0.624 A  
HETATM    6  C   UNL     1      -6.617  13.849  69.481  1.00  0.00    -0.097 A  
HETATM    7  C   UNL     1      -5.576  13.616  70.400  1.00  0.00    -0.144 A  
HETATM    8  C   UNL     1      -5.541  12.461  71.195  1.00  0.00     0.007 A  
ENDROOT
BRANCH   6   9
HETATM    9  C   UNL     1      -6.563  15.010  68.540  1.00  0.00    -0.096 A  
HETATM   10  C   UNL     1      -7.261  15.334  67.367  1.00  0.00    -0.235 A  
HETATM   11  C   UNL     1      -6.843  18.671  65.452  1.00  0.00    -0.179 A  
HETATM   12  C   UNL     1      -6.883  16.647  66.846  1.00  0.00    -0.253 A  
HETATM   13  O   UNL     1      -5.286  20.388  65.850  1.00  0.00    -0.169 OA 
HETATM   14  C   UNL     1      -5.845  17.211  67.585  1.00  0.00    -0.128 A  
HETATM   15  H   UNL     1      -5.634  20.869  65.109  1.00  0.00     0.000 HD 
HETATM   16  C   UNL     1      -7.399  17.428  65.772  1.00  0.00     0.055 A  
HETATM   17  S   UNL     1      -5.363  16.202  68.866  1.00  0.00    -0.113 SA 
HETATM   18  C   UNL     1      -5.290  18.470  67.284  1.00  0.00    -0.139 A  
HETATM   19  C   UNL     1      -5.798  19.174  66.201  1.00  0.00    -0.161 A  
BRANCH  10  20
HETATM   20  C   UNL     1      -8.349  14.510  66.835  1.00  0.00    -0.101 C  
HETATM   21  O   UNL     1      -9.461  15.005  66.642  1.00  0.00    -0.236 OA 
BRANCH  20  22
HETATM   22  C   UNL     1      -8.182  13.061  66.501  1.00  0.00     0.407 A  
HETATM   23  C   UNL     1      -7.538  10.412  65.708  1.00  0.00    -0.147 A  
HETATM   24  C   UNL     1      -8.858  10.868  65.649  1.00  0.00    -0.201 A  
HETATM   25  C   UNL     1      -6.872  12.580  66.581  1.00  0.00     0.673 A  
HETATM   26  C   UNL     1      -9.183  12.189  66.042  1.00  0.00    -0.119 A  
HETATM   27  C   UNL     1      -6.552  11.287  66.165  1.00  0.00     0.045 A  
BRANCH  23  28
HETATM   28  O   UNL     1      -7.278   9.105  65.313  1.00  0.00    -0.087 OA 
BRANCH  28  29
HETATM   29  C   UNL     1      -6.672   8.343  66.370  1.00  0.00    -0.066 C  
BRANCH  29  30
HETATM   30  C   UNL     1      -7.127   6.883  66.550  1.00  0.00    -0.067 C  
BRANCH  30  31
HETATM   31  N   UNL     1      -8.469   6.822  67.195  1.00  0.00    -0.120 NA 
HETATM   32  C   UNL     1      -9.523   6.214  66.362  1.00  0.00    -0.144 C  
HETATM   33  C   UNL     1      -9.218   4.755  66.040  1.00  0.00    -0.148 C  
HETATM   34  C   UNL     1      -9.163   3.951  67.333  1.00  0.00    -0.199 C  
HETATM   35  C   UNL     1      -8.278   4.611  68.397  1.00  0.00    -0.083 C  
HETATM   36  C   UNL     1      -8.450   6.133  68.494  1.00  0.00    -0.114 C  
ENDBRANCH  30  31
ENDBRANCH  29  30
ENDBRANCH  28  29
ENDBRANCH  23  28
ENDBRANCH  20  22
ENDBRANCH  10  20
ENDBRANCH   6   9
TORSDOF 7
ENDMDL
MODEL      240
REMARK 921   NORMALIZED FREE ENERGY PREDICTED BY IDOCK:    4.00 KCAL/MOL
REMARK 922        TOTAL FREE ENERGY PREDICTED BY IDOCK:    3.56 KCAL/MOL
REMARK 923 INTER-LIGAND FREE ENERGY PREDICTED BY IDOCK:    4.10 KCAL/MOL
REMARK 924 INTRA-LIGAND FREE ENERGY PREDICTED BY IDOCK:   -0.54 KCAL/MOL
REMARK 927      BINDING AFFINITY PREDICTED BY RF-SCORE:    0.00 PKD
ROOT
HETATM    1  O   UNL     1      -6.710  13.840  73.394  1.00  0.00     0.875 OA 
HETATM    2  H   UNL     1      -6.334  13.511  74.202  1.00  0.00     0.000 HD 
HETATM    3  C   UNL     1      -6.451  13.258  72.191  1.00  0.00     2.883 A  
HETATM    4  C   UNL     1      -7.000  13.739  71.010  1.00  0.00     1.761 A  
HETATM    5  C   UNL     1      -6.754  13.070  69.800  1.00  0.00     0.158 A  
HETATM    6  C   UNL     1      -5.942  11.924  69.751  1.00  0.00    -0.132 A  
HETATM    7  C   UNL     1      -5.352  11.504  70.959  1.00  0.00    -0.096 A  
HETATM    8  C   UNL     1      -5.618  12.155  72.173  1.00  0.00     0.881 A  
ENDROOT
BRANCH   6   9
HETATM    9  C   UNL     1      -5.762  11.132  68.495  1.00  0.00    -0.042 A  
HETATM   10  C   UNL     1      -5.714   9.756  68.223  1.00  0.00    -0.043 A  
HETATM   11  C   UNL     1      -5.460   8.266  64.660  1.00  0.00    -0.040 A  
HETATM   12  C   UNL     1      -5.590   9.483  66.791  1.00  0.00    -0.046 A  
HETATM   13  O   UNL     1      -5.137   9.407  62.629  1.00  0.00    -0.074 OA 
HETATM   14  C   UNL     1      -5.446  10.659  66.057  1.00  0.00    -0.106 A  
HETATM   15  H   UNL     1      -5.134   8.576  62.168  1.00  0.00     0.000 HD 
HETATM   16  C   UNL     1      -5.624   8.267  66.049  1.00  0.00    -0.039 A  
HETATM   17  S   UNL     1      -5.478  12.034  67.057  1.00  0.00    -0.052 SA 
HETATM   18  C   UNL     1      -5.300  10.671  64.656  1.00  0.00    -0.129 A  
HETATM   19  C   UNL     1      -5.296   9.458  63.982  1.00  0.00    -0.061 A  
BRANCH  10  20
HETATM   20  C   UNL     1      -5.924   8.732  69.249  1.00  0.00    -0.041 C  
HETATM   21  O   UNL     1      -5.234   8.731  70.270  1.00  0.00    -0.022 OA 
BRANCH  20  22
HETATM   22  C   UNL     1      -6.960   7.660  69.126  1.00  0.00    -0.068 A  
HETATM   23  C   UNL     1      -8.695   5.465  68.641  1.00  0.00    -0.097 A  
HETATM   24  C   UNL     1      -9.215   6.747  68.849  1.00  0.00    -0.131 A  
HETATM   25  C   UNL     1      -6.459   6.368  68.944  1.00  0.00    -0.043 A  
HETATM   26  C   UNL     1      -8.352   7.844  69.090  1.00  0.00    -0.133 A  
HETATM   27  C   UNL     1      -7.311   5.295  68.678  1.00  0.00    -0.070 A  
BRANCH  23  28
HETATM   28  O   UNL     1      -9.589   4.426  68.412  1.00  0.00    -0.148 OA 
BRANCH  28  29
HETATM   29  C   UNL     1      -9.591   4.026  67.031  1.00  0.00    -0.201 C  
BRANCH  29  30
HETATM   30  C   UNL     1      -9.339   5.114  65.971  1.00  0.00    -0.158 C  
BRANCH  30  31
HETATM   31  N   UNL     1      -8.993   4.502  64.657  1.00  0.00    -0.150 NA 
HETATM   32  C   UNL     1      -7.828   5.107  63.987  1.00  0.00    -0.094 C  
HETATM   33  C   UNL     1      -6.551   4.938  64.805  1.00  0.00    -0.043 C  
HETATM   34  C   UNL     1      -6.244   3.453  64.962  1.00  0.00    -0.024 C  
HETATM   35  C   UNL     1      -7.463   2.647  65.428  1.00  0.00    -0.072 C  
HETATM   36  C   UNL     1      -8.775   3.050  64.741  1.00  0.00    -0.104 C  
ENDBRANCH  30  31
ENDBRANCH  29  30
ENDBRANCH  28  29
ENDBRANCH  23  28
ENDBRANCH  20  22
ENDBRANCH  10  20
ENDBRANCH   6   9
TORSDOF 7
ENDMDL
MODEL      241
REMARK 921   NORMALIZED FREE ENERGY PREDICTED BY IDOCK:    4.29 KCAL/MOL
REMARK 922        TOTAL FREE ENERGY PREDICTED BY IDOCK:    3.96 KCAL/MOL
REMARK 923 INTER-LIGAND FREE ENERGY PREDICTED BY IDOCK:    4.21 KCAL/MOL
REMARK 924 INTRA-LIGAND FREE ENERGY PREDICTED BY IDOCK:   -0.25 KCAL/MOL
REMARK 927      BINDING AFFINITY PREDICTED BY RF-SCORE:    0.00 PKD
ROOT
HETATM    1  O   UNL     1      -5.939  12.350  73.253  1.00  0.00     1.270 OA 
HETATM    2  H   UNL     1      -5.372  12.039  73.949  1.00  0.00     0.000 HD 
HETATM    3  C   UNL     1      -5.968  11.755  72.029  1.00  0.00     1.886 A  
HETATM    4  C   UNL     1      -6.798  12.209  71.012  1.00  0.00     3.018 A  
HETATM    5  C   UNL     1      -6.839  11.527  69.785  1.00  0.00     0.010 A  
HETATM    6  C   UNL     1      -6.039  10.395  69.551  1.00  0.00    -0.047 A  
HETATM    7  C   UNL     1      -5.165  10.004  70.584  1.00  0.00    -0.047 A  
HETATM    8  C   UNL     1      -5.142  10.668  71.820  1.00  0.00    -0.018 A  
ENDROOT
BRANCH   6   9
HETATM    9  C   UNL     1      -6.154   9.588  68.298  1.00  0.00    -0.048 A  
HETATM   10  C   UNL     1      -6.111   8.211  68.031  1.00  0.00    -0.047 A  
HETATM   11  C   UNL     1      -6.719   6.666  64.535  1.00  0.00    -0.042 A  
HETATM   12  C   UNL     1      -6.350   7.917  66.618  1.00  0.00    -0.050 A  
HETATM   13  O   UNL     1      -6.989   7.782  62.482  1.00  0.00    -0.078 OA 
HETATM   14  C   UNL     1      -6.459   9.083  65.865  1.00  0.00    -0.061 A  
HETATM   15  H   UNL     1      -7.066   6.943  62.042  1.00  0.00     0.000 HD 
HETATM   16  C   UNL     1      -6.516   6.687  65.919  1.00  0.00    -0.046 A  
HETATM   17  S   UNL     1      -6.297  10.475  66.829  1.00  0.00    -0.086 SA 
HETATM   18  C   UNL     1      -6.682   9.075  64.474  1.00  0.00    -0.078 A  
HETATM   19  C   UNL     1      -6.794   7.851  63.830  1.00  0.00    -0.063 A  
BRANCH  10  20
HETATM   20  C   UNL     1      -5.998   7.199  69.084  1.00  0.00    -0.022 C  
HETATM   21  O   UNL     1      -5.128   7.303  69.949  1.00  0.00    -0.015 OA 
BRANCH  20  22
HETATM   22  C   UNL     1      -6.906   6.013  69.171  1.00  0.00    -0.062 A  
HETATM   23  C   UNL     1      -8.348   3.567  69.182  1.00  0.00    -0.060 A  
HETATM   24  C   UNL     1      -8.999   4.772  68.900  1.00  0.00    -0.142 A  
HETATM   25  C   UNL     1      -6.277   4.804  69.478  1.00  0.00    -0.026 A  
HETATM   26  C   UNL     1      -8.283   5.993  68.892  1.00  0.00    -0.104 A  
HETATM   27  C   UNL     1      -6.981   3.599  69.456  1.00  0.00    -0.042 A  
BRANCH  23  28
HETATM   28  O   UNL     1      -9.102   2.400  69.178  1.00  0.00    -0.100 OA 
BRANCH  28  29
HETATM   29  C   UNL     1      -9.267   1.873  70.506  1.00  0.00    -0.103 C  
BRANCH  29  30
HETATM   30  C   UNL     1      -8.006   1.721  71.376  1.00  0.00    -0.040 C  
BRANCH  30  31
HETATM   31  N   UNL     1      -8.312   2.013  72.805  1.00  0.00    -0.057 NA 
HETATM   32  C   UNL     1      -7.264   2.770  73.514  1.00  0.00    -0.041 C  
HETATM   33  C   UNL     1      -7.054   4.153  72.906  1.00  0.00    -0.063 C  
HETATM   34  C   UNL     1      -8.341   4.962  73.032  1.00  0.00    -0.101 C  
HETATM   35  C   UNL     1      -9.571   4.186  72.549  1.00  0.00    -0.190 C  
HETATM   36  C   UNL     1      -9.591   2.714  72.986  1.00  0.00    -0.096 C  
ENDBRANCH  30  31
ENDBRANCH  29  30
ENDBRANCH  28  29
ENDBRANCH  23  28
ENDBRANCH  20  22
ENDBRANCH  10  20
ENDBRANCH   6   9
TORSDOF 7
ENDMDL
MODEL      242
REMARK 921   NORMALIZED FREE ENERGY PREDICTED BY IDOCK:    4.86 KCAL/MOL
REMARK 922        TOTAL FREE ENERGY PREDICTED BY IDOCK:    4.76 KCAL/MOL
REMARK 923 INTER-LIGAND FREE ENERGY PREDICTED BY IDOCK:    3.02 KCAL/MOL
REMARK 924 INTRA-LIGAND FREE ENERGY PREDICTED BY IDOCK:    1.74 KCAL/MOL
REMARK 927      BINDING AFFINITY PREDICTED BY RF-SCORE:    0.00 PKD
ROOT
HETATM    1  O   UNL     1      -6.775   7.258  73.365  1.00  0.00    -0.065 OA 
HETATM    2  H   UNL     1      -7.244   7.316  74.189  1.00  0.00     0.000 HD 
HETATM    3  C   UNL     1      -6.670   8.323  72.521  1.00  0.00    -0.088 A  
HETATM    4  C   UNL     1      -5.983   8.239  71.317  1.00  0.00    -0.035 A  
HETATM    5  C   UNL     1      -5.850   9.378  70.506  1.00  0.00    -0.052 A  
HETATM    6  C   UNL     1      -6.414  10.610  70.879  1.00  0.00     0.303 A  
HETATM    7  C   UNL     1      -7.156  10.639  72.076  1.00  0.00     4.114 A  
HETATM    8  C   UNL     1      -7.269   9.508  72.900  1.00  0.00     1.493 A  
ENDROOT
BRANCH   6   9
HETATM    9  C   UNL     1      -6.184  11.859  70.090  1.00  0.00    -0.087 A  
HETATM   10  C   UNL     1      -6.194  12.147  68.717  1.00  0.00    -0.071 A  
HETATM   11  C   UNL     1      -5.752  15.701  67.251  1.00  0.00     0.123 A  
HETATM   12  C   UNL     1      -5.976  13.569  68.452  1.00  0.00    -0.095 A  
HETATM   13  O   UNL     1      -5.207  17.684  68.390  1.00  0.00    -0.147 OA 
HETATM   14  C   UNL     1      -5.708  14.272  69.624  1.00  0.00    -0.100 A  
HETATM   15  H   UNL     1      -5.216  18.156  67.566  1.00  0.00     0.000 HD 
HETATM   16  C   UNL     1      -6.022  14.329  67.247  1.00  0.00     0.508 A  
HETATM   17  S   UNL     1      -5.738  13.258  70.989  1.00  0.00    -0.054 SA 
HETATM   18  C   UNL     1      -5.453  15.657  69.641  1.00  0.00    -0.113 A  
HETATM   19  C   UNL     1      -5.467  16.347  68.437  1.00  0.00    -0.103 A  
BRANCH  10  20
HETATM   20  C   UNL     1      -6.542  11.155  67.697  1.00  0.00    -0.070 C  
HETATM   21  O   UNL     1      -6.003  11.192  66.590  1.00  0.00    -0.100 OA 
BRANCH  20  22
HETATM   22  C   UNL     1      -7.541  10.066  67.932  1.00  0.00    -0.089 A  
HETATM   23  C   UNL     1      -9.170   7.763  68.256  1.00  0.00    -0.139 A  
HETATM   24  C   UNL     1      -9.723   8.964  67.801  1.00  0.00    -0.196 A  
HETATM   25  C   UNL     1      -7.010   8.866  68.413  1.00  0.00    -0.065 A  
HETATM   26  C   UNL     1      -8.913  10.114  67.636  1.00  0.00    -0.134 A  
HETATM   27  C   UNL     1      -7.806   7.728  68.546  1.00  0.00    -0.120 A  
BRANCH  23  28
HETATM   28  O   UNL     1     -10.013   6.668  68.401  1.00  0.00    -0.139 OA 
BRANCH  28  29
HETATM   29  C   UNL     1     -10.697   6.691  69.665  1.00  0.00    -0.260 C  
BRANCH  29  30
HETATM   30  C   UNL     1     -10.704   5.395  70.497  1.00  0.00    -0.196 C  
BRANCH  30  31
HETATM   31  N   UNL     1     -11.773   5.439  71.535  1.00  0.00     0.427 NA 
HETATM   32  C   UNL     1     -11.410   4.808  72.816  1.00  0.00    -0.093 C  
HETATM   33  C   UNL     1     -10.238   5.517  73.486  1.00  0.00    -0.228 C  
HETATM   34  C   UNL     1     -10.629   6.956  73.801  1.00  0.00    -0.333 C  
HETATM   35  C   UNL     1     -11.260   7.670  72.600  1.00  0.00    -0.419 C  
HETATM   36  C   UNL     1     -12.250   6.803  71.810  1.00  0.00    -0.358 C  
ENDBRANCH  30  31
ENDBRANCH  29  30
ENDBRANCH  28  29
ENDBRANCH  23  28
ENDBRANCH  20  22
ENDBRANCH  10  20
ENDBRANCH   6   9
TORSDOF 7
ENDMDL
MODEL      243
REMARK 921   NORMALIZED FREE ENERGY PREDICTED BY IDOCK:    5.49 KCAL/MOL
REMARK 922        TOTAL FREE ENERGY PREDICTED BY IDOCK:    5.66 KCAL/MOL
REMARK 923 INTER-LIGAND FREE ENERGY PREDICTED BY IDOCK:    5.00 KCAL/MOL
REMARK 924 INTRA-LIGAND FREE ENERGY PREDICTED BY IDOCK:    0.66 KCAL/MOL
REMARK 927      BINDING AFFINITY PREDICTED BY RF-SCORE:    0.00 PKD
ROOT
HETATM    1  O   UNL     1     -11.660  15.180  63.386  1.00  0.00     0.036 OA 
HETATM    2  H   UNL     1     -11.390  14.651  62.644  1.00  0.00     0.000 HD 
HETATM    3  C   UNL     1     -10.949  15.205  64.547  1.00  0.00    -0.189 A  
HETATM    4  C   UNL     1     -11.343  15.978  65.632  1.00  0.00     0.194 A  
HETATM    5  C   UNL     1     -10.547  16.020  66.788  1.00  0.00    -0.297 A  
HETATM    6  C   UNL     1      -9.357  15.278  66.883  1.00  0.00    -0.255 A  
HETATM    7  C   UNL     1      -9.025  14.457  65.787  1.00  0.00     0.593 A  
HETATM    8  C   UNL     1      -9.805  14.434  64.621  1.00  0.00     0.488 A  
ENDROOT
BRANCH   6   9
HETATM    9  C   UNL     1      -8.437  15.399  68.055  1.00  0.00    -0.146 A  
HETATM   10  C   UNL     1      -7.534  14.516  68.668  1.00  0.00    -0.128 A  
HETATM   11  C   UNL     1      -5.201  15.497  71.595  1.00  0.00     0.006 A  
HETATM   12  C   UNL     1      -6.804  15.150  69.764  1.00  0.00    -0.179 A  
HETATM   13  O   UNL     1      -5.164  17.510  72.810  1.00  0.00     0.782 OA 
HETATM   14  C   UNL     1      -7.258  16.446  70.000  1.00  0.00     0.661 A  
HETATM   15  H   UNL     1      -4.466  17.164  73.354  1.00  0.00     0.000 HD 
HETATM   16  C   UNL     1      -5.726  14.694  70.577  1.00  0.00    -0.155 A  
HETATM   17  S   UNL     1      -8.503  16.883  68.927  1.00  0.00    -0.150 SA 
HETATM   18  C   UNL     1      -6.724  17.270  71.009  1.00  0.00     2.898 A  
HETATM   19  C   UNL     1      -5.704  16.765  71.804  1.00  0.00     1.115 A  
BRANCH  10  20
HETATM   20  C   UNL     1      -7.259  13.174  68.151  1.00  0.00    -0.117 C  
HETATM   21  O   UNL     1      -6.325  12.993  67.368  1.00  0.00    -0.183 OA 
BRANCH  20  22
HETATM   22  C   UNL     1      -8.068  11.975  68.533  1.00  0.00    -0.123 A  
HETATM   23  C   UNL     1      -9.437   9.526  68.970  1.00  0.00    -0.158 A  
HETATM   24  C   UNL     1     -10.093  10.747  69.156  1.00  0.00    -0.224 A  
HETATM   25  C   UNL     1      -7.420  10.747  68.380  1.00  0.00    -0.095 A  
HETATM   26  C   UNL     1      -9.414  11.970  68.937  1.00  0.00     0.132 A  
HETATM   27  C   UNL     1      -8.102   9.543  68.568  1.00  0.00    -0.101 A  
BRANCH  23  28
HETATM   28  O   UNL     1     -10.153   8.357  69.201  1.00  0.00    -0.192 OA 
BRANCH  28  29
HETATM   29  C   UNL     1      -9.919   7.382  68.171  1.00  0.00    -0.166 C  
BRANCH  29  30
HETATM   30  C   UNL     1      -8.483   6.852  68.002  1.00  0.00    -0.124 C  
BRANCH  30  31
HETATM   31  N   UNL     1      -8.349   5.491  68.593  1.00  0.00    -0.101 NA 
HETATM   32  C   UNL     1      -9.519   5.041  69.368  1.00  0.00    -0.144 C  
HETATM   33  C   UNL     1     -10.767   4.928  68.498  1.00  0.00     0.426 C  
HETATM   34  C   UNL     1     -10.534   3.885  67.411  1.00  0.00     1.152 C  
HETATM   35  C   UNL     1      -9.206   4.093  66.673  1.00  0.00    -0.164 C  
HETATM   36  C   UNL     1      -8.033   4.460  67.593  1.00  0.00    -0.092 C  
ENDBRANCH  30  31
ENDBRANCH  29  30
ENDBRANCH  28  29
ENDBRANCH  23  28
ENDBRANCH  20  22
ENDBRANCH  10  20
ENDBRANCH   6   9
TORSDOF 7
ENDMDL
MODEL      244
REMARK 921   NORMALIZED FREE ENERGY PREDICTED BY IDOCK:    5.98 KCAL/MOL
REMARK 922        TOTAL FREE ENERGY PREDICTED BY IDOCK:    6.34 KCAL/MOL
REMARK 923 INTER-LIGAND FREE ENERGY PREDICTED BY IDOCK:    7.14 KCAL/MOL
REMARK 924 INTRA-LIGAND FREE ENERGY PREDICTED BY IDOCK:   -0.79 KCAL/MOL
REMARK 927      BINDING AFFINITY PREDICTED BY RF-SCORE:    0.00 PKD
ROOT
HETATM    1  O   UNL     1      -6.171   8.157  73.979  1.00  0.00    -0.094 OA 
HETATM    2  H   UNL     1      -6.644   8.239  74.798  1.00  0.00     0.000 HD 
HETATM    3  C   UNL     1      -6.122   9.173  73.073  1.00  0.00     0.139 A  
HETATM    4  C   UNL     1      -5.430   9.055  71.874  1.00  0.00    -0.059 A  
HETATM    5  C   UNL     1      -5.357  10.149  70.997  1.00  0.00    -0.079 A  
HETATM    6  C   UNL     1      -5.987  11.369  71.297  1.00  0.00     0.560 A  
HETATM    7  C   UNL     1      -6.732  11.429  72.491  1.00  0.00     5.975 A  
HETATM    8  C   UNL     1      -6.785  10.346  73.381  1.00  0.00     3.347 A  
ENDROOT
BRANCH   6   9
HETATM    9  C   UNL     1      -5.824  12.579  70.435  1.00  0.00    -0.150 A  
HETATM   10  C   UNL     1      -5.788  12.776  69.045  1.00  0.00    -0.076 A  
HETATM   11  C   UNL     1      -5.573  16.251  67.358  1.00  0.00    -0.158 A  
HETATM   12  C   UNL     1      -5.677  14.190  68.692  1.00  0.00    -0.087 A  
HETATM   13  O   UNL     1      -5.256  18.345  68.381  1.00  0.00    -0.166 OA 
HETATM   14  C   UNL     1      -5.530  14.990  69.824  1.00  0.00    -0.099 A  
HETATM   15  H   UNL     1      -5.263  18.759  67.526  1.00  0.00     0.000 HD 
HETATM   16  C   UNL     1      -5.726  14.864  67.437  1.00  0.00     0.259 A  
HETATM   17  S   UNL     1      -5.544  14.068  71.254  1.00  0.00    -0.231 SA 
HETATM   18  C   UNL     1      -5.394  16.390  69.757  1.00  0.00    -0.143 A  
HETATM   19  C   UNL     1      -5.404  16.996  68.508  1.00  0.00    -0.131 A  
BRANCH  10  20
HETATM   20  C   UNL     1      -5.998  11.692  68.082  1.00  0.00    -0.046 C  
HETATM   21  O   UNL     1      -5.373  11.680  67.021  1.00  0.00    -0.089 OA 
BRANCH  20  22
HETATM   22  C   UNL     1      -6.954  10.567  68.323  1.00  0.00    -0.073 A  
HETATM   23  C   UNL     1      -8.593   8.255  68.497  1.00  0.00    -0.133 A  
HETATM   24  C   UNL     1      -9.139   9.527  68.695  1.00  0.00    -0.132 A  
HETATM   25  C   UNL     1      -6.419   9.287  68.156  1.00  0.00    -0.058 A  
HETATM   26  C   UNL     1      -8.325  10.682  68.607  1.00  0.00    -0.137 A  
HETATM   27  C   UNL     1      -7.231   8.153  68.215  1.00  0.00    -0.093 A  
BRANCH  23  28
HETATM   28  O   UNL     1      -9.439   7.157  68.598  1.00  0.00    -0.141 OA 
BRANCH  28  29
HETATM   29  C   UNL     1      -9.183   6.400  69.793  1.00  0.00    -0.144 C  
BRANCH  29  30
HETATM   30  C   UNL     1      -9.024   4.875  69.653  1.00  0.00    -0.099 C  
BRANCH  30  31
HETATM   31  N   UNL     1      -8.759   4.248  70.979  1.00  0.00    -0.091 NA 
HETATM   32  C   UNL     1      -9.544   3.029  71.248  1.00  0.00    -0.155 C  
HETATM   33  C   UNL     1      -9.220   1.915  70.257  1.00  0.00    -0.171 C  
HETATM   34  C   UNL     1      -7.752   1.530  70.392  1.00  0.00    -0.035 C  
HETATM   35  C   UNL     1      -6.821   2.748  70.375  1.00  0.00    -0.033 C  
HETATM   36  C   UNL     1      -7.338   3.938  71.194  1.00  0.00    -0.040 C  
ENDBRANCH  30  31
ENDBRANCH  29  30
ENDBRANCH  28  29
ENDBRANCH  23  28
ENDBRANCH  20  22
ENDBRANCH  10  20
ENDBRANCH   6   9
TORSDOF 7
ENDMDL
MODEL      245
REMARK 921   NORMALIZED FREE ENERGY PREDICTED BY IDOCK:    6.28 KCAL/MOL
REMARK 922        TOTAL FREE ENERGY PREDICTED BY IDOCK:    6.77 KCAL/MOL
REMARK 923 INTER-LIGAND FREE ENERGY PREDICTED BY IDOCK:    7.88 KCAL/MOL
REMARK 924 INTRA-LIGAND FREE ENERGY PREDICTED BY IDOCK:   -1.11 KCAL/MOL
REMARK 927      BINDING AFFINITY PREDICTED BY RF-SCORE:    0.00 PKD
ROOT
HETATM    1  O   UNL     1     -11.558   3.688  65.489  1.00  0.00     0.978 OA 
HETATM    2  H   UNL     1     -11.377   3.518  64.572  1.00  0.00     0.000 HD 
HETATM    3  C   UNL     1     -11.385   4.922  66.039  1.00  0.00     0.905 A  
HETATM    4  C   UNL     1     -11.651   5.171  67.379  1.00  0.00     3.104 A  
HETATM    5  C   UNL     1     -11.515   6.473  67.889  1.00  0.00     0.154 A  
HETATM    6  C   UNL     1     -11.095   7.537  67.073  1.00  0.00     0.111 A  
HETATM    7  C   UNL     1     -10.774   7.232  65.736  1.00  0.00     2.623 A  
HETATM    8  C   UNL     1     -10.934   5.938  65.218  1.00  0.00     2.447 A  
ENDROOT
BRANCH   6   9
HETATM    9  C   UNL     1     -11.057   8.948  67.566  1.00  0.00     0.342 A  
HETATM   10  C   UNL     1     -10.723  10.171  66.964  1.00  0.00    -0.264 A  
HETATM   11  C   UNL     1     -11.051  13.605  68.719  1.00  0.00    -0.302 A  
HETATM   12  C   UNL     1     -10.920  11.302  67.870  1.00  0.00    -0.302 A  
HETATM   13  O   UNL     1     -11.595  14.042  70.964  1.00  0.00    -0.511 OA 
HETATM   14  C   UNL     1     -11.293  10.878  69.144  1.00  0.00    -0.283 A  
HETATM   15  H   UNL     1     -11.497  14.973  70.803  1.00  0.00     0.000 HD 
HETATM   16  C   UNL     1     -10.830  12.710  67.667  1.00  0.00    -0.248 A  
HETATM   17  S   UNL     1     -11.416   9.184  69.234  1.00  0.00     0.553 SA 
HETATM   18  C   UNL     1     -11.536  11.771  70.206  1.00  0.00    -0.075 A  
HETATM   19  C   UNL     1     -11.393  13.131  69.969  1.00  0.00     0.097 A  
BRANCH  10  20
HETATM   20  C   UNL     1     -10.373  10.292  65.547  1.00  0.00    -0.169 C  
HETATM   21  O   UNL     1     -11.163  10.814  64.759  1.00  0.00     0.113 OA 
BRANCH  20  22
HETATM   22  C   UNL     1      -9.074   9.806  64.987  1.00  0.00    -0.280 A  
HETATM   23  C   UNL     1      -6.815   8.646  63.716  1.00  0.00    -0.087 A  
HETATM   24  C   UNL     1      -6.762   9.005  65.067  1.00  0.00    -0.069 A  
HETATM   25  C   UNL     1      -9.101   9.468  63.632  1.00  0.00    -0.145 A  
HETATM   26  C   UNL     1      -7.887   9.581  65.704  1.00  0.00    -0.101 A  
HETATM   27  C   UNL     1      -7.999   8.873  63.015  1.00  0.00    -0.161 A  
BRANCH  23  28
HETATM   28  O   UNL     1      -5.679   8.086  63.143  1.00  0.00    -0.061 OA 
BRANCH  28  29
HETATM   29  C   UNL     1      -5.162   7.008  63.941  1.00  0.00    -0.028 C  
BRANCH  29  30
HETATM   30  C   UNL     1      -5.706   5.593  63.667  1.00  0.00    -0.014 C  
BRANCH  30  31
HETATM   31  N   UNL     1      -6.898   5.312  64.516  1.00  0.00    -0.047 NA 
HETATM   32  C   UNL     1      -8.193   5.535  63.847  1.00  0.00    -0.110 C  
HETATM   33  C   UNL     1      -8.380   4.605  62.651  1.00  0.00    -0.096 C  
HETATM   34  C   UNL     1      -8.377   3.158  63.130  1.00  0.00    -0.085 C  
HETATM   35  C   UNL     1      -7.194   2.848  64.054  1.00  0.00    -0.057 C  
HETATM   36  C   UNL     1      -6.896   3.953  65.077  1.00  0.00    -0.049 C  
ENDBRANCH  30  31
ENDBRANCH  29  30
ENDBRANCH  28  29
ENDBRANCH  23  28
ENDBRANCH  20  22
ENDBRANCH  10  20
ENDBRANCH   6   9
TORSDOF 7
ENDMDL
MODEL      246
REMARK 921   NORMALIZED FREE ENERGY PREDICTED BY IDOCK:    6.80 KCAL/MOL
REMARK 922        TOTAL FREE ENERGY PREDICTED BY IDOCK:    7.50 KCAL/MOL
REMARK 923 INTER-LIGAND FREE ENERGY PREDICTED BY IDOCK:   -1.86 KCAL/MOL
REMARK 924 INTRA-LIGAND FREE ENERGY PREDICTED BY IDOCK:    9.36 KCAL/MOL
REMARK 927      BINDING AFFINITY PREDICTED BY RF-SCORE:    0.00 PKD
ROOT
HETATM    1  O   UNL     1     -11.267   6.985  72.423  1.00  0.00    -0.250 OA 
HETATM    2  H   UNL     1     -10.907   6.117  72.281  1.00  0.00     0.000 HD 
HETATM    3  C   UNL     1     -11.196   7.957  71.471  1.00  0.00    -0.249 A  
HETATM    4  C   UNL     1     -11.723   9.225  71.678  1.00  0.00    -0.462 A  
HETATM    5  C   UNL     1     -11.680  10.177  70.647  1.00  0.00    -0.425 A  
HETATM    6  C   UNL     1     -11.096   9.882  69.403  1.00  0.00    -0.237 A  
HETATM    7  C   UNL     1     -10.516   8.606  69.254  1.00  0.00    -0.226 A  
HETATM    8  C   UNL     1     -10.581   7.645  70.274  1.00  0.00    -0.233 A  
ENDROOT
BRANCH   6   9
HETATM    9  C   UNL     1     -11.145  10.839  68.256  1.00  0.00    -0.271 A  
HETATM   10  C   UNL     1     -10.583  10.832  66.969  1.00  0.00    -0.312 A  
HETATM   11  C   UNL     1     -11.273  13.541  64.294  1.00  0.00    -0.383 A  
HETATM   12  C   UNL     1     -10.996  11.993  66.182  1.00  0.00    -0.343 A  
HETATM   13  O   UNL     1     -12.462  15.555  64.540  1.00  0.00    -0.144 OA 
HETATM   14  C   UNL     1     -11.764  12.876  66.938  1.00  0.00    -0.382 A  
HETATM   15  H   UNL     1     -12.275  15.771  63.634  1.00  0.00     0.000 HD 
HETATM   16  C   UNL     1     -10.782  12.341  64.817  1.00  0.00    -0.338 A  
HETATM   17  S   UNL     1     -11.990  12.314  68.528  1.00  0.00    -0.095 SA 
HETATM   18  C   UNL     1     -12.280  14.079  66.417  1.00  0.00    -0.492 A  
HETATM   19  C   UNL     1     -12.007  14.395  65.093  1.00  0.00    -0.391 A  
BRANCH  10  20
HETATM   20  C   UNL     1      -9.808   9.705  66.445  1.00  0.00    -0.244 C  
HETATM   21  O   UNL     1      -8.818   9.911  65.743  1.00  0.00    -0.138 OA 
BRANCH  20  22
HETATM   22  C   UNL     1     -10.160   8.278  66.725  1.00  0.00    -0.373 A  
HETATM   23  C   UNL     1     -10.936   5.689  67.595  1.00  0.00     0.078 A  
HETATM   24  C   UNL     1      -9.803   5.857  66.792  1.00  0.00    -0.191 A  
HETATM   25  C   UNL     1     -11.305   8.089  67.503  1.00  0.00     0.901 A  
HETATM   26  C   UNL     1      -9.412   7.146  66.358  1.00  0.00    -0.177 A  
HETATM   27  C   UNL     1     -11.670   6.820  67.953  1.00  0.00     0.920 A  
BRANCH  23  28
HETATM   28  O   UNL     1     -11.273   4.399  67.989  1.00  0.00     2.232 OA 
BRANCH  28  29
HETATM   29  C   UNL     1     -10.122   3.540  68.024  1.00  0.00     0.654 C  
BRANCH  29  30
HETATM   30  C   UNL     1      -8.746   4.196  68.247  1.00  0.00    -0.099 C  
BRANCH  30  31
HETATM   31  N   UNL     1      -7.657   3.182  68.164  1.00  0.00    -0.053 NA 
HETATM   32  C   UNL     1      -6.818   3.281  66.957  1.00  0.00    -0.049 C  
HETATM   33  C   UNL     1      -6.071   4.610  66.893  1.00  0.00    -0.031 C  
HETATM   34  C   UNL     1      -5.133   4.722  68.089  1.00  0.00     0.000 C  
HETATM   35  C   UNL     1      -5.831   4.397  69.415  1.00  0.00    -0.018 C  
HETATM   36  C   UNL     1      -6.776   3.189  69.342  1.00  0.00    -0.034 C  
ENDBRANCH  30  31
ENDBRANCH  29  30
ENDBRANCH  28  29
ENDBRANCH  23  28
ENDBRANCH  20  22
ENDBRANCH  10  20
ENDBRANCH   6   9
TORSDOF 7
ENDMDL
MODEL      247
REMARK 921   NORMALIZED FREE ENERGY PREDICTED BY IDOCK:    7.28 KCAL/MOL
REMARK 922        TOTAL FREE ENERGY PREDICTED BY IDOCK:    8.18 KCAL/MOL
REMARK 923 INTER-LIGAND FREE ENERGY PREDICTED BY IDOCK:    7.32 KCAL/MOL
REMARK 924 INTRA-LIGAND FREE ENERGY PREDICTED BY IDOCK:    0.86 KCAL/MOL
REMARK 927      BINDING AFFINITY PREDICTED BY RF-SCORE:    0.00 PKD
ROOT
HETATM    1  O   UNL     1     -11.868   3.647  64.862  1.00  0.00     0.449 OA 
HETATM    2  H   UNL     1     -11.743   2.705  64.857  1.00  0.00     0.000 HD 
HETATM    3  C   UNL     1     -11.340   4.437  65.837  1.00  0.00     1.576 A  
HETATM    4  C   UNL     1     -11.522   5.814  65.845  1.00  0.00     1.495 A  
HETATM    5  C   UNL     1     -10.909   6.596  66.837  1.00  0.00    -0.415 A  
HETATM    6  C   UNL     1     -10.122   6.012  67.845  1.00  0.00    -0.183 A  
HETATM    7  C   UNL     1     -10.014   4.608  67.840  1.00  0.00    -0.138 A  
HETATM    8  C   UNL     1     -10.604   3.827  66.834  1.00  0.00     1.645 A  
ENDROOT
BRANCH   6   9
HETATM    9  C   UNL     1      -9.367   6.835  68.839  1.00  0.00    -0.129 A  
HETATM   10  C   UNL     1      -9.685   7.986  69.576  1.00  0.00    -0.170 A  
HETATM   11  C   UNL     1      -7.354   9.562  72.234  1.00  0.00     1.175 A  
HETATM   12  C   UNL     1      -8.606   8.371  70.487  1.00  0.00    -0.137 A  
HETATM   13  O   UNL     1      -5.139   8.969  72.757  1.00  0.00    -0.055 OA 
HETATM   14  C   UNL     1      -7.486   7.559  70.323  1.00  0.00    -0.085 A  
HETATM   15  H   UNL     1      -5.109   9.667  73.401  1.00  0.00     0.000 HD 
HETATM   16  C   UNL     1      -8.526   9.375  71.495  1.00  0.00     0.446 A  
HETATM   17  S   UNL     1      -7.735   6.371  69.132  1.00  0.00    -0.103 SA 
HETATM   18  C   UNL     1      -6.306   7.726  71.075  1.00  0.00    -0.037 A  
HETATM   19  C   UNL     1      -6.262   8.746  72.015  1.00  0.00    -0.075 A  
BRANCH  10  20
HETATM   20  C   UNL     1     -11.006   8.617  69.539  1.00  0.00    -0.055 C  
HETATM   21  O   UNL     1     -12.000   7.951  69.245  1.00  0.00     1.069 OA 
BRANCH  20  22
HETATM   22  C   UNL     1     -11.223  10.065  69.848  1.00  0.00    -0.327 A  
HETATM   23  C   UNL     1     -11.859  12.818  70.132  1.00  0.00    -0.251 A  
HETATM   24  C   UNL     1     -10.570  12.355  70.416  1.00  0.00     2.458 A  
HETATM   25  C   UNL     1     -12.513  10.539  69.596  1.00  0.00    -0.062 A  
HETATM   26  C   UNL     1     -10.249  10.983  70.274  1.00  0.00     0.998 A  
HETATM   27  C   UNL     1     -12.818  11.896  69.709  1.00  0.00     0.546 A  
BRANCH  23  28
HETATM   28  O   UNL     1     -12.117  14.174  70.291  1.00  0.00    -0.300 OA 
BRANCH  28  29
HETATM   29  C   UNL     1     -11.063  14.981  69.740  1.00  0.00    -0.276 C  
BRANCH  29  30
HETATM   30  C   UNL     1     -11.004  15.129  68.208  1.00  0.00    -0.276 C  
BRANCH  30  31
HETATM   31  N   UNL     1      -9.745  14.540  67.669  1.00  0.00    -0.213 NA 
HETATM   32  C   UNL     1      -9.657  14.524  66.197  1.00  0.00    -0.297 C  
HETATM   33  C   UNL     1      -9.668  15.934  65.614  1.00  0.00    -0.306 C  
HETATM   34  C   UNL     1      -8.450  16.700  66.118  1.00  0.00    -0.308 C  
HETATM   35  C   UNL     1      -8.278  16.594  67.638  1.00  0.00    -0.183 C  
HETATM   36  C   UNL     1      -8.536  15.188  68.198  1.00  0.00    -0.158 C  
ENDBRANCH  30  31
ENDBRANCH  29  30
ENDBRANCH  28  29
ENDBRANCH  23  28
ENDBRANCH  20  22
ENDBRANCH  10  20
ENDBRANCH   6   9
TORSDOF 7
ENDMDL
MODEL      248
REMARK 921   NORMALIZED FREE ENERGY PREDICTED BY IDOCK:    9.61 KCAL/MOL
REMARK 922        TOTAL FREE ENERGY PREDICTED BY IDOCK:   11.47 KCAL/MOL
REMARK 923 INTER-LIGAND FREE ENERGY PREDICTED BY IDOCK:   11.94 KCAL/MOL
REMARK 924 INTRA-LIGAND FREE ENERGY PREDICTED BY IDOCK:   -0.47 KCAL/MOL
REMARK 927      BINDING AFFINITY PREDICTED BY RF-SCORE:    0.00 PKD
ROOT
HETATM    1  O   UNL     1     -13.588  12.232  67.027  1.00  0.00     5.137 OA 
HETATM    2  H   UNL     1     -13.578  12.888  66.340  1.00  0.00     0.000 HD 
HETATM    3  C   UNL     1     -12.631  11.267  67.113  1.00  0.00     3.334 A  
HETATM    4  C   UNL     1     -12.645  10.308  68.118  1.00  0.00     3.519 A  
HETATM    5  C   UNL     1     -11.605   9.369  68.204  1.00  0.00     0.955 A  
HETATM    6  C   UNL     1     -10.547   9.363  67.277  1.00  0.00    -0.314 A  
HETATM    7  C   UNL     1     -10.602  10.310  66.236  1.00  0.00    -0.150 A  
HETATM    8  C   UNL     1     -11.627  11.266  66.165  1.00  0.00     0.283 A  
ENDROOT
BRANCH   6   9
HETATM    9  C   UNL     1      -9.373   8.448  67.420  1.00  0.00    -0.148 A  
HETATM   10  C   UNL     1      -8.022   8.549  67.051  1.00  0.00    -0.100 A  
HETATM   11  C   UNL     1      -5.342   5.896  67.915  1.00  0.00    -0.004 A  
HETATM   12  C   UNL     1      -7.246   7.389  67.486  1.00  0.00    -0.094 A  
HETATM   13  O   UNL     1      -5.654   3.785  68.905  1.00  0.00    -0.016 OA 
HETATM   14  C   UNL     1      -8.058   6.419  68.069  1.00  0.00    -0.116 A  
HETATM   15  H   UNL     1      -4.721   3.619  68.835  1.00  0.00     0.000 HD 
HETATM   16  C   UNL     1      -5.849   7.111  67.444  1.00  0.00    -0.025 A  
HETATM   17  S   UNL     1      -9.689   6.901  68.106  1.00  0.00    -0.133 SA 
HETATM   18  C   UNL     1      -7.556   5.200  68.564  1.00  0.00    -0.079 A  
HETATM   19  C   UNL     1      -6.193   4.956  68.462  1.00  0.00    -0.031 A  
BRANCH  10  20
HETATM   20  C   UNL     1      -7.450   9.753  66.445  1.00  0.00    -0.099 C  
HETATM   21  O   UNL     1      -6.945   9.699  65.323  1.00  0.00    -0.091 OA 
BRANCH  20  22
HETATM   22  C   UNL     1      -7.447  11.084  67.129  1.00  0.00    -0.117 A  
HETATM   23  C   UNL     1      -7.804  13.543  68.502  1.00  0.00    -0.125 A  
HETATM   24  C   UNL     1      -6.988  13.477  67.368  1.00  0.00    -0.086 A  
HETATM   25  C   UNL     1      -8.235  11.162  68.280  1.00  0.00    -0.134 A  
HETATM   26  C   UNL     1      -6.809  12.252  66.680  1.00  0.00     0.379 A  
HETATM   27  C   UNL     1      -8.432  12.377  68.938  1.00  0.00     0.263 A  
BRANCH  23  28
HETATM   28  O   UNL     1      -7.940  14.771  69.139  1.00  0.00    -0.156 OA 
BRANCH  28  29
HETATM   29  C   UNL     1      -7.772  15.864  68.220  1.00  0.00    -0.137 C  
BRANCH  29  30
HETATM   30  C   UNL     1      -8.573  17.152  68.487  1.00  0.00    -0.258 C  
BRANCH  30  31
HETATM   31  N   UNL     1      -9.014  17.775  67.207  1.00  0.00    -0.243 NA 
HETATM   32  C   UNL     1     -10.317  17.298  66.709  1.00  0.00    -0.308 C  
HETATM   33  C   UNL     1     -11.450  17.632  67.675  1.00  0.00     0.753 C  
HETATM   34  C   UNL     1     -11.563  19.145  67.819  1.00  0.00     1.152 C  
HETATM   35  C   UNL     1     -10.211  19.811  68.100  1.00  0.00    -0.577 C  
HETATM   36  C   UNL     1      -9.052  19.244  67.268  1.00  0.00    -0.297 C  
ENDBRANCH  30  31
ENDBRANCH  29  30
ENDBRANCH  28  29
ENDBRANCH  23  28
ENDBRANCH  20  22
ENDBRANCH  10  20
ENDBRANCH   6   9
TORSDOF 7
ENDMDL
MODEL      249
REMARK 921   NORMALIZED FREE ENERGY PREDICTED BY IDOCK:   10.25 KCAL/MOL
REMARK 922        TOTAL FREE ENERGY PREDICTED BY IDOCK:   12.37 KCAL/MOL
REMARK 923 INTER-LIGAND FREE ENERGY PREDICTED BY IDOCK:   11.90 KCAL/MOL
REMARK 924 INTRA-LIGAND FREE ENERGY PREDICTED BY IDOCK:    0.47 KCAL/MOL
REMARK 927      BINDING AFFINITY PREDICTED BY RF-SCORE:    0.00 PKD
ROOT
HETATM    1  O   UNL     1      -8.352   3.061  74.507  1.00  0.00    -0.068 OA 
HETATM    2  H   UNL     1      -9.014   2.838  75.150  1.00  0.00     0.000 HD 
HETATM    3  C   UNL     1      -8.676   3.404  73.230  1.00  0.00    -0.081 A  
HETATM    4  C   UNL     1      -7.707   3.730  72.289  1.00  0.00    -0.067 A  
HETATM    5  C   UNL     1      -8.091   4.137  71.001  1.00  0.00    -0.071 A  
HETATM    6  C   UNL     1      -9.445   4.205  70.630  1.00  0.00    -0.242 A  
HETATM    7  C   UNL     1     -10.394   3.805  71.591  1.00  0.00     0.064 A  
HETATM    8  C   UNL     1     -10.014   3.425  72.886  1.00  0.00    -0.214 A  
ENDROOT
BRANCH   6   9
HETATM    9  C   UNL     1      -9.878   4.745  69.304  1.00  0.00    -0.199 A  
HETATM   10  C   UNL     1     -10.012   6.045  68.791  1.00  0.00    -0.186 A  
HETATM   11  C   UNL     1     -10.970   6.831  65.125  1.00  0.00     5.667 A  
HETATM   12  C   UNL     1     -10.411   6.041  67.383  1.00  0.00    -0.268 A  
HETATM   13  O   UNL     1     -11.641   5.328  63.445  1.00  0.00     2.133 OA 
HETATM   14  C   UNL     1     -10.659   4.749  66.926  1.00  0.00     0.046 A  
HETATM   15  H   UNL     1     -11.752   6.055  62.844  1.00  0.00     0.000 HD 
HETATM   16  C   UNL     1     -10.548   7.093  66.432  1.00  0.00     0.269 A  
HETATM   17  S   UNL     1     -10.404   3.588  68.143  1.00  0.00     1.924 SA 
HETATM   18  C   UNL     1     -11.067   4.471  65.606  1.00  0.00     0.327 A  
HETATM   19  C   UNL     1     -11.229   5.534  64.728  1.00  0.00     2.930 A  
BRANCH  10  20
HETATM   20  C   UNL     1      -9.639   7.242  69.546  1.00  0.00    -0.155 C  
HETATM   21  O   UNL     1      -9.878   7.310  70.753  1.00  0.00    -0.179 OA 
BRANCH  20  22
HETATM   22  C   UNL     1      -8.963   8.420  68.919  1.00  0.00    -0.146 A  
HETATM   23  C   UNL     1      -7.423  10.410  67.602  1.00  0.00    -0.089 A  
HETATM   24  C   UNL     1      -8.029  10.682  68.833  1.00  0.00    -0.132 A  
HETATM   25  C   UNL     1      -8.375   8.175  67.675  1.00  0.00    -0.127 A  
HETATM   26  C   UNL     1      -8.795   9.691  69.493  1.00  0.00    -0.197 A  
HETATM   27  C   UNL     1      -7.596   9.144  67.042  1.00  0.00    -0.091 A  
BRANCH  23  28
HETATM   28  O   UNL     1      -6.684  11.421  66.999  1.00  0.00    -0.108 OA 
BRANCH  28  29
HETATM   29  C   UNL     1      -5.949  12.188  67.968  1.00  0.00    -0.062 C  
BRANCH  29  30
HETATM   30  C   UNL     1      -6.400  13.638  68.223  1.00  0.00    -0.107 C  
BRANCH  30  31
HETATM   31  N   UNL     1      -5.341  14.402  68.941  1.00  0.00    -0.085 NA 
HETATM   32  C   UNL     1      -5.407  15.863  68.755  1.00  0.00    -0.104 C  
HETATM   33  C   UNL     1      -6.703  16.447  69.308  1.00  0.00    -0.215 C  
HETATM   34  C   UNL     1      -6.774  16.192  70.809  1.00  0.00     1.426 C  
HETATM   35  C   UNL     1      -6.476  14.733  71.172  1.00  0.00     0.416 C  
HETATM   36  C   UNL     1      -5.310  14.120  70.384  1.00  0.00    -0.109 C  
ENDBRANCH  30  31
ENDBRANCH  29  30
ENDBRANCH  28  29
ENDBRANCH  23  28
ENDBRANCH  20  22
ENDBRANCH  10  20
ENDBRANCH   6   9
TORSDOF 7
ENDMDL
MODEL      250
REMARK 921   NORMALIZED FREE ENERGY PREDICTED BY IDOCK:   11.81 KCAL/MOL
REMARK 922        TOTAL FREE ENERGY PREDICTED BY IDOCK:   14.56 KCAL/MOL
REMARK 923 INTER-LIGAND FREE ENERGY PREDICTED BY IDOCK:   16.67 KCAL/MOL
REMARK 924 INTRA-LIGAND FREE ENERGY PREDICTED BY IDOCK:   -2.11 KCAL/MOL
REMARK 927      BINDING AFFINITY PREDICTED BY RF-SCORE:    0.00 PKD
ROOT
HETATM    1  O   UNL     1     -11.702   3.623  65.504  1.00  0.00     1.239 OA 
HETATM    2  H   UNL     1     -11.619   3.692  64.560  1.00  0.00     0.000 HD 
HETATM    3  C   UNL     1     -11.629   4.716  66.314  1.00  0.00     2.847 A  
HETATM    4  C   UNL     1     -11.751   4.616  67.693  1.00  0.00     6.256 A  
HETATM    5  C   UNL     1     -11.730   5.776  68.484  1.00  0.00     1.747 A  
HETATM    6  C   UNL     1     -11.568   7.049  67.909  1.00  0.00     0.678 A  
HETATM    7  C   UNL     1     -11.384   7.103  66.514  1.00  0.00     1.321 A  
HETATM    8  C   UNL     1     -11.432   5.948  65.720  1.00  0.00     2.004 A  
ENDROOT
BRANCH   6   9
HETATM    9  C   UNL     1     -11.660   8.302  68.719  1.00  0.00     1.308 A  
HETATM   10  C   UNL     1     -10.948   9.512  68.707  1.00  0.00    -0.116 A  
HETATM   11  C   UNL     1     -11.816  12.553  70.936  1.00  0.00     0.305 A  
HETATM   12  C   UNL     1     -11.480  10.473  69.672  1.00  0.00    -0.349 A  
HETATM   13  O   UNL     1     -13.405  12.680  72.665  1.00  0.00    -0.530 OA 
HETATM   14  C   UNL     1     -12.499   9.915  70.441  1.00  0.00    -0.039 A  
HETATM   15  H   UNL     1     -13.151  13.580  72.828  1.00  0.00     0.000 HD 
HETATM   16  C   UNL     1     -11.166  11.840  69.925  1.00  0.00    -0.093 A  
HETATM   17  S   UNL     1     -12.810   8.301  70.000  1.00  0.00     2.229 SA 
HETATM   18  C   UNL     1     -13.174  10.630  71.450  1.00  0.00    -0.420 A  
HETATM   19  C   UNL     1     -12.802  11.946  71.688  1.00  0.00    -0.312 A  
BRANCH  10  20
HETATM   20  C   UNL     1      -9.903   9.811  67.725  1.00  0.00    -0.160 C  
HETATM   21  O   UNL     1     -10.064  10.720  66.910  1.00  0.00    -0.197 OA 
BRANCH  20  22
HETATM   22  C   UNL     1      -8.614   9.055  67.656  1.00  0.00    -0.120 A  
HETATM   23  C   UNL     1      -6.325   7.426  67.244  1.00  0.00    -0.055 A  
HETATM   24  C   UNL     1      -6.705   7.801  68.537  1.00  0.00    -0.058 A  
HETATM   25  C   UNL     1      -8.204   8.696  66.370  1.00  0.00    -0.111 A  
HETATM   26  C   UNL     1      -7.847   8.611  68.746  1.00  0.00    -0.106 A  
HETATM   27  C   UNL     1      -7.095   7.872  66.170  1.00  0.00    -0.062 A  
BRANCH  23  28
HETATM   28  O   UNL     1      -5.194   6.631  67.099  1.00  0.00    -0.008 OA 
BRANCH  28  29
HETATM   29  C   UNL     1      -5.287   5.432  67.886  1.00  0.00    -0.008 C  
BRANCH  29  30
HETATM   30  C   UNL     1      -5.663   4.128  67.159  1.00  0.00    -0.022 C  
BRANCH  30  31
HETATM   31  N   UNL     1      -7.017   3.663  67.574  1.00  0.00    -0.054 NA 
HETATM   32  C   UNL     1      -8.121   4.551  67.169  1.00  0.00    -0.102 C  
HETATM   33  C   UNL     1      -8.233   4.661  65.651  1.00  0.00    -0.115 C  
HETATM   34  C   UNL     1      -8.538   3.287  65.066  1.00  0.00    -0.104 C  
HETATM   35  C   UNL     1      -7.601   2.199  65.602  1.00  0.00    -0.071 C  
HETATM   36  C   UNL     1      -7.323   2.302  67.108  1.00  0.00    -0.056 C  
ENDBRANCH  30  31
ENDBRANCH  29  30
ENDBRANCH  28  29
ENDBRANCH  23  28
ENDBRANCH  20  22
ENDBRANCH  10  20
ENDBRANCH   6   9
TORSDOF 7
ENDMDL
MODEL      251
REMARK 921   NORMALIZED FREE ENERGY PREDICTED BY IDOCK:   12.97 KCAL/MOL
REMARK 922        TOTAL FREE ENERGY PREDICTED BY IDOCK:   16.20 KCAL/MOL
REMARK 923 INTER-LIGAND FREE ENERGY PREDICTED BY IDOCK:   13.46 KCAL/MOL
REMARK 924 INTRA-LIGAND FREE ENERGY PREDICTED BY IDOCK:    2.74 KCAL/MOL
REMARK 927      BINDING AFFINITY PREDICTED BY RF-SCORE:    0.00 PKD
ROOT
HETATM    1  O   UNL     1     -12.629  13.838  62.443  1.00  0.00    -0.291 OA 
HETATM    2  H   UNL     1     -13.286  14.265  61.906  1.00  0.00     0.000 HD 
HETATM    3  C   UNL     1     -12.630  13.945  63.801  1.00  0.00     0.072 A  
HETATM    4  C   UNL     1     -11.669  13.321  64.586  1.00  0.00    -0.403 A  
HETATM    5  C   UNL     1     -11.744  13.409  65.986  1.00  0.00    -0.398 A  
HETATM    6  C   UNL     1     -12.767  14.136  66.618  1.00  0.00     0.121 A  
HETATM    7  C   UNL     1     -13.685  14.807  65.787  1.00  0.00     2.482 A  
HETATM    8  C   UNL     1     -13.627  14.699  64.389  1.00  0.00     2.533 A  
ENDROOT
BRANCH   6   9
HETATM    9  C   UNL     1     -12.932  14.145  68.104  1.00  0.00     1.948 A  
HETATM   10  C   UNL     1     -12.958  13.134  69.078  1.00  0.00     1.645 A  
HETATM   11  C   UNL     1     -13.181  13.802  72.883  1.00  0.00    -0.345 A  
HETATM   12  C   UNL     1     -13.075  13.676  70.431  1.00  0.00     0.129 A  
HETATM   13  O   UNL     1     -13.521  15.855  73.979  1.00  0.00    -0.758 OA 
HETATM   14  C   UNL     1     -13.236  15.060  70.415  1.00  0.00    -0.110 A  
HETATM   15  H   UNL     1     -13.509  15.405  74.816  1.00  0.00     0.000 HD 
HETATM   16  C   UNL     1     -13.020  13.055  71.712  1.00  0.00    -0.420 A  
HETATM   17  S   UNL     1     -13.228  15.678  68.830  1.00  0.00     2.909 SA 
HETATM   18  C   UNL     1     -13.381  15.825  71.589  1.00  0.00    -0.428 A  
HETATM   19  C   UNL     1     -13.364  15.168  72.811  1.00  0.00    -0.496 A  
BRANCH  10  20
HETATM   20  C   UNL     1     -12.732  11.721  68.764  1.00  0.00     1.331 C  
HETATM   21  O   UNL     1     -13.393  10.850  69.331  1.00  0.00     0.446 OA 
BRANCH  20  22
HETATM   22  C   UNL     1     -11.717  11.263  67.765  1.00  0.00    -0.254 A  
HETATM   23  C   UNL     1      -9.901  10.045  65.954  1.00  0.00    -0.264 A  
HETATM   24  C   UNL     1      -9.525  11.180  66.679  1.00  0.00    -0.204 A  
HETATM   25  C   UNL     1     -12.087  10.147  67.011  1.00  0.00     3.630 A  
HETATM   26  C   UNL     1     -10.427  11.789  67.584  1.00  0.00    -0.223 A  
HETATM   27  C   UNL     1     -11.185   9.532  66.142  1.00  0.00     1.541 A  
BRANCH  23  28
HETATM   28  O   UNL     1      -8.975   9.491  65.078  1.00  0.00    -0.188 OA 
BRANCH  28  29
HETATM   29  C   UNL     1      -7.626   9.762  65.495  1.00  0.00    -0.118 C  
BRANCH  29  30
HETATM   30  C   UNL     1      -7.378  10.006  66.995  1.00  0.00    -0.091 C  
BRANCH  30  31
HETATM   31  N   UNL     1      -6.276  10.990  67.194  1.00  0.00    -0.067 NA 
HETATM   32  C   UNL     1      -6.715  12.316  67.664  1.00  0.00    -0.126 C  
HETATM   33  C   UNL     1      -7.377  12.241  69.036  1.00  0.00     0.017 C  
HETATM   34  C   UNL     1      -6.368  11.726  70.057  1.00  0.00    -0.092 C  
HETATM   35  C   UNL     1      -5.644  10.462  69.581  1.00  0.00    -0.039 C  
HETATM   36  C   UNL     1      -5.228  10.501  68.104  1.00  0.00    -0.033 C  
ENDBRANCH  30  31
ENDBRANCH  29  30
ENDBRANCH  28  29
ENDBRANCH  23  28
ENDBRANCH  20  22
ENDBRANCH  10  20
ENDBRANCH   6   9
TORSDOF 7
ENDMDL
MODEL      252
REMARK 921   NORMALIZED FREE ENERGY PREDICTED BY IDOCK:   13.48 KCAL/MOL
REMARK 922        TOTAL FREE ENERGY PREDICTED BY IDOCK:   16.92 KCAL/MOL
REMARK 923 INTER-LIGAND FREE ENERGY PREDICTED BY IDOCK:   14.11 KCAL/MOL
REMARK 924 INTRA-LIGAND FREE ENERGY PREDICTED BY IDOCK:    2.82 KCAL/MOL
REMARK 927      BINDING AFFINITY PREDICTED BY RF-SCORE:    0.00 PKD
ROOT
HETATM    1  O   UNL     1      -5.663  11.265  73.240  1.00  0.00     0.632 OA 
HETATM    2  H   UNL     1      -4.807  11.340  73.646  1.00  0.00     0.000 HD 
HETATM    3  C   UNL     1      -6.126  12.196  72.360  1.00  0.00     2.949 A  
HETATM    4  C   UNL     1      -7.377  12.086  71.767  1.00  0.00     8.679 A  
HETATM    5  C   UNL     1      -7.788  13.038  70.820  1.00  0.00     5.516 A  
HETATM    6  C   UNL     1      -6.965  14.120  70.466  1.00  0.00     0.517 A  
HETATM    7  C   UNL     1      -5.731  14.232  71.136  1.00  0.00    -0.210 A  
HETATM    8  C   UNL     1      -5.307  13.268  72.063  1.00  0.00    -0.028 A  
ENDROOT
BRANCH   6   9
HETATM    9  C   UNL     1      -7.334  15.076  69.378  1.00  0.00    -0.194 A  
HETATM   10  C   UNL     1      -8.311  15.058  68.370  1.00  0.00    -0.154 A  
HETATM   11  C   UNL     1      -8.959  17.996  65.936  1.00  0.00     0.172 A  
HETATM   12  C   UNL     1      -8.313  16.291  67.584  1.00  0.00    -0.172 A  
HETATM   13  O   UNL     1      -7.719  19.979  65.690  1.00  0.00    -0.405 OA 
HETATM   14  C   UNL     1      -7.275  17.140  67.962  1.00  0.00    -0.184 A  
HETATM   15  H   UNL     1      -8.301  20.251  64.991  1.00  0.00     0.000 HD 
HETATM   16  C   UNL     1      -9.183  16.765  66.560  1.00  0.00    -0.294 A  
HETATM   17  S   UNL     1      -6.349  16.480  69.227  1.00  0.00    -0.205 SA 
HETATM   18  C   UNL     1      -7.050  18.390  67.353  1.00  0.00    -0.209 A  
HETATM   19  C   UNL     1      -7.900  18.789  66.331  1.00  0.00    -0.278 A  
BRANCH  10  20
HETATM   20  C   UNL     1      -9.304  13.989  68.242  1.00  0.00    -0.208 C  
HETATM   21  O   UNL     1     -10.506  14.257  68.257  1.00  0.00    -0.235 OA 
BRANCH  20  22
HETATM   22  C   UNL     1      -8.930  12.549  68.086  1.00  0.00    -0.199 A  
HETATM   23  C   UNL     1      -7.954   9.935  67.555  1.00  0.00    -0.106 A  
HETATM   24  C   UNL     1      -9.325  10.161  67.719  1.00  0.00    -0.153 A  
HETATM   25  C   UNL     1      -7.562  12.301  67.948  1.00  0.00    -0.127 A  
HETATM   26  C   UNL     1      -9.815  11.463  67.982  1.00  0.00    -0.191 A  
HETATM   27  C   UNL     1      -7.085  11.021  67.659  1.00  0.00    -0.088 A  
BRANCH  23  28
HETATM   28  O   UNL     1      -7.531   8.636  67.300  1.00  0.00    -0.087 OA 
BRANCH  28  29
HETATM   29  C   UNL     1      -7.602   7.817  68.479  1.00  0.00    -0.105 C  
BRANCH  29  30
HETATM   30  C   UNL     1      -6.871   6.462  68.452  1.00  0.00    -0.071 C  
BRANCH  30  31
HETATM   31  N   UNL     1      -7.600   5.484  67.597  1.00  0.00    -0.088 NA 
HETATM   32  C   UNL     1      -8.614   6.083  66.709  1.00  0.00    -0.110 C  
HETATM   33  C   UNL     1      -7.989   7.041  65.700  1.00  0.00    -0.123 C  
HETATM   34  C   UNL     1      -7.021   6.274  64.806  1.00  0.00    -0.051 C  
HETATM   35  C   UNL     1      -6.049   5.400  65.607  1.00  0.00    -0.033 C  
HETATM   36  C   UNL     1      -6.702   4.655  66.779  1.00  0.00    -0.051 C  
ENDBRANCH  30  31
ENDBRANCH  29  30
ENDBRANCH  28  29
ENDBRANCH  23  28
ENDBRANCH  20  22
ENDBRANCH  10  20
ENDBRANCH   6   9
TORSDOF 7
ENDMDL
MODEL      253
REMARK 921   NORMALIZED FREE ENERGY PREDICTED BY IDOCK:   24.47 KCAL/MOL
REMARK 922        TOTAL FREE ENERGY PREDICTED BY IDOCK:   32.41 KCAL/MOL
REMARK 923 INTER-LIGAND FREE ENERGY PREDICTED BY IDOCK:   32.94 KCAL/MOL
REMARK 924 INTRA-LIGAND FREE ENERGY PREDICTED BY IDOCK:   -0.53 KCAL/MOL
REMARK 927      BINDING AFFINITY PREDICTED BY RF-SCORE:    0.00 PKD
ROOT
HETATM    1  O   UNL     1      -8.005   2.574  73.492  1.00  0.00    -0.056 OA 
HETATM    2  H   UNL     1      -8.192   1.820  74.039  1.00  0.00     0.000 HD 
HETATM    3  C   UNL     1      -8.428   2.648  72.199  1.00  0.00    -0.066 A  
HETATM    4  C   UNL     1      -8.156   3.750  71.400  1.00  0.00    -0.068 A  
HETATM    5  C   UNL     1      -8.663   3.808  70.092  1.00  0.00    -0.119 A  
HETATM    6  C   UNL     1      -9.434   2.760  69.559  1.00  0.00    -0.147 A  
HETATM    7  C   UNL     1      -9.635   1.632  70.379  1.00  0.00    -0.116 A  
HETATM    8  C   UNL     1      -9.150   1.583  71.695  1.00  0.00    -0.128 A  
ENDROOT
BRANCH   6   9
HETATM    9  C   UNL     1     -10.080   2.854  68.214  1.00  0.00     1.080 A  
HETATM   10  C   UNL     1     -11.015   3.738  67.654  1.00  0.00     3.911 A  
HETATM   11  C   UNL     1     -12.159   3.616  63.959  1.00  0.00     3.515 A  
HETATM   12  C   UNL     1     -11.278   3.440  66.246  1.00  0.00     4.619 A  
HETATM   13  O   UNL     1     -11.646   1.997  62.333  1.00  0.00    -0.214 OA 
HETATM   14  C   UNL     1     -10.614   2.287  65.835  1.00  0.00     3.010 A  
HETATM   15  H   UNL     1     -12.188   2.461  61.706  1.00  0.00     0.000 HD 
HETATM   16  C   UNL     1     -12.043   4.123  65.257  1.00  0.00     4.160 A  
HETATM   17  S   UNL     1      -9.696   1.604  67.094  1.00  0.00     0.618 SA 
HETATM   18  C   UNL     1     -10.708   1.777  64.525  1.00  0.00     0.886 A  
HETATM   19  C   UNL     1     -11.500   2.455  63.609  1.00  0.00     0.743 A  
BRANCH  10  20
HETATM   20  C   UNL     1     -11.531   4.908  68.367  1.00  0.00     3.743 C  
HETATM   21  O   UNL     1     -12.607   4.843  68.962  1.00  0.00    10.150 OA 
BRANCH  20  22
HETATM   22  C   UNL     1     -10.804   6.215  68.416  1.00  0.00    -0.382 A  
HETATM   23  C   UNL     1      -9.242   8.554  68.807  1.00  0.00    -0.142 A  
HETATM   24  C   UNL     1     -10.579   8.653  68.408  1.00  0.00    -0.169 A  
HETATM   25  C   UNL     1      -9.459   6.133  68.786  1.00  0.00    -0.128 A  
HETATM   26  C   UNL     1     -11.361   7.489  68.214  1.00  0.00     0.566 A  
HETATM   27  C   UNL     1      -8.700   7.284  69.005  1.00  0.00    -0.132 A  
BRANCH  23  28
HETATM   28  O   UNL     1      -8.522   9.730  68.980  1.00  0.00    -0.122 OA 
BRANCH  28  29
HETATM   29  C   UNL     1      -9.366  10.888  68.866  1.00  0.00    -0.160 C  
BRANCH  29  30
HETATM   30  C   UNL     1      -9.245  11.737  67.587  1.00  0.00    -0.180 C  
BRANCH  30  31
HETATM   31  N   UNL     1     -10.592  12.098  67.063  1.00  0.00    -0.223 NA 
HETATM   32  C   UNL     1     -11.433  12.858  68.005  1.00  0.00    -0.319 C  
HETATM   33  C   UNL     1     -10.815  14.208  68.355  1.00  0.00    -0.266 C  
HETATM   34  C   UNL     1     -10.698  15.054  67.093  1.00  0.00    -0.303 C  
HETATM   35  C   UNL     1     -10.050  14.289  65.932  1.00  0.00    -0.344 C  
HETATM   36  C   UNL     1     -10.534  12.839  65.794  1.00  0.00    -0.276 C  
ENDBRANCH  30  31
ENDBRANCH  29  30
ENDBRANCH  28  29
ENDBRANCH  23  28
ENDBRANCH  20  22
ENDBRANCH  10  20
ENDBRANCH   6   9
TORSDOF 7
ENDMDL
MODEL      254
REMARK 921   NORMALIZED FREE ENERGY PREDICTED BY IDOCK:   26.33 KCAL/MOL
REMARK 922        TOTAL FREE ENERGY PREDICTED BY IDOCK:   35.02 KCAL/MOL
REMARK 923 INTER-LIGAND FREE ENERGY PREDICTED BY IDOCK:   26.50 KCAL/MOL
REMARK 924 INTRA-LIGAND FREE ENERGY PREDICTED BY IDOCK:    8.52 KCAL/MOL
REMARK 927      BINDING AFFINITY PREDICTED BY RF-SCORE:    0.00 PKD
ROOT
HETATM    1  O   UNL     1      -7.733  10.794  66.548  1.00  0.00    -0.132 OA 
HETATM    2  H   UNL     1      -7.668  10.799  65.601  1.00  0.00     0.000 HD 
HETATM    3  C   UNL     1      -8.006  11.925  67.256  1.00  0.00    -0.171 A  
HETATM    4  C   UNL     1      -8.102  11.918  68.642  1.00  0.00    -0.086 A  
HETATM    5  C   UNL     1      -8.445  13.095  69.326  1.00  0.00     0.818 A  
HETATM    6  C   UNL     1      -8.679  14.298  68.638  1.00  0.00    -0.150 A  
HETATM    7  C   UNL     1      -8.511  14.280  67.239  1.00  0.00    -0.226 A  
HETATM    8  C   UNL     1      -8.193  13.099  66.552  1.00  0.00     0.455 A  
ENDROOT
BRANCH   6   9
HETATM    9  C   UNL     1      -9.159  15.531  69.335  1.00  0.00    -0.280 A  
HETATM   10  C   UNL     1     -10.246  15.798  70.182  1.00  0.00    -0.169 A  
HETATM   11  C   UNL     1     -10.851  19.207  71.911  1.00  0.00     4.143 A  
HETATM   12  C   UNL     1     -10.236  17.177  70.670  1.00  0.00     1.735 A  
HETATM   13  O   UNL     1      -9.679  21.222  71.599  1.00  0.00     1.572 OA 
HETATM   14  C   UNL     1      -9.208  17.917  70.091  1.00  0.00     2.264 A  
HETATM   15  H   UNL     1     -10.259  21.650  72.218  1.00  0.00     0.000 HD 
HETATM   16  C   UNL     1     -11.050  17.853  71.625  1.00  0.00     2.681 A  
HETATM   17  S   UNL     1      -8.282  16.978  69.017  1.00  0.00    -0.053 SA 
HETATM   18  C   UNL     1      -8.986  19.276  70.386  1.00  0.00     1.825 A  
HETATM   19  C   UNL     1      -9.833  19.902  71.291  1.00  0.00     2.289 A  
BRANCH  10  20
HETATM   20  C   UNL     1     -11.175  14.761  70.636  1.00  0.00    -0.131 C  
HETATM   21  O   UNL     1     -11.970  15.001  71.546  1.00  0.00    -0.314 OA 
BRANCH  20  22
HETATM   22  C   UNL     1     -11.217  13.390  70.039  1.00  0.00     0.119 A  
HETATM   23  C   UNL     1     -11.667  10.804  68.956  1.00  0.00    -0.286 A  
HETATM   24  C   UNL     1     -10.540  11.056  69.745  1.00  0.00    -0.055 A  
HETATM   25  C   UNL     1     -12.322  13.129  69.226  1.00  0.00    -0.013 A  
HETATM   26  C   UNL     1     -10.313  12.344  70.288  1.00  0.00     2.656 A  
HETATM   27  C   UNL     1     -12.558  11.851  68.717  1.00  0.00     0.882 A  
BRANCH  23  28
HETATM   28  O   UNL     1     -11.838   9.522  68.448  1.00  0.00     0.612 OA 
BRANCH  28  29
HETATM   29  C   UNL     1     -10.617   9.010  67.888  1.00  0.00    -0.196 C  
BRANCH  29  30
HETATM   30  C   UNL     1      -9.823   9.930  66.942  1.00  0.00    -0.199 C  
BRANCH  30  31
HETATM   31  N   UNL     1     -10.397   9.896  65.567  1.00  0.00    -0.126 NA 
HETATM   32  C   UNL     1      -9.520  10.454  64.522  1.00  0.00    -0.286 C  
HETATM   33  C   UNL     1      -8.224   9.661  64.386  1.00  0.00    -0.157 C  
HETATM   34  C   UNL     1      -8.547   8.231  63.969  1.00  0.00     0.142 C  
HETATM   35  C   UNL     1      -9.643   7.600  64.835  1.00  0.00     1.814 C  
HETATM   36  C   UNL     1     -10.810   8.547  65.151  1.00  0.00     5.530 C  
ENDBRANCH  30  31
ENDBRANCH  29  30
ENDBRANCH  28  29
ENDBRANCH  23  28
ENDBRANCH  20  22
ENDBRANCH  10  20
ENDBRANCH   6   9
TORSDOF 7
ENDMDL
MODEL      255
REMARK 921   NORMALIZED FREE ENERGY PREDICTED BY IDOCK:   27.55 KCAL/MOL
REMARK 922        TOTAL FREE ENERGY PREDICTED BY IDOCK:   36.74 KCAL/MOL
REMARK 923 INTER-LIGAND FREE ENERGY PREDICTED BY IDOCK:   34.22 KCAL/MOL
REMARK 924 INTRA-LIGAND FREE ENERGY PREDICTED BY IDOCK:    2.53 KCAL/MOL
REMARK 927      BINDING AFFINITY PREDICTED BY RF-SCORE:    0.00 PKD
ROOT
HETATM    1  O   UNL     1     -10.782   7.554  71.176  1.00  0.00    -0.225 OA 
HETATM    2  H   UNL     1     -10.768   6.718  70.725  1.00  0.00     0.000 HD 
HETATM    3  C   UNL     1     -10.173   8.658  70.661  1.00  0.00    -0.198 A  
HETATM    4  C   UNL     1     -10.193   9.881  71.319  1.00  0.00     0.384 A  
HETATM    5  C   UNL     1      -9.603  11.007  70.723  1.00  0.00     3.628 A  
HETATM    6  C   UNL     1      -8.970  10.923  69.471  1.00  0.00     0.232 A  
HETATM    7  C   UNL     1      -8.914   9.652  68.865  1.00  0.00    -0.144 A  
HETATM    8  C   UNL     1      -9.526   8.532  69.447  1.00  0.00    -0.161 A  
ENDROOT
BRANCH   6   9
HETATM    9  C   UNL     1      -8.440  12.131  68.767  1.00  0.00     0.096 A  
HETATM   10  C   UNL     1      -8.655  13.509  68.923  1.00  0.00     0.209 A  
HETATM   11  C   UNL     1      -6.775  16.231  66.915  1.00  0.00    -0.165 A  
HETATM   12  C   UNL     1      -7.827  14.301  68.014  1.00  0.00    -0.143 A  
HETATM   13  O   UNL     1      -5.288  15.941  65.116  1.00  0.00     5.073 OA 
HETATM   14  C   UNL     1      -7.102  13.489  67.144  1.00  0.00     0.242 A  
HETATM   15  H   UNL     1      -5.196  16.884  65.046  1.00  0.00     0.000 HD 
HETATM   16  C   UNL     1      -7.620  15.706  67.898  1.00  0.00    -0.143 A  
HETATM   17  S   UNL     1      -7.398  11.838  67.427  1.00  0.00    -0.146 SA 
HETATM   18  C   UNL     1      -6.233  14.006  66.163  1.00  0.00     5.640 A  
HETATM   19  C   UNL     1      -6.098  15.384  66.061  1.00  0.00     4.883 A  
BRANCH  10  20
HETATM   20  C   UNL     1      -9.495  14.069  69.984  1.00  0.00     1.742 C  
HETATM   21  O   UNL     1      -9.763  13.395  70.979  1.00  0.00     5.805 OA 
BRANCH  20  22
HETATM   22  C   UNL     1     -10.060  15.453  69.927  1.00  0.00    -0.253 A  
HETATM   23  C   UNL     1     -11.120  18.043  69.444  1.00  0.00     1.541 A  
HETATM   24  C   UNL     1     -10.230  17.827  70.502  1.00  0.00     1.859 A  
HETATM   25  C   UNL     1     -10.972  15.680  68.893  1.00  0.00    -0.266 A  
HETATM   26  C   UNL     1      -9.699  16.537  70.744  1.00  0.00     2.474 A  
HETATM   27  C   UNL     1     -11.471  16.959  68.639  1.00  0.00     0.211 A  
BRANCH  23  28
HETATM   28  O   UNL     1     -11.611  19.329  69.255  1.00  0.00     3.207 OA 
BRANCH  28  29
HETATM   29  C   UNL     1     -10.559  20.254  68.932  1.00  0.00     0.308 C  
BRANCH  29  30
HETATM   30  C   UNL     1      -9.163  19.675  68.639  1.00  0.00    -0.302 C  
BRANCH  30  31
HETATM   31  N   UNL     1      -8.430  20.530  67.664  1.00  0.00    -0.233 NA 
HETATM   32  C   UNL     1      -7.142  21.053  68.154  1.00  0.00     0.116 C  
HETATM   33  C   UNL     1      -6.153  19.932  68.456  1.00  0.00    -0.291 C  
HETATM   34  C   UNL     1      -5.854  19.161  67.175  1.00  0.00    -0.170 C  
HETATM   35  C   UNL     1      -7.127  18.761  66.420  1.00  0.00    -0.258 C  
HETATM   36  C   UNL     1      -8.197  19.861  66.375  1.00  0.00    -0.335 C  
ENDBRANCH  30  31
ENDBRANCH  29  30
ENDBRANCH  28  29
ENDBRANCH  23  28
ENDBRANCH  20  22
ENDBRANCH  10  20
ENDBRANCH   6   9
TORSDOF 7
ENDMDL
MODEL      256
REMARK 921   NORMALIZED FREE ENERGY PREDICTED BY IDOCK:   30.25 KCAL/MOL
REMARK 922        TOTAL FREE ENERGY PREDICTED BY IDOCK:   40.55 KCAL/MOL
REMARK 923 INTER-LIGAND FREE ENERGY PREDICTED BY IDOCK:   26.84 KCAL/MOL
REMARK 924 INTRA-LIGAND FREE ENERGY PREDICTED BY IDOCK:   13.71 KCAL/MOL
REMARK 927      BINDING AFFINITY PREDICTED BY RF-SCORE:    0.00 PKD
ROOT
HETATM    1  O   UNL     1      -8.556   6.586  70.918  1.00  0.00    -0.133 OA 
HETATM    2  H   UNL     1      -9.384   6.227  71.215  1.00  0.00     0.000 HD 
HETATM    3  C   UNL     1      -8.473   7.815  70.336  1.00  0.00    -0.132 A  
HETATM    4  C   UNL     1      -7.264   8.340  69.901  1.00  0.00    -0.059 A  
HETATM    5  C   UNL     1      -7.217   9.636  69.362  1.00  0.00    -0.071 A  
HETATM    6  C   UNL     1      -8.379  10.416  69.234  1.00  0.00    -0.161 A  
HETATM    7  C   UNL     1      -9.595   9.824  69.627  1.00  0.00    -0.239 A  
HETATM    8  C   UNL     1      -9.640   8.540  70.190  1.00  0.00    -0.174 A  
ENDROOT
BRANCH   6   9
HETATM    9  C   UNL     1      -8.334  11.838  68.772  1.00  0.00    -0.009 A  
HETATM   10  C   UNL     1      -9.322  12.765  68.408  1.00  0.00    -0.143 A  
HETATM   11  C   UNL     1      -8.595  16.458  67.507  1.00  0.00    -0.185 A  
HETATM   12  C   UNL     1      -8.756  14.077  68.094  1.00  0.00    -0.180 A  
HETATM   13  O   UNL     1      -6.505  17.502  67.239  1.00  0.00    -0.141 OA 
HETATM   14  C   UNL     1      -7.364  14.056  68.132  1.00  0.00    -0.128 A  
HETATM   15  H   UNL     1      -6.944  18.315  67.017  1.00  0.00     0.000 HD 
HETATM   16  C   UNL     1      -9.368  15.330  67.799  1.00  0.00    -0.196 A  
HETATM   17  S   UNL     1      -6.767  12.518  68.549  1.00  0.00    -0.085 SA 
HETATM   18  C   UNL     1      -6.575  15.190  67.858  1.00  0.00    -0.174 A  
HETATM   19  C   UNL     1      -7.217  16.377  67.534  1.00  0.00    -0.145 A  
BRANCH  10  20
HETATM   20  C   UNL     1     -10.755  12.477  68.495  1.00  0.00    -0.239 C  
HETATM   21  O   UNL     1     -11.255  12.149  69.572  1.00  0.00    -0.217 OA 
BRANCH  20  22
HETATM   22  C   UNL     1     -11.673  12.563  67.317  1.00  0.00    -0.431 A  
HETATM   23  C   UNL     1     -13.106  12.702  64.869  1.00  0.00     0.204 A  
HETATM   24  C   UNL     1     -13.509  13.464  65.970  1.00  0.00     1.857 A  
HETATM   25  C   UNL     1     -11.302  11.786  66.216  1.00  0.00    -0.350 A  
HETATM   26  C   UNL     1     -12.796  13.398  67.192  1.00  0.00     1.092 A  
HETATM   27  C   UNL     1     -11.990  11.876  65.005  1.00  0.00    -0.150 A  
BRANCH  23  28
HETATM   28  O   UNL     1     -13.845  12.805  63.697  1.00  0.00     1.489 OA 
BRANCH  28  29
HETATM   29  C   UNL     1     -13.380  11.883  62.696  1.00  0.00     1.945 C  
BRANCH  29  30
HETATM   30  C   UNL     1     -11.885  11.513  62.706  1.00  0.00     0.817 C  
BRANCH  30  31
HETATM   31  N   UNL     1     -11.166  12.248  63.784  1.00  0.00    -0.401 NA 
HETATM   32  C   UNL     1      -9.771  11.818  63.995  1.00  0.00    -0.178 C  
HETATM   33  C   UNL     1      -8.909  12.065  62.761  1.00  0.00     1.126 C  
HETATM   34  C   UNL     1      -8.867  13.559  62.463  1.00  0.00    11.602 C  
HETATM   35  C   UNL     1     -10.261  14.196  62.458  1.00  0.00    10.747 C  
HETATM   36  C   UNL     1     -11.175  13.706  63.589  1.00  0.00     0.285 C  
ENDBRANCH  30  31
ENDBRANCH  29  30
ENDBRANCH  28  29
ENDBRANCH  23  28
ENDBRANCH  20  22
ENDBRANCH  10  20
ENDBRANCH   6   9
TORSDOF 7
ENDMDL
MODEL      257
REMARK 921   NORMALIZED FREE ENERGY PREDICTED BY IDOCK:   56.80 KCAL/MOL
REMARK 922        TOTAL FREE ENERGY PREDICTED BY IDOCK:   77.97 KCAL/MOL
REMARK 923 INTER-LIGAND FREE ENERGY PREDICTED BY IDOCK:   62.34 KCAL/MOL
REMARK 924 INTRA-LIGAND FREE ENERGY PREDICTED BY IDOCK:   15.63 KCAL/MOL
REMARK 927      BINDING AFFINITY PREDICTED BY RF-SCORE:    0.00 PKD
ROOT
HETATM    1  O   UNL     1      -7.767  10.811  66.572  1.00  0.00    -0.132 OA 
HETATM    2  H   UNL     1      -7.636  10.830  65.631  1.00  0.00     0.000 HD 
HETATM    3  C   UNL     1      -8.309  11.864  67.244  1.00  0.00    -0.169 A  
HETATM    4  C   UNL     1      -8.500  11.837  68.619  1.00  0.00    -0.068 A  
HETATM    5  C   UNL     1      -9.117  12.922  69.262  1.00  0.00     0.954 A  
HETATM    6  C   UNL     1      -9.535  14.055  68.544  1.00  0.00    -0.191 A  
HETATM    7  C   UNL     1      -9.266  14.073  67.161  1.00  0.00    -0.240 A  
HETATM    8  C   UNL     1      -8.673  12.979  66.513  1.00  0.00     0.060 A  
ENDROOT
BRANCH   6   9
HETATM    9  C   UNL     1     -10.297  15.168  69.189  1.00  0.00    -0.249 A  
HETATM   10  C   UNL     1     -11.108  15.244  70.332  1.00  0.00    -0.324 A  
HETATM   11  C   UNL     1     -12.657  18.529  71.669  1.00  0.00    14.839 A  
HETATM   12  C   UNL     1     -11.576  16.606  70.585  1.00  0.00     0.267 A  
HETATM   13  O   UNL     1     -12.636  20.656  70.667  1.00  0.00     7.581 OA 
HETATM   14  C   UNL     1     -11.187  17.477  69.569  1.00  0.00     1.191 A  
HETATM   15  H   UNL     1     -13.149  20.997  71.390  1.00  0.00     0.000 HD 
HETATM   16  C   UNL     1     -12.306  17.175  71.668  1.00  0.00     3.238 A  
HETATM   17  S   UNL     1     -10.278  16.683  68.371  1.00  0.00    -0.303 SA 
HETATM   18  C   UNL     1     -11.519  18.846  69.568  1.00  0.00     4.310 A  
HETATM   19  C   UNL     1     -12.268  19.344  70.625  1.00  0.00    14.487 A  
BRANCH  10  20
HETATM   20  C   UNL     1     -11.316  14.112  71.238  1.00  0.00     0.747 C  
HETATM   21  O   UNL     1     -11.844  14.289  72.337  1.00  0.00     0.083 OA 
BRANCH  20  22
HETATM   22  C   UNL     1     -10.914  12.713  70.894  1.00  0.00     3.002 A  
HETATM   23  C   UNL     1     -10.460   9.949  70.427  1.00  0.00    -0.285 A  
HETATM   24  C   UNL     1      -9.388  10.810  70.685  1.00  0.00     2.478 A  
HETATM   25  C   UNL     1     -11.970  11.845  70.606  1.00  0.00    -0.289 A  
HETATM   26  C   UNL     1      -9.611  12.188  70.921  1.00  0.00     8.386 A  
HETATM   27  C   UNL     1     -11.749  10.481  70.404  1.00  0.00    -0.434 A  
BRANCH  23  28
HETATM   28  O   UNL     1     -10.181   8.606  70.201  1.00  0.00    -0.184 OA 
BRANCH  28  29
HETATM   29  C   UNL     1      -9.087   8.441  69.282  1.00  0.00    -0.150 C  
BRANCH  29  30
HETATM   30  C   UNL     1      -9.102   9.287  67.995  1.00  0.00    -0.127 C  
BRANCH  30  31
HETATM   31  N   UNL     1     -10.001   8.680  66.974  1.00  0.00    -0.223 NA 
HETATM   32  C   UNL     1      -9.750   7.252  66.707  1.00  0.00    -0.198 C  
HETATM   33  C   UNL     1      -9.988   6.393  67.945  1.00  0.00    -0.145 C  
HETATM   34  C   UNL     1     -11.448   6.510  68.369  1.00  0.00     0.036 C  
HETATM   35  C   UNL     1     -11.921   7.965  68.449  1.00  0.00     2.667 C  
HETATM   36  C   UNL     1     -11.427   8.846  67.293  1.00  0.00     1.724 C  
ENDBRANCH  30  31
ENDBRANCH  29  30
ENDBRANCH  28  29
ENDBRANCH  23  28
ENDBRANCH  20  22
ENDBRANCH  10  20
ENDBRANCH   6   9
TORSDOF 7
ENDMDL
MODEL      258
REMARK 921   NORMALIZED FREE ENERGY PREDICTED BY IDOCK:   60.06 KCAL/MOL
REMARK 922        TOTAL FREE ENERGY PREDICTED BY IDOCK:   82.56 KCAL/MOL
REMARK 923 INTER-LIGAND FREE ENERGY PREDICTED BY IDOCK:   68.56 KCAL/MOL
REMARK 924 INTRA-LIGAND FREE ENERGY PREDICTED BY IDOCK:   14.00 KCAL/MOL
REMARK 927      BINDING AFFINITY PREDICTED BY RF-SCORE:    0.00 PKD
ROOT
HETATM    1  O   UNL     1      -7.767  10.811  66.572  1.00  0.00    -0.132 OA 
HETATM    2  H   UNL     1      -7.644  10.823  65.630  1.00  0.00     0.000 HD 
HETATM    3  C   UNL     1      -8.295  11.873  67.242  1.00  0.00    -0.169 A  
HETATM    4  C   UNL     1      -8.475  11.856  68.619  1.00  0.00    -0.045 A  
HETATM    5  C   UNL     1      -9.078  12.949  69.260  1.00  0.00     0.954 A  
HETATM    6  C   UNL     1      -9.493  14.082  68.537  1.00  0.00    -0.191 A  
HETATM    7  C   UNL     1      -9.236  14.088  67.152  1.00  0.00    -0.240 A  
HETATM    8  C   UNL     1      -8.657  12.985  66.506  1.00  0.00     0.131 A  
ENDROOT
BRANCH   6   9
HETATM    9  C   UNL     1     -10.242  15.204  69.182  1.00  0.00    -0.249 A  
HETATM   10  C   UNL     1     -11.043  15.294  70.331  1.00  0.00    -0.324 A  
HETATM   11  C   UNL     1     -12.555  18.599  71.659  1.00  0.00    15.770 A  
HETATM   12  C   UNL     1     -11.498  16.661  70.578  1.00  0.00     0.173 A  
HETATM   13  O   UNL     1     -12.527  20.720  70.643  1.00  0.00     6.736 OA 
HETATM   14  C   UNL     1     -11.111  17.522  69.554  1.00  0.00     0.925 A  
HETATM   15  H   UNL     1     -13.031  21.069  71.368  1.00  0.00     0.000 HD 
HETATM   16  C   UNL     1     -12.215  17.243  71.664  1.00  0.00     3.413 A  
HETATM   17  S   UNL     1     -10.218  16.713  68.353  1.00  0.00    -0.303 SA 
HETATM   18  C   UNL     1     -11.432  18.894  69.547  1.00  0.00     4.310 A  
HETATM   19  C   UNL     1     -12.169  19.405  70.607  1.00  0.00    14.487 A  
BRANCH  10  20
HETATM   20  C   UNL     1     -11.252  14.169  71.246  1.00  0.00     1.024 C  
HETATM   21  O   UNL     1     -11.769  14.358  72.348  1.00  0.00     0.066 OA 
BRANCH  20  22
HETATM   22  C   UNL     1     -10.863  12.765  70.908  1.00  0.00     3.444 A  
HETATM   23  C   UNL     1      -9.805  10.170  70.449  1.00  0.00     0.137 A  
HETATM   24  C   UNL     1     -10.556  10.814  69.460  1.00  0.00    -0.235 A  
HETATM   25  C   UNL     1     -10.136  12.095  71.895  1.00  0.00    13.679 A  
HETATM   26  C   UNL     1     -11.083  12.109  69.685  1.00  0.00    -0.046 A  
HETATM   27  C   UNL     1      -9.592  10.831  71.659  1.00  0.00     6.930 A  
BRANCH  23  28
HETATM   28  O   UNL     1      -9.314   8.899  70.174  1.00  0.00    -0.162 OA 
BRANCH  28  29
HETATM   29  C   UNL     1     -10.323   8.058  69.591  1.00  0.00    -0.220 C  
BRANCH  29  30
HETATM   30  C   UNL     1     -11.713   8.045  70.254  1.00  0.00     0.089 C  
BRANCH  30  31
HETATM   31  N   UNL     1     -11.720   7.158  71.451  1.00  0.00    -0.279 NA 
HETATM   32  C   UNL     1     -11.198   5.800  71.210  1.00  0.00    -0.153 C  
HETATM   33  C   UNL     1      -9.731   5.822  70.793  1.00  0.00    -0.220 C  
HETATM   34  C   UNL     1      -8.893   6.421  71.917  1.00  0.00    -0.138 C  
HETATM   35  C   UNL     1      -9.472   7.741  72.442  1.00  0.00    -0.234 C  
HETATM   36  C   UNL     1     -10.999   7.734  72.596  1.00  0.00    -0.364 C  
ENDBRANCH  30  31
ENDBRANCH  29  30
ENDBRANCH  28  29
ENDBRANCH  23  28
ENDBRANCH  20  22
ENDBRANCH  10  20
ENDBRANCH   6   9
TORSDOF 7
ENDMDL
MODEL      259
REMARK 921   NORMALIZED FREE ENERGY PREDICTED BY IDOCK:   63.59 KCAL/MOL
REMARK 922        TOTAL FREE ENERGY PREDICTED BY IDOCK:   87.53 KCAL/MOL
REMARK 923 INTER-LIGAND FREE ENERGY PREDICTED BY IDOCK:   71.72 KCAL/MOL
REMARK 924 INTRA-LIGAND FREE ENERGY PREDICTED BY IDOCK:   15.81 KCAL/MOL
REMARK 927      BINDING AFFINITY PREDICTED BY RF-SCORE:    0.00 PKD
ROOT
HETATM    1  O   UNL     1     -12.592  16.844  68.344  1.00  0.00     0.991 OA 
HETATM    2  H   UNL     1     -13.077  17.095  69.120  1.00  0.00     0.000 HD 
HETATM    3  C   UNL     1     -12.211  15.556  68.118  1.00  0.00     0.376 A  
HETATM    4  C   UNL     1     -11.501  15.189  66.983  1.00  0.00    -0.230 A  
HETATM    5  C   UNL     1     -11.182  13.839  66.762  1.00  0.00    -0.327 A  
HETATM    6  C   UNL     1     -11.552  12.841  67.681  1.00  0.00    -0.412 A  
HETATM    7  C   UNL     1     -12.215  13.262  68.851  1.00  0.00    -0.133 A  
HETATM    8  C   UNL     1     -12.557  14.606  69.060  1.00  0.00     0.202 A  
ENDROOT
BRANCH   6   9
HETATM    9  C   UNL     1     -11.325  11.389  67.410  1.00  0.00    -0.288 A  
HETATM   10  C   UNL     1     -11.508  10.580  66.277  1.00  0.00     0.878 A  
HETATM   11  C   UNL     1     -10.498   6.849  66.099  1.00  0.00     0.591 A  
HETATM   12  C   UNL     1     -11.061   9.206  66.504  1.00  0.00     0.845 A  
HETATM   13  O   UNL     1      -9.711   5.473  67.837  1.00  0.00    -0.120 OA 
HETATM   14  C   UNL     1     -10.659   9.011  67.824  1.00  0.00    -0.214 A  
HETATM   15  H   UNL     1      -9.672   4.741  67.234  1.00  0.00     0.000 HD 
HETATM   16  C   UNL     1     -10.942   8.088  65.629  1.00  0.00     4.316 A  
HETATM   17  S   UNL     1     -10.799  10.435  68.743  1.00  0.00    -0.249 SA 
HETATM   18  C   UNL     1     -10.192   7.772  68.304  1.00  0.00    -0.236 A  
HETATM   19  C   UNL     1     -10.135   6.701  67.423  1.00  0.00    -0.164 A  
BRANCH  10  20
HETATM   20  C   UNL     1     -11.947  11.109  64.983  1.00  0.00     1.096 C  
HETATM   21  O   UNL     1     -12.409  10.349  64.131  1.00  0.00     3.723 OA 
BRANCH  20  22
HETATM   22  C   UNL     1     -11.865  12.560  64.630  1.00  0.00    -0.439 A  
HETATM   23  C   UNL     1     -11.551  15.202  63.637  1.00  0.00     1.001 A  
HETATM   24  C   UNL     1     -11.362  14.928  64.995  1.00  0.00    -0.398 A  
HETATM   25  C   UNL     1     -12.079  12.856  63.281  1.00  0.00    -0.520 A  
HETATM   26  C   UNL     1     -11.516  13.612  65.493  1.00  0.00    -0.317 A  
HETATM   27  C   UNL     1     -11.897  14.149  62.789  1.00  0.00     2.289 A  
BRANCH  23  28
HETATM   28  O   UNL     1     -11.389  16.513  63.205  1.00  0.00     1.120 OA 
BRANCH  28  29
HETATM   29  C   UNL     1     -10.066  17.001  63.485  1.00  0.00     9.704 C  
BRANCH  29  30
HETATM   30  C   UNL     1      -9.928  18.464  63.947  1.00  0.00    10.688 C  
BRANCH  30  31
HETATM   31  N   UNL     1      -8.903  19.179  63.137  1.00  0.00    15.414 NA 
HETATM   32  C   UNL     1      -8.645  20.567  63.561  1.00  0.00     5.826 C  
HETATM   33  C   UNL     1      -8.085  20.632  64.979  1.00  0.00     1.071 C  
HETATM   34  C   UNL     1      -6.748  19.903  65.029  1.00  0.00    -0.265 C  
HETATM   35  C   UNL     1      -6.813  18.513  64.386  1.00  0.00     2.222 C  
HETATM   36  C   UNL     1      -7.618  18.467  63.079  1.00  0.00    13.683 C  
ENDBRANCH  30  31
ENDBRANCH  29  30
ENDBRANCH  28  29
ENDBRANCH  23  28
ENDBRANCH  20  22
ENDBRANCH  10  20
ENDBRANCH   6   9
TORSDOF 7
ENDMDL
