MODEL        1
REMARK 921   NORMALIZED FREE ENERGY PREDICTED BY IDOCK:   -7.69 KCAL/MOL
REMARK 922        TOTAL FREE ENERGY PREDICTED BY IDOCK:  -11.97 KCAL/MOL
REMARK 923 INTER-LIGAND FREE ENERGY PREDICTED BY IDOCK:  -10.84 KCAL/MOL
REMARK 924 INTRA-LIGAND FREE ENERGY PREDICTED BY IDOCK:   -1.13 KCAL/MOL
REMARK 927      BINDING AFFINITY PREDICTED BY RF-SCORE:    0.00 PKD
ROOT
HETATM    1  C   UNK A   0      -9.197  10.465  64.093  1.00  0.00    -0.259 C  
HETATM    2  N   UNK A   0      -9.789  11.120  65.256  1.00  0.00    -0.234 NA 
ENDROOT
BRANCH   2   3
HETATM    3  C   UNK A   0     -10.502  12.274  65.059  1.00  0.00    -0.290 A  
HETATM    4  C   UNK A   0     -11.938  13.889  64.159  1.00  0.00    -0.464 A  
HETATM    5  C   UNK A   0     -11.611  12.500  64.264  1.00  0.00    -0.435 A  
HETATM    6  S   UNK A   0     -10.071  13.718  65.878  1.00  0.00    -0.305 SA 
HETATM    7  C   UNK A   0     -11.106  14.679  64.926  1.00  0.00    -0.401 A  
BRANCH   7   8
HETATM    8  C   UNK A   0     -11.016  16.128  64.963  1.00  0.00    -0.344 C  
HETATM    9  O   UNK A   0     -11.480  16.857  64.093  1.00  0.00    -1.174 OA 
ATOM     10  N   GLU A   1     -10.313  16.645  66.041  1.00  0.00    -0.342 N  
ATOM     11  H   GLU A   1      -9.910  16.006  66.727  1.00  0.00     0.000 HD 
BRANCH  10  12
ATOM     12  CA  GLU A   1     -10.138  18.090  66.217  1.00  0.00    -0.363 C  
ATOM     13  C   GLU A   1      -8.637  18.435  66.223  1.00  0.00    -0.194 C  
ATOM     14  O   GLU A   1      -7.840  17.407  66.607  1.00  0.00    -0.213 OA 
ATOM     15  OXT GLU A   1      -8.196  19.563  66.045  1.00  0.00    -0.342 OA 
BRANCH  12  16
ATOM     16  CB  GLU A   1     -10.792  18.525  67.534  1.00  0.00    -0.337 C  
BRANCH  16  17
ATOM     17  CG  GLU A   1     -10.099  17.931  68.761  1.00  0.00    -0.384 C  
ATOM     18  CD  GLU A   1     -10.564  16.527  69.051  1.00  0.00    -0.324 C  
ATOM     19  OE2 GLU A   1     -11.670  16.097  68.779  1.00  0.00    -0.364 OA 
ATOM     20  OE1 GLU A   1      -9.628  15.789  69.689  1.00  0.00    -0.280 OA 
ENDBRANCH  16  17
ENDBRANCH  12  16
ENDBRANCH  10  12
ENDBRANCH   7   8
ENDBRANCH   2   3
BRANCH   2  21
HETATM   21  C   UNK A   0      -8.989  11.055  66.495  1.00  0.00    -0.173 C  
BRANCH  21  22
HETATM   22  C   UNK A   0      -9.775  10.429  67.626  1.00  0.00    -0.191 A  
HETATM   23  C   UNK A   0     -11.250  10.636  69.547  1.00  0.00    -0.331 A  
HETATM   24  C   UNK A   0     -11.268   9.251  69.712  1.00  0.00    -0.085 A  
HETATM   25  C   UNK A   0     -10.510  11.226  68.517  1.00  0.00    -0.218 A  
HETATM   26  H   UNK A   0     -13.403  11.370  72.090  1.00  0.00     0.000 HD 
HETATM   27  C   UNK A   0     -10.518   8.455  68.848  1.00  0.00    -0.208 A  
HETATM   28  C   UNK A   0     -13.648   8.887  72.593  1.00  0.00    -0.395 C  
HETATM   29  N   UNK A   0     -12.015   8.708  70.757  1.00  0.00    -0.460 NA 
HETATM   30  N   UNK A   0     -12.815  10.826  71.458  1.00  0.00    -0.440 N  
HETATM   31  C   UNK A   0      -9.783   9.040  67.810  1.00  0.00    -0.190 A  
HETATM   32  C   UNK A   0     -12.046  11.455  70.498  1.00  0.00    -0.394 C  
HETATM   33  O   UNK A   0     -11.992  12.677  70.394  1.00  0.00    -0.338 OA 
HETATM   34  C   UNK A   0     -12.776   9.534  71.542  1.00  0.00    -0.372 C  
ENDBRANCH  21  22
ENDBRANCH   2  21
TORSDOF 7
ENDMDL
MODEL        2
REMARK 921   NORMALIZED FREE ENERGY PREDICTED BY IDOCK:   -7.57 KCAL/MOL
REMARK 922        TOTAL FREE ENERGY PREDICTED BY IDOCK:  -11.80 KCAL/MOL
REMARK 923 INTER-LIGAND FREE ENERGY PREDICTED BY IDOCK:  -10.62 KCAL/MOL
REMARK 924 INTRA-LIGAND FREE ENERGY PREDICTED BY IDOCK:   -1.18 KCAL/MOL
REMARK 927      BINDING AFFINITY PREDICTED BY RF-SCORE:    0.00 PKD
ROOT
HETATM    1  C   UNK A   0      -9.600  10.368  62.912  1.00  0.00    -0.295 C  
HETATM    2  N   UNK A   0      -9.963  10.911  64.217  1.00  0.00    -0.304 NA 
ENDROOT
BRANCH   2   3
HETATM    3  C   UNK A   0     -10.690  12.072  64.260  1.00  0.00    -0.336 A  
HETATM    4  C   UNK A   0     -12.207  13.781  63.747  1.00  0.00    -0.364 A  
HETATM    5  C   UNK A   0     -11.873  12.395  63.621  1.00  0.00    -0.610 A  
HETATM    6  S   UNK A   0     -10.176  13.391  65.229  1.00  0.00    -0.271 SA 
HETATM    7  C   UNK A   0     -11.300  14.464  64.533  1.00  0.00    -0.321 A  
BRANCH   7   8
HETATM    8  C   UNK A   0     -11.204  15.895  64.766  1.00  0.00    -0.355 C  
HETATM    9  O   UNK A   0     -11.644  16.738  63.992  1.00  0.00    -1.195 OA 
ATOM     10  N   GLU A   1     -10.524  16.256  65.921  1.00  0.00    -0.347 N  
ATOM     11  H   GLU A   1     -10.140  15.528  66.523  1.00  0.00     0.000 HD 
BRANCH  10  12
ATOM     12  CA  GLU A   1     -10.346  17.662  66.294  1.00  0.00    -0.342 C  
ATOM     13  C   GLU A   1      -8.911  18.111  65.962  1.00  0.00     0.038 C  
ATOM     14  O   GLU A   1      -8.012  17.096  65.936  1.00  0.00    -0.501 OA 
ATOM     15  OXT GLU A   1      -8.566  19.282  65.875  1.00  0.00    -0.445 OA 
BRANCH  12  16
ATOM     16  CB  GLU A   1     -10.627  17.831  67.792  1.00  0.00    -0.392 C  
BRANCH  16  17
ATOM     17  CG  GLU A   1     -11.104  16.537  68.451  1.00  0.00    -0.333 C  
ATOM     18  CD  GLU A   1     -10.041  15.918  69.322  1.00  0.00    -0.249 C  
ATOM     19  OE2 GLU A   1      -8.843  16.035  69.137  1.00  0.00    -0.232 OA 
ATOM     20  OE1 GLU A   1     -10.557  15.176  70.328  1.00  0.00    -0.247 OA 
ENDBRANCH  16  17
ENDBRANCH  12  16
ENDBRANCH  10  12
ENDBRANCH   7   8
ENDBRANCH   2   3
BRANCH   2  21
HETATM   21  C   UNK A   0      -8.950  10.742  65.278  1.00  0.00    -0.194 C  
BRANCH  21  22
HETATM   22  C   UNK A   0      -9.547  10.105  66.514  1.00  0.00    -0.236 A  
HETATM   23  C   UNK A   0     -10.529   8.191  67.644  1.00  0.00    -0.300 A  
HETATM   24  C   UNK A   0     -10.625   8.912  68.834  1.00  0.00    -0.165 A  
HETATM   25  C   UNK A   0      -9.998   8.777  66.491  1.00  0.00    -0.360 A  
HETATM   26  H   UNK A   0     -11.748   5.246  68.864  1.00  0.00     0.000 HD 
HETATM   27  C   UNK A   0     -10.204  10.241  68.858  1.00  0.00    -0.220 A  
HETATM   28  C   UNK A   0     -11.998   6.308  71.164  1.00  0.00    -0.154 C  
HETATM   29  N   UNK A   0     -11.166   8.288  69.957  1.00  0.00    -0.433 NA 
HETATM   30  N   UNK A   0     -11.460   6.224  68.829  1.00  0.00    -0.461 N  
HETATM   31  C   UNK A   0      -9.663  10.829  67.708  1.00  0.00    -0.179 A  
HETATM   32  C   UNK A   0     -11.005   6.782  67.651  1.00  0.00    -0.270 C  
HETATM   33  O   UNK A   0     -10.976   6.158  66.594  1.00  0.00    -0.301 OA 
HETATM   34  C   UNK A   0     -11.514   6.965  69.891  1.00  0.00    -0.242 C  
ENDBRANCH  21  22
ENDBRANCH   2  21
TORSDOF 7
ENDMDL
MODEL        3
REMARK 921   NORMALIZED FREE ENERGY PREDICTED BY IDOCK:   -7.55 KCAL/MOL
REMARK 922        TOTAL FREE ENERGY PREDICTED BY IDOCK:  -11.77 KCAL/MOL
REMARK 923 INTER-LIGAND FREE ENERGY PREDICTED BY IDOCK:  -10.21 KCAL/MOL
REMARK 924 INTRA-LIGAND FREE ENERGY PREDICTED BY IDOCK:   -1.56 KCAL/MOL
REMARK 927      BINDING AFFINITY PREDICTED BY RF-SCORE:    0.00 PKD
ROOT
HETATM    1  C   UNK A   0     -10.255  13.779  65.327  1.00  0.00    -0.335 C  
HETATM    2  N   UNK A   0     -10.666  13.116  66.561  1.00  0.00    -0.278 NA 
ENDROOT
BRANCH   2   3
HETATM    3  C   UNK A   0     -10.234  11.835  66.786  1.00  0.00    -0.211 A  
HETATM    4  C   UNK A   0      -9.984   9.509  66.682  1.00  0.00    -0.314 A  
HETATM    5  C   UNK A   0     -10.387  10.704  66.005  1.00  0.00    -0.290 A  
HETATM    6  S   UNK A   0      -9.343  11.448  68.199  1.00  0.00    -0.187 SA 
HETATM    7  C   UNK A   0      -9.476   9.770  67.939  1.00  0.00    -0.130 A  
BRANCH   7   8
HETATM    8  C   UNK A   0      -9.114   8.826  68.981  1.00  0.00    -0.141 C  
HETATM    9  O   UNK A   0      -7.989   8.353  69.105  1.00  0.00    -0.106 OA 
ATOM     10  N   GLU A   1     -10.154   8.448  69.818  1.00  0.00    -0.193 N  
ATOM     11  H   GLU A   1     -11.085   8.836  69.663  1.00  0.00     0.000 HD 
BRANCH  10  12
ATOM     12  CA  GLU A   1      -9.945   7.503  70.919  1.00  0.00    -0.180 C  
ATOM     13  C   GLU A   1     -10.394   6.095  70.489  1.00  0.00    -0.215 C  
ATOM     14  O   GLU A   1     -11.329   6.094  69.507  1.00  0.00    -0.418 OA 
ATOM     15  OXT GLU A   1     -10.064   5.068  71.067  1.00  0.00    -0.207 OA 
BRANCH  12  16
ATOM     16  CB  GLU A   1     -10.739   7.968  72.145  1.00  0.00    -0.339 C  
BRANCH  16  17
ATOM     17  CG  GLU A   1     -11.801   9.011  71.799  1.00  0.00    -0.442 C  
ATOM     18  CD  GLU A   1     -13.195   8.441  71.851  1.00  0.00    -0.357 C  
ATOM     19  OE2 GLU A   1     -13.473   7.277  71.631  1.00  0.00    -0.375 OA 
ATOM     20  OE1 GLU A   1     -14.130   9.376  72.136  1.00  0.00    -0.337 OA 
ENDBRANCH  16  17
ENDBRANCH  12  16
ENDBRANCH  10  12
ENDBRANCH   7   8
ENDBRANCH   2   3
BRANCH   2  21
HETATM   21  C   UNK A   0     -12.031  13.431  67.025  1.00  0.00    -0.379 C  
BRANCH  21  22
HETATM   22  C   UNK A   0     -12.008  14.204  68.326  1.00  0.00    -0.367 A  
HETATM   23  C   UNK A   0     -12.466  14.351  70.708  1.00  0.00    -0.423 A  
HETATM   24  C   UNK A   0     -11.927  15.636  70.756  1.00  0.00    -0.398 A  
HETATM   25  C   UNK A   0     -12.511  13.637  69.507  1.00  0.00    -0.092 A  
HETATM   26  H   UNK A   0     -13.162  14.085  74.037  1.00  0.00     0.000 HD 
HETATM   27  C   UNK A   0     -11.450  16.217  69.582  1.00  0.00    -0.290 A  
HETATM   28  C   UNK A   0     -12.203  16.411  74.420  1.00  0.00    -0.492 C  
HETATM   29  N   UNK A   0     -11.908  16.313  71.976  1.00  0.00    -0.593 NA 
HETATM   30  N   UNK A   0     -12.855  14.485  73.151  1.00  0.00    -0.483 N  
HETATM   31  C   UNK A   0     -11.485  15.502  68.379  1.00  0.00    -0.370 A  
HETATM   32  C   UNK A   0     -12.981  13.771  71.976  1.00  0.00    -0.345 C  
HETATM   33  O   UNK A   0     -13.507  12.663  71.932  1.00  0.00    -0.444 OA 
HETATM   34  C   UNK A   0     -12.340  15.673  73.108  1.00  0.00    -0.475 C  
ENDBRANCH  21  22
ENDBRANCH   2  21
TORSDOF 7
ENDMDL
MODEL        4
REMARK 921   NORMALIZED FREE ENERGY PREDICTED BY IDOCK:   -7.40 KCAL/MOL
REMARK 922        TOTAL FREE ENERGY PREDICTED BY IDOCK:  -11.56 KCAL/MOL
REMARK 923 INTER-LIGAND FREE ENERGY PREDICTED BY IDOCK:  -10.33 KCAL/MOL
REMARK 924 INTRA-LIGAND FREE ENERGY PREDICTED BY IDOCK:   -1.23 KCAL/MOL
REMARK 927      BINDING AFFINITY PREDICTED BY RF-SCORE:    0.00 PKD
ROOT
HETATM    1  C   UNK A   0     -11.700  14.931  71.241  1.00  0.00    -0.331 C  
HETATM    2  N   UNK A   0     -11.315  14.447  69.919  1.00  0.00    -0.360 NA 
ENDROOT
BRANCH   2   3
HETATM    3  C   UNK A   0     -10.445  15.203  69.177  1.00  0.00    -0.252 A  
HETATM    4  C   UNK A   0      -8.490  16.113  68.264  1.00  0.00    -0.180 A  
HETATM    5  C   UNK A   0      -9.109  14.986  68.894  1.00  0.00    -0.202 A  
HETATM    6  S   UNK A   0     -10.973  16.647  68.415  1.00  0.00    -0.298 SA 
HETATM    7  C   UNK A   0      -9.387  17.135  68.029  1.00  0.00    -0.254 A  
BRANCH   7   8
HETATM    8  C   UNK A   0      -9.119  18.483  67.561  1.00  0.00    -0.279 C  
HETATM    9  O   UNK A   0      -9.980  19.352  67.472  1.00  0.00    -0.331 OA 
ATOM     10  N   GLU A   1      -7.810  18.718  67.165  1.00  0.00    -0.234 N  
ATOM     11  H   GLU A   1      -7.129  17.961  67.220  1.00  0.00     0.000 HD 
BRANCH  10  12
ATOM     12  CA  GLU A   1      -7.385  20.030  66.671  1.00  0.00    -0.257 C  
ATOM     13  C   GLU A   1      -6.817  19.891  65.246  1.00  0.00    -0.279 C  
ATOM     14  O   GLU A   1      -6.330  18.657  64.970  1.00  0.00    -0.412 OA 
ATOM     15  OXT GLU A   1      -6.673  20.830  64.475  1.00  0.00    -0.275 OA 
BRANCH  12  16
ATOM     16  CB  GLU A   1      -6.326  20.611  67.615  1.00  0.00    -0.331 C  
BRANCH  16  17
ATOM     17  CG  GLU A   1      -5.582  19.532  68.401  1.00  0.00    -0.218 C  
ATOM     18  CD  GLU A   1      -5.675  19.748  69.890  1.00  0.00    -0.268 C  
ATOM     19  OE2 GLU A   1      -5.794  20.837  70.423  1.00  0.00    -0.529 OA 
ATOM     20  OE1 GLU A   1      -5.575  18.597  70.592  1.00  0.00    -0.232 OA 
ENDBRANCH  16  17
ENDBRANCH  12  16
ENDBRANCH  10  12
ENDBRANCH   7   8
ENDBRANCH   2   3
BRANCH   2  21
HETATM   21  C   UNK A   0     -12.376  13.752  69.165  1.00  0.00    -0.101 C  
BRANCH  21  22
HETATM   22  C   UNK A   0     -11.799  12.927  68.035  1.00  0.00    -0.390 A  
HETATM   23  C   UNK A   0     -11.459  12.536  65.660  1.00  0.00    -0.400 A  
HETATM   24  C   UNK A   0     -10.690  11.405  65.932  1.00  0.00    -0.255 A  
HETATM   25  C   UNK A   0     -12.013  13.293  66.697  1.00  0.00    -0.446 A  
HETATM   26  H   UNK A   0     -11.129  12.435  62.266  1.00  0.00     0.000 HD 
HETATM   27  C   UNK A   0     -10.496  11.019  67.258  1.00  0.00    -0.270 A  
HETATM   28  C   UNK A   0      -9.660  10.366  62.474  1.00  0.00    -0.228 C  
HETATM   29  N   UNK A   0     -10.162  10.677  64.866  1.00  0.00    -0.331 NA 
HETATM   30  N   UNK A   0     -11.039  12.168  63.246  1.00  0.00    -0.687 N  
HETATM   31  C   UNK A   0     -11.040  11.779  68.300  1.00  0.00    -0.291 A  
HETATM   32  C   UNK A   0     -11.660  12.906  64.234  1.00  0.00    -0.378 C  
HETATM   33  O   UNK A   0     -12.381  13.867  63.984  1.00  0.00    -0.637 OA 
HETATM   34  C   UNK A   0     -10.339  11.132  63.586  1.00  0.00    -0.389 C  
ENDBRANCH  21  22
ENDBRANCH   2  21
TORSDOF 7
ENDMDL
MODEL        5
REMARK 921   NORMALIZED FREE ENERGY PREDICTED BY IDOCK:   -7.34 KCAL/MOL
REMARK 922        TOTAL FREE ENERGY PREDICTED BY IDOCK:  -11.48 KCAL/MOL
REMARK 923 INTER-LIGAND FREE ENERGY PREDICTED BY IDOCK:  -11.01 KCAL/MOL
REMARK 924 INTRA-LIGAND FREE ENERGY PREDICTED BY IDOCK:   -0.47 KCAL/MOL
REMARK 927      BINDING AFFINITY PREDICTED BY RF-SCORE:    0.00 PKD
ROOT
HETATM    1  C   UNK A   0     -13.558   9.368  70.882  1.00  0.00     0.045 C  
HETATM    2  N   UNK A   0     -12.451  10.147  71.427  1.00  0.00    -0.388 NA 
ENDROOT
BRANCH   2   3
HETATM    3  C   UNK A   0     -12.311  11.450  71.024  1.00  0.00    -0.343 A  
HETATM    4  C   UNK A   0     -12.570  13.769  70.822  1.00  0.00    -0.410 A  
HETATM    5  C   UNK A   0     -12.695  12.616  71.661  1.00  0.00    -0.292 A  
HETATM    6  S   UNK A   0     -11.545  11.827  69.536  1.00  0.00    -0.338 SA 
HETATM    7  C   UNK A   0     -12.035  13.458  69.588  1.00  0.00    -0.324 A  
BRANCH   7   8
HETATM    8  C   UNK A   0     -11.901  14.310  68.420  1.00  0.00    -0.338 C  
HETATM    9  O   UNK A   0     -11.890  15.535  68.474  1.00  0.00    -0.354 OA 
ATOM     10  N   GLU A   1     -11.834  13.639  67.208  1.00  0.00    -0.378 N  
ATOM     11  H   GLU A   1     -11.882  12.620  67.199  1.00  0.00     0.000 HD 
BRANCH  10  12
ATOM     12  CA  GLU A   1     -11.696  14.361  65.940  1.00  0.00    -0.369 C  
ATOM     13  C   GLU A   1     -12.440  13.603  64.825  1.00  0.00    -0.350 C  
ATOM     14  O   GLU A   1     -12.571  12.274  65.060  1.00  0.00    -0.575 OA 
ATOM     15  OXT GLU A   1     -12.757  14.104  63.754  1.00  0.00    -0.761 OA 
BRANCH  12  16
ATOM     16  CB  GLU A   1     -10.209  14.501  65.593  1.00  0.00    -0.379 C  
BRANCH  16  17
ATOM     17  CG  GLU A   1      -9.652  15.883  65.934  1.00  0.00    -0.378 C  
ATOM     18  CD  GLU A   1     -10.460  16.990  65.308  1.00  0.00    -0.037 C  
ATOM     19  OE2 GLU A   1     -11.081  16.887  64.266  1.00  0.00    -1.135 OA 
ATOM     20  OE1 GLU A   1     -10.396  18.144  66.011  1.00  0.00    -0.478 OA 
ENDBRANCH  16  17
ENDBRANCH  12  16
ENDBRANCH  10  12
ENDBRANCH   7   8
ENDBRANCH   2   3
BRANCH   2  21
HETATM   21  C   UNK A   0     -11.197   9.400  71.648  1.00  0.00    -0.361 C  
BRANCH  21  22
HETATM   22  C   UNK A   0     -11.022   8.301  70.622  1.00  0.00    -0.257 A  
HETATM   23  C   UNK A   0     -10.383   7.569  68.394  1.00  0.00    -0.226 A  
HETATM   24  C   UNK A   0     -10.663   6.243  68.724  1.00  0.00    -0.297 A  
HETATM   25  C   UNK A   0     -10.562   8.593  69.328  1.00  0.00    -0.204 A  
HETATM   26  H   UNK A   0      -9.278   6.966  65.223  1.00  0.00     0.000 HD 
HETATM   27  C   UNK A   0     -11.147   5.948  69.998  1.00  0.00    -0.411 A  
HETATM   28  C   UNK A   0      -9.666   4.474  65.566  1.00  0.00    -0.204 C  
HETATM   29  N   UNK A   0     -10.476   5.255  67.757  1.00  0.00    -0.139 NA 
HETATM   30  N   UNK A   0      -9.662   6.798  66.152  1.00  0.00    -0.401 N  
HETATM   31  C   UNK A   0     -11.318   6.969  70.940  1.00  0.00    -0.334 A  
HETATM   32  C   UNK A   0      -9.886   7.848  67.021  1.00  0.00    -0.225 C  
HETATM   33  O   UNK A   0      -9.691   9.017  66.704  1.00  0.00    -0.189 OA 
HETATM   34  C   UNK A   0      -9.947   5.594  66.540  1.00  0.00    -0.176 C  
ENDBRANCH  21  22
ENDBRANCH   2  21
TORSDOF 7
ENDMDL
MODEL        6
REMARK 921   NORMALIZED FREE ENERGY PREDICTED BY IDOCK:   -7.34 KCAL/MOL
REMARK 922        TOTAL FREE ENERGY PREDICTED BY IDOCK:  -11.47 KCAL/MOL
REMARK 923 INTER-LIGAND FREE ENERGY PREDICTED BY IDOCK:  -10.54 KCAL/MOL
REMARK 924 INTRA-LIGAND FREE ENERGY PREDICTED BY IDOCK:   -0.94 KCAL/MOL
REMARK 927      BINDING AFFINITY PREDICTED BY RF-SCORE:    0.00 PKD
ROOT
HETATM    1  C   UNK A   0     -10.750  13.226  67.262  1.00  0.00    -0.255 C  
HETATM    2  N   UNK A   0     -11.165  14.004  68.426  1.00  0.00    -0.253 NA 
ENDROOT
BRANCH   2   3
HETATM    3  C   UNK A   0     -11.822  13.357  69.440  1.00  0.00    -0.335 A  
HETATM    4  C   UNK A   0     -12.791  12.850  71.511  1.00  0.00    -0.380 A  
HETATM    5  C   UNK A   0     -12.382  13.872  70.596  1.00  0.00    -0.451 A  
HETATM    6  S   UNK A   0     -12.073  11.662  69.379  1.00  0.00    -0.216 SA 
HETATM    7  C   UNK A   0     -12.589  11.583  71.000  1.00  0.00    -0.357 A  
BRANCH   7   8
HETATM    8  C   UNK A   0     -12.726  10.304  71.674  1.00  0.00    -0.456 C  
HETATM    9  O   UNK A   0     -13.752   9.944  72.240  1.00  0.00    -0.356 OA 
ATOM     10  N   GLU A   1     -11.582   9.519  71.680  1.00  0.00    -0.393 N  
ATOM     11  H   GLU A   1     -10.735   9.867  71.230  1.00  0.00     0.000 HD 
BRANCH  10  12
ATOM     12  CA  GLU A   1     -11.564   8.200  72.320  1.00  0.00    -0.374 C  
ATOM     13  C   GLU A   1     -10.199   7.967  72.993  1.00  0.00    -0.327 C  
ATOM     14  O   GLU A   1      -9.187   8.681  72.441  1.00  0.00    -0.275 OA 
ATOM     15  OXT GLU A   1      -9.996   7.113  73.846  1.00  0.00    -0.301 OA 
BRANCH  12  16
ATOM     16  CB  GLU A   1     -11.833   7.120  71.266  1.00  0.00    -0.355 C  
BRANCH  16  17
ATOM     17  CG  GLU A   1     -11.140   7.410  69.934  1.00  0.00    -0.208 C  
ATOM     18  CD  GLU A   1     -10.750   6.148  69.210  1.00  0.00    -0.318 C  
ATOM     19  OE2 GLU A   1     -10.476   5.095  69.757  1.00  0.00    -0.285 OA 
ATOM     20  OE1 GLU A   1     -10.699   6.310  67.869  1.00  0.00    -0.242 OA 
ENDBRANCH  16  17
ENDBRANCH  12  16
ENDBRANCH  10  12
ENDBRANCH   7   8
ENDBRANCH   2   3
BRANCH   2  21
HETATM   21  C   UNK A   0     -11.609  15.382  68.141  1.00  0.00    -0.319 C  
BRANCH  21  22
HETATM   22  C   UNK A   0     -10.440  16.343  68.109  1.00  0.00    -0.302 A  
HETATM   23  C   UNK A   0      -9.419  18.407  67.331  1.00  0.00    -0.277 A  
HETATM   24  C   UNK A   0      -8.271  18.150  68.081  1.00  0.00    -0.276 A  
HETATM   25  C   UNK A   0     -10.495  17.515  67.338  1.00  0.00    -0.342 A  
HETATM   26  H   UNK A   0      -8.422  21.431  66.104  1.00  0.00     0.000 HD 
HETATM   27  C   UNK A   0      -8.198  16.974  68.827  1.00  0.00    -0.245 A  
HETATM   28  C   UNK A   0      -6.241  21.234  67.402  1.00  0.00    -0.428 C  
HETATM   29  N   UNK A   0      -7.220  19.065  68.039  1.00  0.00    -0.240 NA 
HETATM   30  N   UNK A   0      -8.395  20.545  66.608  1.00  0.00    -0.543 N  
HETATM   31  C   UNK A   0      -9.277  16.083  68.845  1.00  0.00    -0.233 A  
HETATM   32  C   UNK A   0      -9.454  19.661  66.533  1.00  0.00    -0.384 C  
HETATM   33  O   UNK A   0     -10.436  19.868  65.827  1.00  0.00    -0.504 OA 
HETATM   34  C   UNK A   0      -7.368  20.229  67.332  1.00  0.00    -0.306 C  
ENDBRANCH  21  22
ENDBRANCH   2  21
TORSDOF 7
ENDMDL
MODEL        7
REMARK 921   NORMALIZED FREE ENERGY PREDICTED BY IDOCK:   -7.27 KCAL/MOL
REMARK 922        TOTAL FREE ENERGY PREDICTED BY IDOCK:  -11.38 KCAL/MOL
REMARK 923 INTER-LIGAND FREE ENERGY PREDICTED BY IDOCK:   -9.99 KCAL/MOL
REMARK 924 INTRA-LIGAND FREE ENERGY PREDICTED BY IDOCK:   -1.40 KCAL/MOL
REMARK 927      BINDING AFFINITY PREDICTED BY RF-SCORE:    0.00 PKD
ROOT
HETATM    1  C   UNK A   0      -8.996   8.370  71.339  1.00  0.00    -0.186 C  
HETATM    2  N   UNK A   0      -9.580   8.647  70.030  1.00  0.00    -0.167 NA 
ENDROOT
BRANCH   2   3
HETATM    3  C   UNK A   0      -9.015   9.631  69.261  1.00  0.00    -0.172 A  
HETATM    4  C   UNK A   0      -7.795  11.508  68.573  1.00  0.00    -0.140 A  
HETATM    5  C   UNK A   0      -7.949  10.466  69.542  1.00  0.00    -0.152 A  
HETATM    6  S   UNK A   0      -9.613   9.963  67.688  1.00  0.00    -0.151 SA 
HETATM    7  C   UNK A   0      -8.711  11.401  67.545  1.00  0.00    -0.140 A  
BRANCH   7   8
HETATM    8  C   UNK A   0      -8.978  12.341  66.471  1.00  0.00    -0.161 C  
HETATM    9  O   UNK A   0      -8.805  12.081  65.285  1.00  0.00     0.262 OA 
ATOM     10  N   GLU A   1      -9.405  13.596  66.882  1.00  0.00    -0.250 N  
ATOM     11  H   GLU A   1      -9.504  13.787  67.879  1.00  0.00     0.000 HD 
BRANCH  10  12
ATOM     12  CA  GLU A   1      -9.716  14.651  65.914  1.00  0.00    -0.310 C  
ATOM     13  C   GLU A   1      -9.146  15.994  66.407  1.00  0.00    -0.319 C  
ATOM     14  O   GLU A   1      -8.994  16.064  67.753  1.00  0.00    -0.186 OA 
ATOM     15  OXT GLU A   1      -8.981  16.970  65.687  1.00  0.00    -0.492 OA 
BRANCH  12  16
ATOM     16  CB  GLU A   1     -11.236  14.747  65.737  1.00  0.00    -0.337 C  
BRANCH  16  17
ATOM     17  CG  GLU A   1     -11.737  13.976  64.517  1.00  0.00    -0.428 C  
ATOM     18  CD  GLU A   1     -12.383  12.668  64.898  1.00  0.00    -0.498 C  
ATOM     19  OE2 GLU A   1     -12.089  12.015  65.882  1.00  0.00    -0.546 OA 
ATOM     20  OE1 GLU A   1     -13.313  12.266  64.003  1.00  0.00    -0.677 OA 
ENDBRANCH  16  17
ENDBRANCH  12  16
ENDBRANCH  10  12
ENDBRANCH   7   8
ENDBRANCH   2   3
BRANCH   2  21
HETATM   21  C   UNK A   0     -11.049   8.528  69.953  1.00  0.00    -0.112 C  
BRANCH  21  22
HETATM   22  C   UNK A   0     -11.733   9.727  70.573  1.00  0.00    -0.343 A  
HETATM   23  C   UNK A   0     -12.251  12.102  70.573  1.00  0.00    -0.392 A  
HETATM   24  C   UNK A   0     -13.043  11.953  71.711  1.00  0.00    -0.360 A  
HETATM   25  C   UNK A   0     -11.598  11.003  70.005  1.00  0.00    -0.427 A  
HETATM   26  H   UNK A   0     -12.817  15.436  70.125  1.00  0.00     0.000 HD 
HETATM   27  C   UNK A   0     -13.160  10.693  72.297  1.00  0.00    -0.200 A  
HETATM   28  C   UNK A   0     -14.347  15.445  72.160  1.00  0.00    -0.642 C  
HETATM   29  N   UNK A   0     -13.670  13.078  72.246  1.00  0.00    -0.557 NA 
HETATM   30  N   UNK A   0     -12.850  14.506  70.541  1.00  0.00    -0.449 N  
HETATM   31  C   UNK A   0     -12.516   9.589  71.727  1.00  0.00    -0.484 A  
HETATM   32  C   UNK A   0     -12.134  13.463  69.987  1.00  0.00    -0.334 C  
HETATM   33  O   UNK A   0     -11.395  13.612  69.018  1.00  0.00    -0.257 OA 
HETATM   34  C   UNK A   0     -13.564  14.281  71.599  1.00  0.00    -0.381 C  
ENDBRANCH  21  22
ENDBRANCH   2  21
TORSDOF 7
ENDMDL
MODEL        8
REMARK 921   NORMALIZED FREE ENERGY PREDICTED BY IDOCK:   -7.27 KCAL/MOL
REMARK 922        TOTAL FREE ENERGY PREDICTED BY IDOCK:  -11.38 KCAL/MOL
REMARK 923 INTER-LIGAND FREE ENERGY PREDICTED BY IDOCK:  -11.06 KCAL/MOL
REMARK 924 INTRA-LIGAND FREE ENERGY PREDICTED BY IDOCK:   -0.32 KCAL/MOL
REMARK 927      BINDING AFFINITY PREDICTED BY RF-SCORE:    0.00 PKD
ROOT
HETATM    1  C   UNK A   0     -12.727  13.595  71.268  1.00  0.00    -0.361 C  
HETATM    2  N   UNK A   0     -11.837  13.381  70.131  1.00  0.00    -0.472 NA 
ENDROOT
BRANCH   2   3
HETATM    3  C   UNK A   0     -11.539  14.451  69.328  1.00  0.00    -0.304 A  
HETATM    4  C   UNK A   0     -10.993  15.771  67.472  1.00  0.00    -0.293 A  
HETATM    5  C   UNK A   0     -11.585  14.558  67.950  1.00  0.00    -0.371 A  
HETATM    6  S   UNK A   0     -11.044  15.945  70.010  1.00  0.00    -0.381 SA 
HETATM    7  C   UNK A   0     -10.569  16.584  68.504  1.00  0.00    -0.318 A  
BRANCH   7   8
HETATM    8  C   UNK A   0      -9.788  17.806  68.429  1.00  0.00    -0.347 C  
HETATM    9  O   UNK A   0     -10.252  18.920  68.646  1.00  0.00    -0.381 OA 
ATOM     10  N   GLU A   1      -8.467  17.636  68.041  1.00  0.00    -0.238 N  
ATOM     11  H   GLU A   1      -8.125  16.697  67.834  1.00  0.00     0.000 HD 
BRANCH  10  12
ATOM     12  CA  GLU A   1      -7.552  18.774  67.921  1.00  0.00    -0.251 C  
ATOM     13  C   GLU A   1      -7.448  19.206  66.447  1.00  0.00    -0.258 C  
ATOM     14  O   GLU A   1      -7.722  18.214  65.565  1.00  0.00    -0.507 OA 
ATOM     15  OXT GLU A   1      -7.016  20.292  66.083  1.00  0.00    -0.248 OA 
BRANCH  12  16
ATOM     16  CB  GLU A   1      -6.173  18.378  68.462  1.00  0.00    -0.203 C  
BRANCH  16  17
ATOM     17  CG  GLU A   1      -6.020  18.668  69.955  1.00  0.00    -0.237 C  
ATOM     18  CD  GLU A   1      -5.960  20.146  70.243  1.00  0.00    -0.349 C  
ATOM     19  OE2 GLU A   1      -5.527  20.982  69.471  1.00  0.00    -0.384 OA 
ATOM     20  OE1 GLU A   1      -6.408  20.455  71.481  1.00  0.00    -0.593 OA 
ENDBRANCH  16  17
ENDBRANCH  12  16
ENDBRANCH  10  12
ENDBRANCH   7   8
ENDBRANCH   2   3
BRANCH   2  21
HETATM   21  C   UNK A   0     -11.981  12.080  69.449  1.00  0.00    -0.275 C  
BRANCH  21  22
HETATM   22  C   UNK A   0     -11.893  10.931  70.429  1.00  0.00    -0.449 A  
HETATM   23  C   UNK A   0     -10.630   9.143  71.487  1.00  0.00    -0.428 A  
HETATM   24  C   UNK A   0     -11.724   8.812  72.286  1.00  0.00    -0.328 A  
HETATM   25  C   UNK A   0     -10.709  10.190  70.564  1.00  0.00    -0.295 A  
HETATM   26  H   UNK A   0      -8.472   6.845  72.791  1.00  0.00     0.000 HD 
HETATM   27  C   UNK A   0     -12.913   9.524  72.139  1.00  0.00    -0.497 A  
HETATM   28  C   UNK A   0     -10.285   6.058  74.395  1.00  0.00    -0.309 C  
HETATM   29  N   UNK A   0     -11.602   7.756  73.190  1.00  0.00    -0.634 NA 
HETATM   30  N   UNK A   0      -9.332   7.368  72.629  1.00  0.00    -0.144 N  
HETATM   31  C   UNK A   0     -12.993  10.580  71.223  1.00  0.00    -0.532 A  
HETATM   32  C   UNK A   0      -9.385   8.349  71.658  1.00  0.00    -0.214 C  
HETATM   33  O   UNK A   0      -8.436   8.598  70.920  1.00  0.00    -0.134 OA 
HETATM   34  C   UNK A   0     -10.394   7.125  73.330  1.00  0.00    -0.327 C  
ENDBRANCH  21  22
ENDBRANCH   2  21
TORSDOF 7
ENDMDL
MODEL        9
REMARK 921   NORMALIZED FREE ENERGY PREDICTED BY IDOCK:   -7.24 KCAL/MOL
REMARK 922        TOTAL FREE ENERGY PREDICTED BY IDOCK:  -11.33 KCAL/MOL
REMARK 923 INTER-LIGAND FREE ENERGY PREDICTED BY IDOCK:  -10.27 KCAL/MOL
REMARK 924 INTRA-LIGAND FREE ENERGY PREDICTED BY IDOCK:   -1.06 KCAL/MOL
REMARK 927      BINDING AFFINITY PREDICTED BY RF-SCORE:    0.00 PKD
ROOT
HETATM    1  C   UNK A   0     -11.559  15.389  71.669  1.00  0.00    -0.423 C  
HETATM    2  N   UNK A   0     -11.097  14.827  70.403  1.00  0.00    -0.456 NA 
ENDROOT
BRANCH   2   3
HETATM    3  C   UNK A   0     -10.195  15.546  69.663  1.00  0.00    -0.286 A  
HETATM    4  C   UNK A   0      -8.201  16.362  68.745  1.00  0.00    -0.234 A  
HETATM    5  C   UNK A   0      -8.874  15.262  69.366  1.00  0.00    -0.220 A  
HETATM    6  S   UNK A   0     -10.650  17.025  68.924  1.00  0.00    -0.298 SA 
HETATM    7  C   UNK A   0      -9.044  17.433  68.530  1.00  0.00    -0.273 A  
BRANCH   7   8
HETATM    8  C   UNK A   0      -8.709  18.771  68.077  1.00  0.00    -0.297 C  
HETATM    9  O   UNK A   0      -9.392  19.760  68.321  1.00  0.00    -0.345 OA 
ATOM     10  N   GLU A   1      -7.568  18.856  67.292  1.00  0.00    -0.229 N  
ATOM     11  H   GLU A   1      -7.044  18.007  67.080  1.00  0.00     0.000 HD 
BRANCH  10  12
ATOM     12  CA  GLU A   1      -7.099  20.139  66.760  1.00  0.00    -0.244 C  
ATOM     13  C   GLU A   1      -6.759  19.990  65.266  1.00  0.00    -0.301 C  
ATOM     14  O   GLU A   1      -6.433  18.726  64.901  1.00  0.00    -0.492 OA 
ATOM     15  OXT GLU A   1      -6.642  20.934  64.496  1.00  0.00    -0.284 OA 
BRANCH  12  16
ATOM     16  CB  GLU A   1      -5.866  20.596  67.547  1.00  0.00    -0.273 C  
BRANCH  16  17
ATOM     17  CG  GLU A   1      -5.260  19.477  68.394  1.00  0.00    -0.201 C  
ATOM     18  CD  GLU A   1      -5.597  19.625  69.856  1.00  0.00    -0.244 C  
ATOM     19  OE2 GLU A   1      -5.803  20.689  70.412  1.00  0.00    -0.501 OA 
ATOM     20  OE1 GLU A   1      -5.611  18.442  70.510  1.00  0.00    -0.241 OA 
ENDBRANCH  16  17
ENDBRANCH  12  16
ENDBRANCH  10  12
ENDBRANCH   7   8
ENDBRANCH   2   3
BRANCH   2  21
HETATM   21  C   UNK A   0     -12.109  14.074  69.637  1.00  0.00    -0.355 C  
BRANCH  21  22
HETATM   22  C   UNK A   0     -11.767  12.602  69.569  1.00  0.00    -0.374 A  
HETATM   23  C   UNK A   0     -12.013  10.331  70.400  1.00  0.00    -0.391 A  
HETATM   24  C   UNK A   0     -11.153   9.851  69.412  1.00  0.00    -0.199 A  
HETATM   25  C   UNK A   0     -12.319  11.692  70.484  1.00  0.00    -0.410 A  
HETATM   26  H   UNK A   0     -12.740   7.305  71.799  1.00  0.00     0.000 HD 
HETATM   27  C   UNK A   0     -10.578  10.752  68.516  1.00  0.00    -0.223 A  
HETATM   28  C   UNK A   0     -11.247   6.159  70.086  1.00  0.00    -0.452 C  
HETATM   29  N   UNK A   0     -10.872   8.485  69.370  1.00  0.00    -0.398 NA 
HETATM   30  N   UNK A   0     -12.315   8.001  71.186  1.00  0.00    -0.439 N  
HETATM   31  C   UNK A   0     -10.889  12.114  68.591  1.00  0.00    -0.268 A  
HETATM   32  C   UNK A   0     -12.593   9.344  71.348  1.00  0.00    -0.348 C  
HETATM   33  O   UNK A   0     -13.306   9.765  72.254  1.00  0.00    -0.443 OA 
HETATM   34  C   UNK A   0     -11.506   7.640  70.241  1.00  0.00    -0.127 C  
ENDBRANCH  21  22
ENDBRANCH   2  21
TORSDOF 7
ENDMDL
MODEL       10
REMARK 921   NORMALIZED FREE ENERGY PREDICTED BY IDOCK:   -7.21 KCAL/MOL
REMARK 922        TOTAL FREE ENERGY PREDICTED BY IDOCK:  -11.29 KCAL/MOL
REMARK 923 INTER-LIGAND FREE ENERGY PREDICTED BY IDOCK:  -10.22 KCAL/MOL
REMARK 924 INTRA-LIGAND FREE ENERGY PREDICTED BY IDOCK:   -1.07 KCAL/MOL
REMARK 927      BINDING AFFINITY PREDICTED BY RF-SCORE:    0.00 PKD
ROOT
HETATM    1  C   UNK A   0      -9.792  11.950  66.397  1.00  0.00    -0.213 C  
HETATM    2  N   UNK A   0     -10.344  13.060  67.169  1.00  0.00    -0.242 NA 
ENDROOT
BRANCH   2   3
HETATM    3  C   UNK A   0     -11.104  12.770  68.272  1.00  0.00    -0.257 A  
HETATM    4  C   UNK A   0     -12.186  12.919  70.344  1.00  0.00    -0.381 A  
HETATM    5  C   UNK A   0     -11.631  13.621  69.227  1.00  0.00    -0.363 A  
HETATM    6  S   UNK A   0     -11.555  11.153  68.624  1.00  0.00    -0.316 SA 
HETATM    7  C   UNK A   0     -12.122  11.550  70.181  1.00  0.00    -0.351 A  
BRANCH   7   8
HETATM    8  C   UNK A   0     -12.431  10.509  71.145  1.00  0.00    -0.412 C  
HETATM    9  O   UNK A   0     -13.254  10.643  72.045  1.00  0.00    -0.473 OA 
ATOM     10  N   GLU A   1     -11.686   9.347  71.013  1.00  0.00    -0.302 N  
ATOM     11  H   GLU A   1     -10.985   9.285  70.275  1.00  0.00     0.000 HD 
BRANCH  10  12
ATOM     12  CA  GLU A   1     -11.884   8.205  71.911  1.00  0.00    -0.317 C  
ATOM     13  C   GLU A   1     -10.607   7.967  72.739  1.00  0.00    -0.353 C  
ATOM     14  O   GLU A   1      -9.477   8.422  72.145  1.00  0.00    -0.234 OA 
ATOM     15  OXT GLU A   1     -10.575   7.301  73.766  1.00  0.00    -0.364 OA 
BRANCH  12  16
ATOM     16  CB  GLU A   1     -12.226   6.961  71.084  1.00  0.00    -0.428 C  
BRANCH  16  17
ATOM     17  CG  GLU A   1     -11.328   6.803  69.858  1.00  0.00    -0.374 C  
ATOM     18  CD  GLU A   1     -10.575   5.497  69.870  1.00  0.00    -0.317 C  
ATOM     19  OE2 GLU A   1     -10.243   4.901  70.878  1.00  0.00    -0.227 OA 
ATOM     20  OE1 GLU A   1     -10.268   5.061  68.627  1.00  0.00    -0.155 OA 
ENDBRANCH  16  17
ENDBRANCH  12  16
ENDBRANCH  10  12
ENDBRANCH   7   8
ENDBRANCH   2   3
BRANCH   2  21
HETATM   21  C   UNK A   0     -10.771  14.231  66.378  1.00  0.00    -0.297 C  
BRANCH  21  22
HETATM   22  C   UNK A   0      -9.833  15.402  66.577  1.00  0.00    -0.288 A  
HETATM   23  C   UNK A   0      -9.372  17.786  66.468  1.00  0.00    -0.291 A  
HETATM   24  C   UNK A   0      -8.092  17.586  66.985  1.00  0.00    -0.217 A  
HETATM   25  C   UNK A   0     -10.238  16.708  66.262  1.00  0.00    -0.344 A  
HETATM   26  H   UNK A   0      -9.195  21.187  66.269  1.00  0.00     0.000 HD 
HETATM   27  C   UNK A   0      -7.672  16.289  67.275  1.00  0.00    -0.210 A  
HETATM   28  C   UNK A   0      -6.839  21.117  67.232  1.00  0.00    -0.408 C  
HETATM   29  N   UNK A   0      -7.260  18.691  67.169  1.00  0.00    -0.208 NA 
HETATM   30  N   UNK A   0      -8.915  20.221  66.436  1.00  0.00    -0.568 N  
HETATM   31  C   UNK A   0      -8.539  15.207  67.079  1.00  0.00    -0.265 A  
HETATM   32  C   UNK A   0      -9.779  19.181  66.154  1.00  0.00    -0.315 C  
HETATM   33  O   UNK A   0     -10.882  19.360  65.647  1.00  0.00    -0.442 OA 
HETATM   34  C   UNK A   0      -7.744  19.947  66.918  1.00  0.00    -0.286 C  
ENDBRANCH  21  22
ENDBRANCH   2  21
TORSDOF 7
ENDMDL
MODEL       11
REMARK 921   NORMALIZED FREE ENERGY PREDICTED BY IDOCK:   -7.17 KCAL/MOL
REMARK 922        TOTAL FREE ENERGY PREDICTED BY IDOCK:  -11.23 KCAL/MOL
REMARK 923 INTER-LIGAND FREE ENERGY PREDICTED BY IDOCK:   -9.98 KCAL/MOL
REMARK 924 INTRA-LIGAND FREE ENERGY PREDICTED BY IDOCK:   -1.26 KCAL/MOL
REMARK 927      BINDING AFFINITY PREDICTED BY RF-SCORE:    0.00 PKD
ROOT
HETATM    1  C   UNK A   0     -10.005   8.545  69.438  1.00  0.00    -0.194 C  
HETATM    2  N   UNK A   0      -9.994   9.619  68.449  1.00  0.00    -0.154 NA 
ENDROOT
BRANCH   2   3
HETATM    3  C   UNK A   0      -8.948  10.504  68.461  1.00  0.00    -0.147 A  
HETATM    4  C   UNK A   0      -7.126  11.804  69.150  1.00  0.00    -0.071 A  
HETATM    5  C   UNK A   0      -7.901  10.618  69.357  1.00  0.00    -0.126 A  
HETATM    6  S   UNK A   0      -8.785  11.682  67.225  1.00  0.00    -0.165 SA 
HETATM    7  C   UNK A   0      -7.567  12.530  68.062  1.00  0.00    -0.127 A  
BRANCH   7   8
HETATM    8  C   UNK A   0      -7.151  13.851  67.627  1.00  0.00    -0.177 C  
HETATM    9  O   UNK A   0      -5.978  14.181  67.492  1.00  0.00    -0.337 OA 
ATOM     10  N   GLU A   1      -8.185  14.753  67.417  1.00  0.00    -0.182 N  
ATOM     11  H   GLU A   1      -9.148  14.453  67.574  1.00  0.00     0.000 HD 
BRANCH  10  12
ATOM     12  CA  GLU A   1      -7.924  16.125  66.975  1.00  0.00    -0.219 C  
ATOM     13  C   GLU A   1      -7.810  17.054  68.199  1.00  0.00    -0.196 C  
ATOM     14  O   GLU A   1      -8.472  16.602  69.293  1.00  0.00    -0.171 OA 
ATOM     15  OXT GLU A   1      -7.302  18.166  68.165  1.00  0.00    -0.236 OA 
BRANCH  12  16
ATOM     16  CB  GLU A   1      -9.061  16.589  66.057  1.00  0.00    -0.290 C  
BRANCH  16  17
ATOM     17  CG  GLU A   1     -10.237  15.613  66.037  1.00  0.00    -0.354 C  
ATOM     18  CD  GLU A   1     -11.114  15.806  64.826  1.00  0.00    -0.400 C  
ATOM     19  OE2 GLU A   1     -11.266  16.865  64.246  1.00  0.00    -1.204 OA 
ATOM     20  OE1 GLU A   1     -11.758  14.673  64.462  1.00  0.00    -0.412 OA 
ENDBRANCH  16  17
ENDBRANCH  12  16
ENDBRANCH  10  12
ENDBRANCH   7   8
ENDBRANCH   2   3
BRANCH   2  21
HETATM   21  C   UNK A   0     -11.316  10.183  68.113  1.00  0.00    -0.099 C  
BRANCH  21  22
HETATM   22  C   UNK A   0     -11.824  11.093  69.210  1.00  0.00    -0.422 A  
HETATM   23  C   UNK A   0     -12.257  13.321  70.081  1.00  0.00    -0.376 A  
HETATM   24  C   UNK A   0     -12.806  12.784  71.245  1.00  0.00    -0.262 A  
HETATM   25  C   UNK A   0     -11.767  12.488  69.070  1.00  0.00    -0.368 A  
HETATM   26  H   UNK A   0     -12.800  16.598  70.857  1.00  0.00     0.000 HD 
HETATM   27  C   UNK A   0     -12.840  11.399  71.404  1.00  0.00    -0.502 A  
HETATM   28  C   UNK A   0     -13.884  15.895  73.050  1.00  0.00    -0.477 C  
HETATM   29  N   UNK A   0     -13.277  13.653  72.229  1.00  0.00    -0.451 NA 
HETATM   30  N   UNK A   0     -12.776  15.583  70.948  1.00  0.00    -0.454 N  
HETATM   31  C   UNK A   0     -12.360  10.562  70.391  1.00  0.00    -0.409 A  
HETATM   32  C   UNK A   0     -12.220  14.801  69.954  1.00  0.00    -0.311 C  
HETATM   33  O   UNK A   0     -11.689  15.282  68.957  1.00  0.00    -0.319 OA 
HETATM   34  C   UNK A   0     -13.267  15.003  71.997  1.00  0.00    -0.364 C  
ENDBRANCH  21  22
ENDBRANCH   2  21
TORSDOF 7
ENDMDL
MODEL       12
REMARK 921   NORMALIZED FREE ENERGY PREDICTED BY IDOCK:   -7.14 KCAL/MOL
REMARK 922        TOTAL FREE ENERGY PREDICTED BY IDOCK:  -11.20 KCAL/MOL
REMARK 923 INTER-LIGAND FREE ENERGY PREDICTED BY IDOCK:  -10.17 KCAL/MOL
REMARK 924 INTRA-LIGAND FREE ENERGY PREDICTED BY IDOCK:   -1.03 KCAL/MOL
REMARK 927      BINDING AFFINITY PREDICTED BY RF-SCORE:    0.00 PKD
ROOT
HETATM    1  C   UNK A   0      -9.367   9.603  67.945  1.00  0.00    -0.128 C  
HETATM    2  N   UNK A   0      -9.940  10.802  67.342  1.00  0.00    -0.180 NA 
ENDROOT
BRANCH   2   3
HETATM    3  C   UNK A   0      -9.225  11.970  67.409  1.00  0.00    -0.180 A  
HETATM    4  C   UNK A   0      -7.846  13.708  68.158  1.00  0.00    -0.143 A  
HETATM    5  C   UNK A   0      -8.190  12.322  68.256  1.00  0.00    -0.167 A  
HETATM    6  S   UNK A   0      -9.549  13.257  66.323  1.00  0.00    -0.190 SA 
HETATM    7  C   UNK A   0      -8.587  14.360  67.194  1.00  0.00    -0.218 A  
BRANCH   7   8
HETATM    8  C   UNK A   0      -8.644  15.783  66.907  1.00  0.00    -0.247 C  
HETATM    9  O   UNK A   0      -8.910  16.240  65.800  1.00  0.00    -0.411 OA 
ATOM     10  N   GLU A   1      -8.326  16.610  67.974  1.00  0.00    -0.183 N  
ATOM     11  H   GLU A   1      -8.075  16.194  68.871  1.00  0.00     0.000 HD 
BRANCH  10  12
ATOM     12  CA  GLU A   1      -8.341  18.070  67.841  1.00  0.00    -0.248 C  
ATOM     13  C   GLU A   1      -7.079  18.665  68.491  1.00  0.00    -0.277 C  
ATOM     14  O   GLU A   1      -6.544  17.885  69.463  1.00  0.00    -0.234 OA 
ATOM     15  OXT GLU A   1      -6.669  19.797  68.273  1.00  0.00    -0.260 OA 
BRANCH  12  16
ATOM     16  CB  GLU A   1      -9.603  18.628  68.509  1.00  0.00    -0.399 C  
BRANCH  16  17
ATOM     17  CG  GLU A   1     -10.750  18.837  67.521  1.00  0.00    -0.474 C  
ATOM     18  CD  GLU A   1     -10.407  19.852  66.460  1.00  0.00    -0.488 C  
ATOM     19  OE2 GLU A   1      -9.638  20.782  66.618  1.00  0.00    -0.234 OA 
ATOM     20  OE1 GLU A   1     -11.079  19.645  65.304  1.00  0.00    -0.409 OA 
ENDBRANCH  16  17
ENDBRANCH  12  16
ENDBRANCH  10  12
ENDBRANCH   7   8
ENDBRANCH   2   3
BRANCH   2  21
HETATM   21  C   UNK A   0     -11.406  10.933  67.462  1.00  0.00    -0.232 C  
BRANCH  21  22
HETATM   22  C   UNK A   0     -11.792  11.697  68.709  1.00  0.00    -0.387 A  
HETATM   23  C   UNK A   0     -12.181  13.798  69.868  1.00  0.00    -0.383 A  
HETATM   24  C   UNK A   0     -12.549  13.116  71.029  1.00  0.00    -0.312 A  
HETATM   25  C   UNK A   0     -11.803  13.100  68.717  1.00  0.00    -0.361 A  
HETATM   26  H   UNK A   0     -12.729  16.946  71.064  1.00  0.00     0.000 HD 
HETATM   27  C   UNK A   0     -12.514  11.722  71.037  1.00  0.00    -0.411 A  
HETATM   28  C   UNK A   0     -13.482  15.965  73.289  1.00  0.00    -0.599 C  
HETATM   29  N   UNK A   0     -12.914  13.854  72.155  1.00  0.00    -0.353 NA 
HETATM   30  N   UNK A   0     -12.657  15.929  71.039  1.00  0.00    -0.534 N  
HETATM   31  C   UNK A   0     -12.145  11.020  69.884  1.00  0.00    -0.435 A  
HETATM   32  C   UNK A   0     -12.213  15.283  69.902  1.00  0.00    -0.323 C  
HETATM   33  O   UNK A   0     -11.838  15.891  68.903  1.00  0.00    -0.397 OA 
HETATM   34  C   UNK A   0     -12.982  15.219  72.073  1.00  0.00    -0.370 C  
ENDBRANCH  21  22
ENDBRANCH   2  21
TORSDOF 7
ENDMDL
MODEL       13
REMARK 921   NORMALIZED FREE ENERGY PREDICTED BY IDOCK:   -7.12 KCAL/MOL
REMARK 922        TOTAL FREE ENERGY PREDICTED BY IDOCK:  -11.17 KCAL/MOL
REMARK 923 INTER-LIGAND FREE ENERGY PREDICTED BY IDOCK:  -10.01 KCAL/MOL
REMARK 924 INTRA-LIGAND FREE ENERGY PREDICTED BY IDOCK:   -1.16 KCAL/MOL
REMARK 927      BINDING AFFINITY PREDICTED BY RF-SCORE:    0.00 PKD
ROOT
HETATM    1  C   UNK A   0     -10.915  11.459  67.206  1.00  0.00    -0.282 C  
HETATM    2  N   UNK A   0     -10.662  12.823  66.752  1.00  0.00    -0.258 NA 
ENDROOT
BRANCH   2   3
HETATM    3  C   UNK A   0      -9.426  13.368  66.988  1.00  0.00    -0.247 A  
HETATM    4  C   UNK A   0      -7.367  13.900  67.968  1.00  0.00    -0.141 A  
HETATM    5  C   UNK A   0      -8.425  12.944  67.842  1.00  0.00    -0.181 A  
HETATM    6  S   UNK A   0      -8.917  14.775  66.150  1.00  0.00     0.129 SA 
HETATM    7  C   UNK A   0      -7.562  15.001  67.158  1.00  0.00    -0.139 A  
BRANCH   7   8
HETATM    8  C   UNK A   0      -6.806  16.240  67.119  1.00  0.00    -0.207 C  
HETATM    9  O   UNK A   0      -5.582  16.288  67.159  1.00  0.00    -0.269 OA 
ATOM     10  N   GLU A   1      -7.575  17.395  67.082  1.00  0.00    -0.192 N  
ATOM     11  H   GLU A   1      -8.592  17.318  67.086  1.00  0.00     0.000 HD 
BRANCH  10  12
ATOM     12  CA  GLU A   1      -6.957  18.723  67.038  1.00  0.00    -0.203 C  
ATOM     13  C   GLU A   1      -7.022  19.374  68.432  1.00  0.00    -0.288 C  
ATOM     14  O   GLU A   1      -8.034  18.910  69.207  1.00  0.00    -0.142 OA 
ATOM     15  OXT GLU A   1      -6.332  20.326  68.773  1.00  0.00    -0.296 OA 
BRANCH  12  16
ATOM     16  CB  GLU A   1      -7.688  19.591  66.007  1.00  0.00    -0.322 C  
BRANCH  16  17
ATOM     17  CG  GLU A   1      -9.049  20.075  66.504  1.00  0.00    -0.452 C  
ATOM     18  CD  GLU A   1     -10.107  19.007  66.392  1.00  0.00    -0.415 C  
ATOM     19  OE2 GLU A   1     -10.107  18.121  65.557  1.00  0.00    -0.488 OA 
ATOM     20  OE1 GLU A   1     -11.095  19.154  67.304  1.00  0.00    -0.417 OA 
ENDBRANCH  16  17
ENDBRANCH  12  16
ENDBRANCH  10  12
ENDBRANCH   7   8
ENDBRANCH   2   3
BRANCH   2  21
HETATM   21  C   UNK A   0     -11.808  13.747  66.853  1.00  0.00    -0.413 C  
BRANCH  21  22
HETATM   22  C   UNK A   0     -11.865  14.410  68.212  1.00  0.00    -0.361 A  
HETATM   23  C   UNK A   0     -12.404  14.334  70.581  1.00  0.00    -0.431 A  
HETATM   24  C   UNK A   0     -11.936  15.637  70.753  1.00  0.00    -0.398 A  
HETATM   25  C   UNK A   0     -12.374  13.722  69.325  1.00  0.00    -0.185 A  
HETATM   26  H   UNK A   0     -13.188  13.758  73.851  1.00  0.00     0.000 HD 
HETATM   27  C   UNK A   0     -11.454  16.337  69.647  1.00  0.00    -0.213 A  
HETATM   28  C   UNK A   0     -12.365  16.090  74.455  1.00  0.00    -0.713 C  
HETATM   29  N   UNK A   0     -11.990  16.210  72.023  1.00  0.00    -0.529 NA 
HETATM   30  N   UNK A   0     -12.875  14.246  73.012  1.00  0.00    -0.425 N  
HETATM   31  C   UNK A   0     -11.414  15.724  68.389  1.00  0.00    -0.367 A  
HETATM   32  C   UNK A   0     -12.927  13.626  71.779  1.00  0.00    -0.353 C  
HETATM   33  O   UNK A   0     -13.392  12.500  71.626  1.00  0.00    -0.358 OA 
HETATM   34  C   UNK A   0     -12.423  15.458  73.083  1.00  0.00    -0.456 C  
ENDBRANCH  21  22
ENDBRANCH   2  21
TORSDOF 7
ENDMDL
MODEL       14
REMARK 921   NORMALIZED FREE ENERGY PREDICTED BY IDOCK:   -7.11 KCAL/MOL
REMARK 922        TOTAL FREE ENERGY PREDICTED BY IDOCK:  -11.15 KCAL/MOL
REMARK 923 INTER-LIGAND FREE ENERGY PREDICTED BY IDOCK:  -10.24 KCAL/MOL
REMARK 924 INTRA-LIGAND FREE ENERGY PREDICTED BY IDOCK:   -0.91 KCAL/MOL
REMARK 927      BINDING AFFINITY PREDICTED BY RF-SCORE:    0.00 PKD
ROOT
HETATM    1  C   UNK A   0     -12.192  13.983  70.615  1.00  0.00    -0.372 C  
HETATM    2  N   UNK A   0     -11.499  13.037  69.747  1.00  0.00    -0.496 NA 
ENDROOT
BRANCH   2   3
HETATM    3  C   UNK A   0     -10.666  13.532  68.777  1.00  0.00    -0.238 A  
HETATM    4  C   UNK A   0      -9.147  13.691  67.002  1.00  0.00    -0.254 A  
HETATM    5  C   UNK A   0     -10.151  12.908  67.656  1.00  0.00    -0.221 A  
HETATM    6  S   UNK A   0     -10.126  15.158  68.836  1.00  0.00    -0.247 SA 
HETATM    7  C   UNK A   0      -8.969  14.918  67.609  1.00  0.00    -0.180 A  
BRANCH   7   8
HETATM    8  C   UNK A   0      -7.949  15.918  67.345  1.00  0.00    -0.161 C  
HETATM    9  O   UNK A   0      -6.831  15.647  66.919  1.00  0.00    -0.245 OA 
ATOM     10  N   GLU A   1      -8.309  17.220  67.657  1.00  0.00    -0.203 N  
ATOM     11  H   GLU A   1      -9.235  17.403  68.043  1.00  0.00     0.000 HD 
BRANCH  10  12
ATOM     12  CA  GLU A   1      -7.387  18.340  67.445  1.00  0.00    -0.212 C  
ATOM     13  C   GLU A   1      -7.492  19.331  68.619  1.00  0.00    -0.345 C  
ATOM     14  O   GLU A   1      -8.687  19.296  69.260  1.00  0.00    -0.199 OA 
ATOM     15  OXT GLU A   1      -6.648  20.180  68.872  1.00  0.00    -0.309 OA 
BRANCH  12  16
ATOM     16  CB  GLU A   1      -7.730  19.038  66.124  1.00  0.00    -0.291 C  
BRANCH  16  17
ATOM     17  CG  GLU A   1      -8.988  19.901  66.222  1.00  0.00    -0.419 C  
ATOM     18  CD  GLU A   1     -10.247  19.076  66.170  1.00  0.00    -0.446 C  
ATOM     19  OE2 GLU A   1     -10.352  18.012  65.587  1.00  0.00    -0.611 OA 
ATOM     20  OE1 GLU A   1     -11.281  19.661  66.816  1.00  0.00    -0.277 OA 
ENDBRANCH  16  17
ENDBRANCH  12  16
ENDBRANCH  10  12
ENDBRANCH   7   8
ENDBRANCH   2   3
BRANCH   2  21
HETATM   21  C   UNK A   0     -12.267  11.828  69.386  1.00  0.00    -0.157 C  
BRANCH  21  22
HETATM   22  C   UNK A   0     -12.068  10.725  70.402  1.00  0.00    -0.443 A  
HETATM   23  C   UNK A   0     -10.630   9.127  71.537  1.00  0.00    -0.428 A  
HETATM   24  C   UNK A   0     -11.696   8.692  72.325  1.00  0.00    -0.358 A  
HETATM   25  C   UNK A   0     -10.809  10.132  70.582  1.00  0.00    -0.305 A  
HETATM   26  H   UNK A   0      -8.250   7.135  72.952  1.00  0.00     0.000 HD 
HETATM   27  C   UNK A   0     -12.957   9.256  72.133  1.00  0.00    -0.503 A  
HETATM   28  C   UNK A   0      -9.995   6.186  74.543  1.00  0.00    -0.343 C  
HETATM   29  N   UNK A   0     -11.473   7.683  73.262  1.00  0.00    -0.638 NA 
HETATM   30  N   UNK A   0      -9.161   7.549  72.757  1.00  0.00    -0.141 N  
HETATM   31  C   UNK A   0     -13.138  10.269  71.184  1.00  0.00    -0.481 A  
HETATM   32  C   UNK A   0      -9.306   8.490  71.757  1.00  0.00    -0.253 C  
HETATM   33  O   UNK A   0      -8.375   8.828  71.030  1.00  0.00    -0.139 OA 
HETATM   34  C   UNK A   0     -10.203   7.203  73.445  1.00  0.00    -0.325 C  
ENDBRANCH  21  22
ENDBRANCH   2  21
TORSDOF 7
ENDMDL
MODEL       15
REMARK 921   NORMALIZED FREE ENERGY PREDICTED BY IDOCK:   -7.06 KCAL/MOL
REMARK 922        TOTAL FREE ENERGY PREDICTED BY IDOCK:  -11.07 KCAL/MOL
REMARK 923 INTER-LIGAND FREE ENERGY PREDICTED BY IDOCK:  -10.13 KCAL/MOL
REMARK 924 INTRA-LIGAND FREE ENERGY PREDICTED BY IDOCK:   -0.94 KCAL/MOL
REMARK 927      BINDING AFFINITY PREDICTED BY RF-SCORE:    0.00 PKD
ROOT
HETATM    1  C   UNK A   0      -9.826   7.250  73.572  1.00  0.00    -0.301 C  
HETATM    2  N   UNK A   0     -10.588   7.266  72.327  1.00  0.00    -0.216 NA 
ENDROOT
BRANCH   2   3
HETATM    3  C   UNK A   0     -11.238   8.420  71.976  1.00  0.00    -0.334 A  
HETATM    4  C   UNK A   0     -12.902  10.029  71.618  1.00  0.00    -0.543 A  
HETATM    5  C   UNK A   0     -12.481   8.885  72.368  1.00  0.00    -0.405 A  
HETATM    6  S   UNK A   0     -10.504   9.551  70.916  1.00  0.00    -0.296 SA 
HETATM    7  C   UNK A   0     -11.942  10.441  70.716  1.00  0.00    -0.363 A  
BRANCH   7   8
HETATM    8  C   UNK A   0     -12.051  11.451  69.677  1.00  0.00    -0.305 C  
HETATM    9  O   UNK A   0     -12.332  11.194  68.512  1.00  0.00    -0.561 OA 
ATOM     10  N   GLU A   1     -11.764  12.745  70.085  1.00  0.00    -0.535 N  
ATOM     11  H   GLU A   1     -11.499  12.916  71.055  1.00  0.00     0.000 HD 
BRANCH  10  12
ATOM     12  CA  GLU A   1     -11.832  13.873  69.152  1.00  0.00    -0.358 C  
ATOM     13  C   GLU A   1     -10.535  13.944  68.324  1.00  0.00    -0.250 C  
ATOM     14  O   GLU A   1      -9.463  13.386  68.938  1.00  0.00     0.006 OA 
ATOM     15  OXT GLU A   1     -10.427  14.571  67.279  1.00  0.00    -0.262 OA 
BRANCH  12  16
ATOM     16  CB  GLU A   1     -12.037  15.173  69.938  1.00  0.00    -0.373 C  
BRANCH  16  17
ATOM     17  CG  GLU A   1     -13.159  15.066  70.971  1.00  0.00    -0.482 C  
ATOM     18  CD  GLU A   1     -12.710  15.499  72.343  1.00  0.00    -0.397 C  
ATOM     19  OE2 GLU A   1     -11.569  15.408  72.756  1.00  0.00    -0.460 OA 
ATOM     20  OE1 GLU A   1     -13.727  15.974  73.098  1.00  0.00    -0.597 OA 
ENDBRANCH  16  17
ENDBRANCH  12  16
ENDBRANCH  10  12
ENDBRANCH   7   8
ENDBRANCH   2   3
BRANCH   2  21
HETATM   21  C   UNK A   0     -11.278   6.005  71.991  1.00  0.00    -0.288 C  
BRANCH  21  22
HETATM   22  C   UNK A   0     -10.707   5.380  70.737  1.00  0.00    -0.252 A  
HETATM   23  C   UNK A   0     -10.316   5.427  68.338  1.00  0.00    -0.216 A  
HETATM   24  C   UNK A   0      -9.606   4.228  68.407  1.00  0.00    -0.133 A  
HETATM   25  C   UNK A   0     -10.866   6.001  69.488  1.00  0.00    -0.439 A  
HETATM   26  H   UNK A   0      -9.893   5.950  64.993  1.00  0.00     0.000 HD 
HETATM   27  C   UNK A   0      -9.468   3.591  69.639  1.00  0.00    -0.235 A  
HETATM   28  C   UNK A   0      -8.525   3.810  64.836  1.00  0.00    -0.104 C  
HETATM   29  N   UNK A   0      -9.081   3.689  67.232  1.00  0.00    -0.153 NA 
HETATM   30  N   UNK A   0      -9.844   5.500  65.907  1.00  0.00    -0.352 N  
HETATM   31  C   UNK A   0     -10.008   4.167  70.794  1.00  0.00    -0.192 A  
HETATM   32  C   UNK A   0     -10.460   6.068  67.005  1.00  0.00    -0.270 C  
HETATM   33  O   UNK A   0     -11.130   7.094  66.927  1.00  0.00    -0.327 OA 
HETATM   34  C   UNK A   0      -9.201   4.385  66.059  1.00  0.00    -0.139 C  
ENDBRANCH  21  22
ENDBRANCH   2  21
TORSDOF 7
ENDMDL
MODEL       16
REMARK 921   NORMALIZED FREE ENERGY PREDICTED BY IDOCK:   -7.05 KCAL/MOL
REMARK 922        TOTAL FREE ENERGY PREDICTED BY IDOCK:  -11.07 KCAL/MOL
REMARK 923 INTER-LIGAND FREE ENERGY PREDICTED BY IDOCK:   -9.64 KCAL/MOL
REMARK 924 INTRA-LIGAND FREE ENERGY PREDICTED BY IDOCK:   -1.44 KCAL/MOL
REMARK 927      BINDING AFFINITY PREDICTED BY RF-SCORE:    0.00 PKD
ROOT
HETATM    1  C   UNK A   0     -10.379  13.038  65.340  1.00  0.00    -0.300 C  
HETATM    2  N   UNK A   0     -10.591  13.036  66.784  1.00  0.00    -0.261 NA 
ENDROOT
BRANCH   2   3
HETATM    3  C   UNK A   0      -9.894  12.132  67.543  1.00  0.00    -0.191 A  
HETATM    4  C   UNK A   0      -8.177  11.027  68.690  1.00  0.00    -0.151 A  
HETATM    5  C   UNK A   0      -8.669  12.267  68.171  1.00  0.00    -0.186 A  
HETATM    6  S   UNK A   0     -10.536  10.572  67.853  1.00  0.00    -0.228 SA 
HETATM    7  C   UNK A   0      -9.069   9.992  68.497  1.00  0.00    -0.127 A  
BRANCH   7   8
HETATM    8  C   UNK A   0      -8.873   8.573  68.734  1.00  0.00    -0.139 C  
HETATM    9  O   UNK A   0      -7.770   8.038  68.762  1.00  0.00    -0.104 OA 
ATOM     10  N   GLU A   1     -10.039   7.836  68.882  1.00  0.00    -0.190 N  
ATOM     11  H   GLU A   1     -10.940   8.309  68.818  1.00  0.00     0.000 HD 
BRANCH  10  12
ATOM     12  CA  GLU A   1     -10.004   6.392  69.130  1.00  0.00    -0.149 C  
ATOM     13  C   GLU A   1     -10.202   5.631  67.805  1.00  0.00    -0.193 C  
ATOM     14  O   GLU A   1     -10.876   6.338  66.864  1.00  0.00    -0.331 OA 
ATOM     15  OXT GLU A   1      -9.919   4.451  67.648  1.00  0.00    -0.141 OA 
BRANCH  12  16
ATOM     16  CB  GLU A   1     -11.104   6.020  70.130  1.00  0.00    -0.432 C  
BRANCH  16  17
ATOM     17  CG  GLU A   1     -11.833   7.244  70.686  1.00  0.00    -0.290 C  
ATOM     18  CD  GLU A   1     -11.465   7.519  72.121  1.00  0.00    -0.291 C  
ATOM     19  OE2 GLU A   1     -11.126   6.668  72.923  1.00  0.00    -0.255 OA 
ATOM     20  OE1 GLU A   1     -11.587   8.826  72.449  1.00  0.00    -0.352 OA 
ENDBRANCH  16  17
ENDBRANCH  12  16
ENDBRANCH  10  12
ENDBRANCH   7   8
ENDBRANCH   2   3
BRANCH   2  21
HETATM   21  C   UNK A   0     -11.971  13.323  67.223  1.00  0.00    -0.343 C  
BRANCH  21  22
HETATM   22  C   UNK A   0     -11.987  14.132  68.501  1.00  0.00    -0.367 A  
HETATM   23  C   UNK A   0     -12.508  14.342  70.866  1.00  0.00    -0.424 A  
HETATM   24  C   UNK A   0     -11.979  15.632  70.892  1.00  0.00    -0.397 A  
HETATM   25  C   UNK A   0     -12.517  13.595  69.685  1.00  0.00    -0.145 A  
HETATM   26  H   UNK A   0     -13.290  14.165  74.182  1.00  0.00     0.000 HD 
HETATM   27  C   UNK A   0     -11.476  16.184  69.715  1.00  0.00    -0.282 A  
HETATM   28  C   UNK A   0     -12.357  16.508  74.524  1.00  0.00    -0.444 C  
HETATM   29  N   UNK A   0     -11.997  16.343  72.092  1.00  0.00    -0.634 NA 
HETATM   30  N   UNK A   0     -12.963  14.542  73.293  1.00  0.00    -0.499 N  
HETATM   31  C   UNK A   0     -11.474  15.435  68.532  1.00  0.00    -0.360 A  
HETATM   32  C   UNK A   0     -13.053  13.794  72.136  1.00  0.00    -0.406 C  
HETATM   33  O   UNK A   0     -13.570  12.681  72.109  1.00  0.00    -0.517 OA 
HETATM   34  C   UNK A   0     -12.455  15.732  73.230  1.00  0.00    -0.506 C  
ENDBRANCH  21  22
ENDBRANCH   2  21
TORSDOF 7
ENDMDL
MODEL       17
REMARK 921   NORMALIZED FREE ENERGY PREDICTED BY IDOCK:   -7.04 KCAL/MOL
REMARK 922        TOTAL FREE ENERGY PREDICTED BY IDOCK:  -11.05 KCAL/MOL
REMARK 923 INTER-LIGAND FREE ENERGY PREDICTED BY IDOCK:   -9.92 KCAL/MOL
REMARK 924 INTRA-LIGAND FREE ENERGY PREDICTED BY IDOCK:   -1.13 KCAL/MOL
REMARK 927      BINDING AFFINITY PREDICTED BY RF-SCORE:    0.00 PKD
ROOT
HETATM    1  C   UNK A   0     -11.475  15.456  71.916  1.00  0.00    -0.433 C  
HETATM    2  N   UNK A   0     -11.195  14.845  70.620  1.00  0.00    -0.452 NA 
ENDROOT
BRANCH   2   3
HETATM    3  C   UNK A   0     -10.342  15.494  69.765  1.00  0.00    -0.309 A  
HETATM    4  C   UNK A   0      -8.407  16.288  68.711  1.00  0.00    -0.235 A  
HETATM    5  C   UNK A   0      -9.003  15.260  69.511  1.00  0.00    -0.183 A  
HETATM    6  S   UNK A   0     -10.899  16.792  68.793  1.00  0.00    -0.284 SA 
HETATM    7  C   UNK A   0      -9.325  17.245  68.327  1.00  0.00    -0.272 A  
BRANCH   7   8
HETATM    8  C   UNK A   0      -9.084  18.509  67.655  1.00  0.00    -0.281 C  
HETATM    9  O   UNK A   0      -9.980  19.234  67.237  1.00  0.00    -0.330 OA 
ATOM     10  N   GLU A   1      -7.747  18.830  67.468  1.00  0.00    -0.229 N  
ATOM     11  H   GLU A   1      -7.029  18.185  67.798  1.00  0.00     0.000 HD 
BRANCH  10  12
ATOM     12  CA  GLU A   1      -7.344  20.074  66.807  1.00  0.00    -0.247 C  
ATOM     13  C   GLU A   1      -6.883  19.774  65.369  1.00  0.00    -0.291 C  
ATOM     14  O   GLU A   1      -6.431  18.508  65.191  1.00  0.00    -0.436 OA 
ATOM     15  OXT GLU A   1      -6.785  20.623  64.493  1.00  0.00    -0.291 OA 
BRANCH  12  16
ATOM     16  CB  GLU A   1      -6.213  20.732  67.606  1.00  0.00    -0.342 C  
BRANCH  16  17
ATOM     17  CG  GLU A   1      -5.368  19.717  68.375  1.00  0.00    -0.206 C  
ATOM     18  CD  GLU A   1      -5.557  19.834  69.865  1.00  0.00    -0.250 C  
ATOM     19  OE2 GLU A   1      -5.846  20.865  70.445  1.00  0.00    -0.519 OA 
ATOM     20  OE1 GLU A   1      -5.336  18.667  70.513  1.00  0.00    -0.217 OA 
ENDBRANCH  16  17
ENDBRANCH  12  16
ENDBRANCH  10  12
ENDBRANCH   7   8
ENDBRANCH   2   3
BRANCH   2  21
HETATM   21  C   UNK A   0     -12.330  14.141  69.992  1.00  0.00    -0.344 C  
BRANCH  21  22
HETATM   22  C   UNK A   0     -11.953  12.731  69.593  1.00  0.00    -0.354 A  
HETATM   23  C   UNK A   0     -11.200  11.136  67.921  1.00  0.00    -0.365 A  
HETATM   24  C   UNK A   0     -11.215  10.107  68.863  1.00  0.00    -0.170 A  
HETATM   25  C   UNK A   0     -11.567  12.437  68.276  1.00  0.00    -0.384 A  
HETATM   26  H   UNK A   0     -10.022   9.275  65.316  1.00  0.00     0.000 HD 
HETATM   27  C   UNK A   0     -11.625  10.385  70.166  1.00  0.00    -0.392 A  
HETATM   28  C   UNK A   0      -9.917   7.230  66.828  1.00  0.00    -0.287 C  
HETATM   29  N   UNK A   0     -10.847   8.822  68.462  1.00  0.00    -0.442 NA 
HETATM   30  N   UNK A   0     -10.359   9.513  66.248  1.00  0.00    -0.209 N  
HETATM   31  C   UNK A   0     -11.983  11.689  70.528  1.00  0.00    -0.413 A  
HETATM   32  C   UNK A   0     -10.776  10.798  66.537  1.00  0.00    -0.181 C  
HETATM   33  O   UNK A   0     -10.813  11.685  65.690  1.00  0.00    -0.276 OA 
HETATM   34  C   UNK A   0     -10.403   8.617  67.183  1.00  0.00    -0.299 C  
ENDBRANCH  21  22
ENDBRANCH   2  21
TORSDOF 7
ENDMDL
MODEL       18
REMARK 921   NORMALIZED FREE ENERGY PREDICTED BY IDOCK:   -7.04 KCAL/MOL
REMARK 922        TOTAL FREE ENERGY PREDICTED BY IDOCK:  -11.05 KCAL/MOL
REMARK 923 INTER-LIGAND FREE ENERGY PREDICTED BY IDOCK:  -10.24 KCAL/MOL
REMARK 924 INTRA-LIGAND FREE ENERGY PREDICTED BY IDOCK:   -0.81 KCAL/MOL
REMARK 927      BINDING AFFINITY PREDICTED BY RF-SCORE:    0.00 PKD
ROOT
HETATM    1  C   UNK A   0     -13.736   9.514  70.852  1.00  0.00     0.072 C  
HETATM    2  N   UNK A   0     -12.627  10.278  71.415  1.00  0.00    -0.396 NA 
ENDROOT
BRANCH   2   3
HETATM    3  C   UNK A   0     -12.441  11.567  70.987  1.00  0.00    -0.356 A  
HETATM    4  C   UNK A   0     -12.662  13.880  70.695  1.00  0.00    -0.351 A  
HETATM    5  C   UNK A   0     -12.871  12.754  71.553  1.00  0.00    -0.369 A  
HETATM    6  S   UNK A   0     -11.542  11.895  69.564  1.00  0.00    -0.325 SA 
HETATM    7  C   UNK A   0     -12.022  13.529  69.523  1.00  0.00    -0.334 A  
BRANCH   7   8
HETATM    8  C   UNK A   0     -11.777  14.345  68.347  1.00  0.00    -0.332 C  
HETATM    9  O   UNK A   0     -11.717  15.570  68.374  1.00  0.00    -0.365 OA 
ATOM     10  N   GLU A   1     -11.662  13.641  67.158  1.00  0.00    -0.360 N  
ATOM     11  H   GLU A   1     -11.753  12.625  67.169  1.00  0.00     0.000 HD 
BRANCH  10  12
ATOM     12  CA  GLU A   1     -11.412  14.324  65.886  1.00  0.00    -0.335 C  
ATOM     13  C   GLU A   1     -12.534  13.990  64.886  1.00  0.00    -0.396 C  
ATOM     14  O   GLU A   1     -13.154  12.809  65.133  1.00  0.00    -0.750 OA 
ATOM     15  OXT GLU A   1     -12.761  14.638  63.873  1.00  0.00    -0.788 OA 
BRANCH  12  16
ATOM     16  CB  GLU A   1     -10.052  13.886  65.330  1.00  0.00    -0.328 C  
BRANCH  16  17
ATOM     17  CG  GLU A   1      -9.789  12.393  65.528  1.00  0.00    -0.215 C  
ATOM     18  CD  GLU A   1      -9.840  11.631  64.228  1.00  0.00    -0.230 C  
ATOM     19  OE2 GLU A   1     -10.516  11.950  63.267  1.00  0.00    -0.414 OA 
ATOM     20  OE1 GLU A   1      -9.074  10.516  64.247  1.00  0.00    -0.198 OA 
ENDBRANCH  16  17
ENDBRANCH  12  16
ENDBRANCH  10  12
ENDBRANCH   7   8
ENDBRANCH   2   3
BRANCH   2  21
HETATM   21  C   UNK A   0     -11.401   9.504  71.692  1.00  0.00    -0.341 C  
BRANCH  21  22
HETATM   22  C   UNK A   0     -11.225   8.375  70.701  1.00  0.00    -0.275 A  
HETATM   23  C   UNK A   0     -10.684   7.586  68.466  1.00  0.00    -0.115 A  
HETATM   24  C   UNK A   0     -10.862   6.261  68.865  1.00  0.00    -0.333 A  
HETATM   25  C   UNK A   0     -10.865   8.637  69.370  1.00  0.00    -0.108 A  
HETATM   26  H   UNK A   0      -9.746   6.912  65.256  1.00  0.00     0.000 HD 
HETATM   27  C   UNK A   0     -11.247   5.994  70.178  1.00  0.00    -0.412 A  
HETATM   28  C   UNK A   0      -9.961   4.418  65.721  1.00  0.00    -0.251 C  
HETATM   29  N   UNK A   0     -10.677   5.245  67.928  1.00  0.00    -0.030 NA 
HETATM   30  N   UNK A   0     -10.060   6.762  66.214  1.00  0.00    -0.431 N  
HETATM   31  C   UNK A   0     -11.420   7.043  71.089  1.00  0.00    -0.333 A  
HETATM   32  C   UNK A   0     -10.292   7.834  67.054  1.00  0.00    -0.334 C  
HETATM   33  O   UNK A   0     -10.187   8.998  66.680  1.00  0.00    -0.269 OA 
HETATM   34  C   UNK A   0     -10.247   5.562  66.667  1.00  0.00    -0.235 C  
ENDBRANCH  21  22
ENDBRANCH   2  21
TORSDOF 7
ENDMDL
MODEL       19
REMARK 921   NORMALIZED FREE ENERGY PREDICTED BY IDOCK:   -7.03 KCAL/MOL
REMARK 922        TOTAL FREE ENERGY PREDICTED BY IDOCK:  -11.03 KCAL/MOL
REMARK 923 INTER-LIGAND FREE ENERGY PREDICTED BY IDOCK:  -10.53 KCAL/MOL
REMARK 924 INTRA-LIGAND FREE ENERGY PREDICTED BY IDOCK:   -0.50 KCAL/MOL
REMARK 927      BINDING AFFINITY PREDICTED BY RF-SCORE:    0.00 PKD
ROOT
HETATM    1  C   UNK A   0     -10.946   9.943  68.692  1.00  0.00    -0.179 C  
HETATM    2  N   UNK A   0     -11.991  10.928  68.954  1.00  0.00    -0.630 NA 
ENDROOT
BRANCH   2   3
HETATM    3  C   UNK A   0     -11.905  12.147  68.333  1.00  0.00    -0.303 A  
HETATM    4  C   UNK A   0     -11.569  13.823  66.732  1.00  0.00    -0.394 A  
HETATM    5  C   UNK A   0     -11.883  12.449  66.984  1.00  0.00    -0.368 A  
HETATM    6  S   UNK A   0     -11.829  13.593  69.253  1.00  0.00    -0.354 SA 
HETATM    7  C   UNK A   0     -11.422  14.545  67.900  1.00  0.00    -0.325 A  
BRANCH   7   8
HETATM    8  C   UNK A   0     -10.953  15.909  68.066  1.00  0.00    -0.336 C  
HETATM    9  O   UNK A   0     -11.108  16.557  69.096  1.00  0.00    -0.311 OA 
ATOM     10  N   GLU A   1     -10.350  16.463  66.947  1.00  0.00    -0.297 N  
ATOM     11  H   GLU A   1     -10.270  15.906  66.096  1.00  0.00     0.000 HD 
BRANCH  10  12
ATOM     12  CA  GLU A   1      -9.825  17.831  66.960  1.00  0.00    -0.309 C  
ATOM     13  C   GLU A   1     -10.486  18.654  65.839  1.00  0.00    -0.356 C  
ATOM     14  O   GLU A   1     -10.937  17.905  64.803  1.00  0.00    -0.783 OA 
ATOM     15  OXT GLU A   1     -10.481  19.877  65.797  1.00  0.00    -0.504 OA 
BRANCH  12  16
ATOM     16  CB  GLU A   1      -8.304  17.794  66.771  1.00  0.00    -0.271 C  
BRANCH  16  17
ATOM     17  CG  GLU A   1      -7.544  18.265  68.010  1.00  0.00    -0.257 C  
ATOM     18  CD  GLU A   1      -7.005  17.112  68.818  1.00  0.00    -0.217 C  
ATOM     19  OE2 GLU A   1      -7.515  16.008  68.869  1.00  0.00    -0.161 OA 
ATOM     20  OE1 GLU A   1      -5.899  17.441  69.522  1.00  0.00    -0.210 OA 
ENDBRANCH  16  17
ENDBRANCH  12  16
ENDBRANCH  10  12
ENDBRANCH   7   8
ENDBRANCH   2   3
BRANCH   2  21
HETATM   21  C   UNK A   0     -12.522  10.938  70.331  1.00  0.00    -0.327 C  
BRANCH  21  22
HETATM   22  C   UNK A   0     -12.318   9.602  71.011  1.00  0.00    -0.396 A  
HETATM   23  C   UNK A   0     -10.945   8.083  72.322  1.00  0.00    -0.377 A  
HETATM   24  C   UNK A   0     -11.956   7.122  72.310  1.00  0.00    -0.218 A  
HETATM   25  C   UNK A   0     -11.117   9.312  71.678  1.00  0.00    -0.438 A  
HETATM   26  H   UNK A   0      -8.753   6.331  74.262  1.00  0.00     0.000 HD 
HETATM   27  C   UNK A   0     -13.141   7.391  71.625  1.00  0.00    -0.412 A  
HETATM   28  C   UNK A   0     -10.433   4.427  74.434  1.00  0.00    -0.309 C  
HETATM   29  N   UNK A   0     -11.738   5.907  72.960  1.00  0.00    -0.506 NA 
HETATM   30  N   UNK A   0      -9.589   6.554  73.723  1.00  0.00    -0.170 N  
HETATM   31  C   UNK A   0     -13.321   8.624  70.988  1.00  0.00     0.070 A  
HETATM   32  C   UNK A   0      -9.689   7.754  73.045  1.00  0.00    -0.267 C  
HETATM   33  O   UNK A   0      -8.774   8.571  73.014  1.00  0.00    -0.343 OA 
HETATM   34  C   UNK A   0     -10.577   5.718  73.661  1.00  0.00    -0.276 C  
ENDBRANCH  21  22
ENDBRANCH   2  21
TORSDOF 7
ENDMDL
MODEL       20
REMARK 921   NORMALIZED FREE ENERGY PREDICTED BY IDOCK:   -7.02 KCAL/MOL
REMARK 922        TOTAL FREE ENERGY PREDICTED BY IDOCK:  -11.03 KCAL/MOL
REMARK 923 INTER-LIGAND FREE ENERGY PREDICTED BY IDOCK:  -10.08 KCAL/MOL
REMARK 924 INTRA-LIGAND FREE ENERGY PREDICTED BY IDOCK:   -0.95 KCAL/MOL
REMARK 927      BINDING AFFINITY PREDICTED BY RF-SCORE:    0.00 PKD
ROOT
HETATM    1  C   UNK A   0     -10.539  11.440  63.681  1.00  0.00    -0.412 C  
HETATM    2  N   UNK A   0     -10.680  11.659  65.118  1.00  0.00    -0.290 NA 
ENDROOT
BRANCH   2   3
HETATM    3  C   UNK A   0     -10.357  10.633  65.967  1.00  0.00    -0.225 A  
HETATM    4  C   UNK A   0      -9.643   8.567  66.809  1.00  0.00    -0.273 A  
HETATM    5  C   UNK A   0      -9.566   9.520  65.743  1.00  0.00    -0.337 A  
HETATM    6  S   UNK A   0     -10.937  10.617  67.581  1.00  0.00    -0.313 SA 
HETATM    7  C   UNK A   0     -10.442   9.008  67.844  1.00  0.00    -0.234 A  
BRANCH   7   8
HETATM    8  C   UNK A   0     -10.892   8.276  69.015  1.00  0.00     0.012 C  
HETATM    9  O   UNK A   0     -10.946   7.052  69.067  1.00  0.00    -0.200 OA 
ATOM     10  N   GLU A   1     -11.312   9.065  70.075  1.00  0.00    -0.422 N  
ATOM     11  H   GLU A   1     -11.286  10.081  69.982  1.00  0.00     0.000 HD 
BRANCH  10  12
ATOM     12  CA  GLU A   1     -11.792   8.472  71.327  1.00  0.00    -0.291 C  
ATOM     13  C   GLU A   1     -12.932   9.330  71.906  1.00  0.00    -0.411 C  
ATOM     14  O   GLU A   1     -12.893  10.628  71.517  1.00  0.00    -0.395 OA 
ATOM     15  OXT GLU A   1     -13.719   8.934  72.755  1.00  0.00    -0.407 OA 
BRANCH  12  16
ATOM     16  CB  GLU A   1     -10.631   8.380  72.324  1.00  0.00    -0.412 C  
BRANCH  16  17
ATOM     17  CG  GLU A   1     -10.204   6.939  72.600  1.00  0.00    -0.210 C  
ATOM     18  CD  GLU A   1      -9.398   6.818  73.867  1.00  0.00    -0.193 C  
ATOM     19  OE2 GLU A   1      -8.693   7.700  74.323  1.00  0.00    -0.235 OA 
ATOM     20  OE1 GLU A   1      -9.508   5.598  74.441  1.00  0.00    -0.132 OA 
ENDBRANCH  16  17
ENDBRANCH  12  16
ENDBRANCH  10  12
ENDBRANCH   7   8
ENDBRANCH   2   3
BRANCH   2  21
HETATM   21  C   UNK A   0     -11.825  12.497  65.522  1.00  0.00    -0.439 C  
BRANCH  21  22
HETATM   22  C   UNK A   0     -11.376  13.882  65.937  1.00  0.00    -0.314 A  
HETATM   23  C   UNK A   0     -11.174  15.625  67.618  1.00  0.00    -0.274 A  
HETATM   24  C   UNK A   0     -10.504  16.450  66.716  1.00  0.00    -0.273 A  
HETATM   25  C   UNK A   0     -11.611  14.353  67.238  1.00  0.00    -0.401 A  
HETATM   26  H   UNK A   0     -10.996  17.734  70.295  1.00  0.00     0.000 HD 
HETATM   27  C   UNK A   0     -10.291  16.001  65.413  1.00  0.00    -0.386 A  
HETATM   28  C   UNK A   0      -9.721  19.419  68.877  1.00  0.00    -0.502 C  
HETATM   29  N   UNK A   0     -10.091  17.714  67.138  1.00  0.00    -0.315 NA 
HETATM   30  N   UNK A   0     -10.891  17.380  69.344  1.00  0.00    -0.270 N  
HETATM   31  C   UNK A   0     -10.719  14.724  65.031  1.00  0.00    -0.452 A  
HETATM   32  C   UNK A   0     -11.399  16.145  68.993  1.00  0.00    -0.340 C  
HETATM   33  O   UNK A   0     -12.036  15.448  69.777  1.00  0.00    -0.337 OA 
HETATM   34  C   UNK A   0     -10.279  18.083  68.444  1.00  0.00    -0.391 C  
ENDBRANCH  21  22
ENDBRANCH   2  21
TORSDOF 7
ENDMDL
MODEL       21
REMARK 921   NORMALIZED FREE ENERGY PREDICTED BY IDOCK:   -6.98 KCAL/MOL
REMARK 922        TOTAL FREE ENERGY PREDICTED BY IDOCK:  -10.97 KCAL/MOL
REMARK 923 INTER-LIGAND FREE ENERGY PREDICTED BY IDOCK:   -9.95 KCAL/MOL
REMARK 924 INTRA-LIGAND FREE ENERGY PREDICTED BY IDOCK:   -1.02 KCAL/MOL
REMARK 927      BINDING AFFINITY PREDICTED BY RF-SCORE:    0.00 PKD
ROOT
HETATM    1  C   UNK A   0     -10.374  11.574  63.893  1.00  0.00    -0.371 C  
HETATM    2  N   UNK A   0     -10.511  11.407  65.337  1.00  0.00    -0.272 NA 
ENDROOT
BRANCH   2   3
HETATM    3  C   UNK A   0     -10.140  10.209  65.892  1.00  0.00    -0.254 A  
HETATM    4  C   UNK A   0      -9.300   8.042  66.178  1.00  0.00    -0.212 A  
HETATM    5  C   UNK A   0      -9.259   9.255  65.418  1.00  0.00    -0.284 A  
HETATM    6  S   UNK A   0     -10.776   9.712  67.405  1.00  0.00    -0.174 SA 
HETATM    7  C   UNK A   0     -10.168   8.129  67.248  1.00  0.00    -0.278 A  
BRANCH   7   8
HETATM    8  C   UNK A   0     -10.602   7.075  68.148  1.00  0.00    -0.204 C  
HETATM    9  O   UNK A   0     -10.572   5.883  67.859  1.00  0.00    -0.218 OA 
ATOM     10  N   GLU A   1     -11.110   7.512  69.362  1.00  0.00    -0.443 N  
ATOM     11  H   GLU A   1     -11.152   8.514  69.554  1.00  0.00     0.000 HD 
BRANCH  10  12
ATOM     12  CA  GLU A   1     -11.586   6.568  70.376  1.00  0.00    -0.407 C  
ATOM     13  C   GLU A   1     -12.691   7.226  71.224  1.00  0.00    -0.359 C  
ATOM     14  O   GLU A   1     -12.620   8.580  71.259  1.00  0.00    -0.298 OA 
ATOM     15  OXT GLU A   1     -13.476   6.602  71.925  1.00  0.00    -0.206 OA 
BRANCH  12  16
ATOM     16  CB  GLU A   1     -10.412   6.141  71.266  1.00  0.00    -0.274 C  
BRANCH  16  17
ATOM     17  CG  GLU A   1      -9.579   7.327  71.751  1.00  0.00    -0.163 C  
ATOM     18  CD  GLU A   1      -9.611   7.467  73.251  1.00  0.00    -0.232 C  
ATOM     19  OE2 GLU A   1     -10.540   7.119  73.957  1.00  0.00    -0.317 OA 
ATOM     20  OE1 GLU A   1      -8.500   8.061  73.743  1.00  0.00    -0.219 OA 
ENDBRANCH  16  17
ENDBRANCH  12  16
ENDBRANCH  10  12
ENDBRANCH   7   8
ENDBRANCH   2   3
BRANCH   2  21
HETATM   21  C   UNK A   0     -11.684  12.066  65.943  1.00  0.00    -0.242 C  
BRANCH  21  22
HETATM   22  C   UNK A   0     -11.315  13.403  66.549  1.00  0.00    -0.346 A  
HETATM   23  C   UNK A   0     -10.948  15.796  66.330  1.00  0.00    -0.159 A  
HETATM   24  C   UNK A   0     -10.661  15.900  67.691  1.00  0.00    -0.312 A  
HETATM   25  C   UNK A   0     -11.270  14.561  65.758  1.00  0.00    -0.334 A  
HETATM   26  H   UNK A   0     -10.658  19.117  65.607  1.00  0.00     0.000 HD 
HETATM   27  C   UNK A   0     -10.676  14.749  68.478  1.00  0.00    -0.247 A  
HETATM   28  C   UNK A   0     -10.137  19.600  68.051  1.00  0.00    -0.555 C  
HETATM   29  N   UNK A   0     -10.340  17.151  68.217  1.00  0.00    -0.333 NA 
HETATM   30  N   UNK A   0     -10.648  18.248  66.139  1.00  0.00    -0.371 N  
HETATM   31  C   UNK A   0     -11.007  13.513  67.911  1.00  0.00    -0.275 A  
HETATM   32  C   UNK A   0     -10.905  17.041  65.519  1.00  0.00    -0.069 C  
HETATM   33  O   UNK A   0     -11.102  16.949  64.311  1.00  0.00    -1.135 OA 
HETATM   34  C   UNK A   0     -10.393  18.256  67.409  1.00  0.00    -0.392 C  
ENDBRANCH  21  22
ENDBRANCH   2  21
TORSDOF 7
ENDMDL
MODEL       22
REMARK 921   NORMALIZED FREE ENERGY PREDICTED BY IDOCK:   -6.92 KCAL/MOL
REMARK 922        TOTAL FREE ENERGY PREDICTED BY IDOCK:  -10.88 KCAL/MOL
REMARK 923 INTER-LIGAND FREE ENERGY PREDICTED BY IDOCK:   -9.68 KCAL/MOL
REMARK 924 INTRA-LIGAND FREE ENERGY PREDICTED BY IDOCK:   -1.20 KCAL/MOL
REMARK 927      BINDING AFFINITY PREDICTED BY RF-SCORE:    0.00 PKD
ROOT
HETATM    1  C   UNK A   0     -10.606  12.886  63.916  1.00  0.00    -0.336 C  
HETATM    2  N   UNK A   0     -10.656  13.282  65.320  1.00  0.00    -0.304 NA 
ENDROOT
BRANCH   2   3
HETATM    3  C   UNK A   0     -10.855  12.309  66.264  1.00  0.00    -0.278 A  
HETATM    4  C   UNK A   0     -11.351  11.208  68.271  1.00  0.00    -0.365 A  
HETATM    5  C   UNK A   0     -11.551  12.369  67.458  1.00  0.00    -0.431 A  
HETATM    6  S   UNK A   0     -10.217  10.733  66.044  1.00  0.00    -0.240 SA 
HETATM    7  C   UNK A   0     -10.556  10.268  67.647  1.00  0.00    -0.263 A  
BRANCH   7   8
HETATM    8  C   UNK A   0     -10.000   9.045  68.198  1.00  0.00    -0.175 C  
HETATM    9  O   UNK A   0      -8.884   8.975  68.700  1.00  0.00    -0.135 OA 
ATOM     10  N   GLU A   1     -10.810   7.924  68.076  1.00  0.00    -0.458 N  
ATOM     11  H   GLU A   1     -11.719   8.013  67.620  1.00  0.00     0.000 HD 
BRANCH  10  12
ATOM     12  CA  GLU A   1     -10.388   6.617  68.585  1.00  0.00    -0.188 C  
ATOM     13  C   GLU A   1     -10.333   5.600  67.430  1.00  0.00    -0.230 C  
ATOM     14  O   GLU A   1     -11.148   5.908  66.391  1.00  0.00    -0.140 OA 
ATOM     15  OXT GLU A   1      -9.733   4.535  67.487  1.00  0.00    -0.170 OA 
BRANCH  12  16
ATOM     16  CB  GLU A   1     -11.373   6.149  69.663  1.00  0.00    -0.442 C  
BRANCH  16  17
ATOM     17  CG  GLU A   1     -10.903   6.489  71.078  1.00  0.00    -0.301 C  
ATOM     18  CD  GLU A   1     -11.527   7.761  71.592  1.00  0.00    -0.261 C  
ATOM     19  OE2 GLU A   1     -11.879   8.690  70.889  1.00  0.00    -0.284 OA 
ATOM     20  OE1 GLU A   1     -11.625   7.785  72.941  1.00  0.00    -0.355 OA 
ENDBRANCH  16  17
ENDBRANCH  12  16
ENDBRANCH  10  12
ENDBRANCH   7   8
ENDBRANCH   2   3
BRANCH   2  21
HETATM   21  C   UNK A   0     -11.296  14.586  65.588  1.00  0.00    -0.336 C  
BRANCH  21  22
HETATM   22  C   UNK A   0     -10.269  15.647  65.917  1.00  0.00    -0.372 A  
HETATM   23  C   UNK A   0      -9.631  17.984  66.121  1.00  0.00    -0.184 A  
HETATM   24  C   UNK A   0      -8.361  17.622  66.570  1.00  0.00    -0.268 A  
HETATM   25  C   UNK A   0     -10.580  17.010  65.794  1.00  0.00    -0.218 A  
HETATM   26  H   UNK A   0      -9.201  21.358  66.381  1.00  0.00     0.000 HD 
HETATM   27  C   UNK A   0      -8.035  16.270  66.669  1.00  0.00    -0.324 A  
HETATM   28  C   UNK A   0      -6.841  20.986  67.258  1.00  0.00    -0.434 C  
HETATM   29  N   UNK A   0      -7.445  18.628  66.878  1.00  0.00    -0.214 NA 
HETATM   30  N   UNK A   0      -8.993  20.360  66.407  1.00  0.00    -0.584 N  
HETATM   31  C   UNK A   0      -8.985  15.292  66.352  1.00  0.00    -0.339 A  
HETATM   32  C   UNK A   0      -9.937  19.434  66.010  1.00  0.00    -0.367 C  
HETATM   33  O   UNK A   0     -11.033  19.761  65.563  1.00  0.00    -0.378 OA 
HETATM   34  C   UNK A   0      -7.837  19.939  66.814  1.00  0.00    -0.302 C  
ENDBRANCH  21  22
ENDBRANCH   2  21
TORSDOF 7
ENDMDL
MODEL       23
REMARK 921   NORMALIZED FREE ENERGY PREDICTED BY IDOCK:   -6.91 KCAL/MOL
REMARK 922        TOTAL FREE ENERGY PREDICTED BY IDOCK:  -10.87 KCAL/MOL
REMARK 923 INTER-LIGAND FREE ENERGY PREDICTED BY IDOCK:   -8.96 KCAL/MOL
REMARK 924 INTRA-LIGAND FREE ENERGY PREDICTED BY IDOCK:   -1.91 KCAL/MOL
REMARK 927      BINDING AFFINITY PREDICTED BY RF-SCORE:    0.00 PKD
ROOT
HETATM    1  C   UNK A   0      -9.902  17.521  68.871  1.00  0.00    -0.289 C  
HETATM    2  N   UNK A   0     -10.451  16.169  68.880  1.00  0.00    -0.241 NA 
ENDROOT
BRANCH   2   3
HETATM    3  C   UNK A   0      -9.906  15.240  68.032  1.00  0.00    -0.216 A  
HETATM    4  C   UNK A   0      -9.559  13.800  66.218  1.00  0.00    -0.265 A  
HETATM    5  C   UNK A   0     -10.182  14.995  66.699  1.00  0.00    -0.271 A  
HETATM    6  S   UNK A   0      -8.676  14.175  68.574  1.00  0.00    -0.134 SA 
HETATM    7  C   UNK A   0      -8.774  13.199  67.182  1.00  0.00    -0.213 A  
BRANCH   7   8
HETATM    8  C   UNK A   0      -8.116  11.905  67.135  1.00  0.00    -0.172 C  
HETATM    9  O   UNK A   0      -6.973  11.743  66.721  1.00  0.00    -0.126 OA 
ATOM     10  N   GLU A   1      -8.895  10.835  67.550  1.00  0.00    -0.129 N  
ATOM     11  H   GLU A   1      -9.854  11.004  67.854  1.00  0.00     0.000 HD 
BRANCH  10  12
ATOM     12  CA  GLU A   1      -8.370   9.467  67.561  1.00  0.00    -0.122 C  
ATOM     13  C   GLU A   1      -8.813   8.728  66.284  1.00  0.00    -0.157 C  
ATOM     14  O   GLU A   1      -9.950   9.220  65.734  1.00  0.00    -0.299 OA 
ATOM     15  OXT GLU A   1      -8.288   7.702  65.873  1.00  0.00    -0.124 OA 
BRANCH  12  16
ATOM     16  CB  GLU A   1      -8.882   8.735  68.807  1.00  0.00    -0.134 C  
BRANCH  16  17
ATOM     17  CG  GLU A   1      -8.547   9.473  70.103  1.00  0.00    -0.250 C  
ATOM     18  CD  GLU A   1      -9.131   8.790  71.312  1.00  0.00    -0.234 C  
ATOM     19  OE2 GLU A   1     -10.151   8.124  71.304  1.00  0.00    -0.188 OA 
ATOM     20  OE1 GLU A   1      -8.419   9.023  72.438  1.00  0.00    -0.344 OA 
ENDBRANCH  16  17
ENDBRANCH  12  16
ENDBRANCH  10  12
ENDBRANCH   7   8
ENDBRANCH   2   3
BRANCH   2  21
HETATM   21  C   UNK A   0     -11.909  16.078  69.089  1.00  0.00    -0.261 C  
BRANCH  21  22
HETATM   22  C   UNK A   0     -12.274  14.863  69.915  1.00  0.00    -0.354 A  
HETATM   23  C   UNK A   0     -12.404  12.451  70.186  1.00  0.00    -0.209 A  
HETATM   24  C   UNK A   0     -12.920  12.600  71.473  1.00  0.00    -0.282 A  
HETATM   25  C   UNK A   0     -12.084  13.568  69.408  1.00  0.00    -0.340 A  
HETATM   26  H   UNK A   0     -12.296   9.041  70.192  1.00  0.00     0.000 HD 
HETATM   27  C   UNK A   0     -13.137  13.884  71.973  1.00  0.00    -0.480 A  
HETATM   28  C   UNK A   0     -13.205   9.021  72.569  1.00  0.00    -0.467 C  
HETATM   29  N   UNK A   0     -13.230  11.458  72.210  1.00  0.00    -0.509 NA 
HETATM   30  N   UNK A   0     -12.471   9.995  70.506  1.00  0.00    -0.480 N  
HETATM   31  C   UNK A   0     -12.809  15.005  71.201  1.00  0.00    -0.441 A  
HETATM   32  C   UNK A   0     -12.204  11.068  69.679  1.00  0.00    -0.300 C  
HETATM   33  O   UNK A   0     -11.802  10.928  68.527  1.00  0.00    -0.464 OA 
HETATM   34  C   UNK A   0     -12.947  10.223  71.690  1.00  0.00    -0.465 C  
ENDBRANCH  21  22
ENDBRANCH   2  21
TORSDOF 7
ENDMDL
MODEL       24
REMARK 921   NORMALIZED FREE ENERGY PREDICTED BY IDOCK:   -6.89 KCAL/MOL
REMARK 922        TOTAL FREE ENERGY PREDICTED BY IDOCK:  -10.84 KCAL/MOL
REMARK 923 INTER-LIGAND FREE ENERGY PREDICTED BY IDOCK:  -10.08 KCAL/MOL
REMARK 924 INTRA-LIGAND FREE ENERGY PREDICTED BY IDOCK:   -0.76 KCAL/MOL
REMARK 927      BINDING AFFINITY PREDICTED BY RF-SCORE:    0.00 PKD
ROOT
HETATM    1  C   UNK A   0     -12.736  11.848  64.050  1.00  0.00    -0.241 C  
HETATM    2  N   UNK A   0     -11.717  12.056  65.074  1.00  0.00    -0.298 NA 
ENDROOT
BRANCH   2   3
HETATM    3  C   UNK A   0     -11.338  13.341  65.363  1.00  0.00    -0.295 A  
HETATM    4  C   UNK A   0     -10.196  15.386  65.381  1.00  0.00    -0.408 A  
HETATM    5  C   UNK A   0     -10.531  14.204  64.645  1.00  0.00    -0.366 A  
HETATM    6  S   UNK A   0     -11.895  14.117  66.787  1.00  0.00    -0.439 SA 
HETATM    7  C   UNK A   0     -10.809  15.418  66.618  1.00  0.00    -0.302 A  
BRANCH   7   8
HETATM    8  C   UNK A   0     -10.599  16.357  67.706  1.00  0.00    -0.321 C  
HETATM    9  O   UNK A   0     -11.216  16.314  68.765  1.00  0.00    -0.333 OA 
ATOM     10  N   GLU A   1      -9.672  17.356  67.449  1.00  0.00    -0.263 N  
ATOM     11  H   GLU A   1      -9.204  17.381  66.543  1.00  0.00     0.000 HD 
BRANCH  10  12
ATOM     12  CA  GLU A   1      -9.350  18.377  68.450  1.00  0.00    -0.329 C  
ATOM     13  C   GLU A   1     -10.272  19.596  68.265  1.00  0.00    -0.452 C  
ATOM     14  O   GLU A   1     -10.751  19.734  67.004  1.00  0.00    -0.467 OA 
ATOM     15  OXT GLU A   1     -10.448  20.454  69.120  1.00  0.00    -0.141 OA 
BRANCH  12  16
ATOM     16  CB  GLU A   1      -7.881  18.789  68.303  1.00  0.00    -0.333 C  
BRANCH  16  17
ATOM     17  CG  GLU A   1      -6.976  17.618  67.920  1.00  0.00    -0.190 C  
ATOM     18  CD  GLU A   1      -6.695  17.579  66.439  1.00  0.00    -0.262 C  
ATOM     19  OE2 GLU A   1      -7.453  17.996  65.582  1.00  0.00    -0.542 OA 
ATOM     20  OE1 GLU A   1      -5.512  16.992  66.148  1.00  0.00    -0.336 OA 
ENDBRANCH  16  17
ENDBRANCH  12  16
ENDBRANCH  10  12
ENDBRANCH   7   8
ENDBRANCH   2   3
BRANCH   2  21
HETATM   21  C   UNK A   0     -10.647  11.040  65.119  1.00  0.00    -0.226 C  
BRANCH  21  22
HETATM   22  C   UNK A   0     -10.652  10.292  66.435  1.00  0.00    -0.177 A  
HETATM   23  C   UNK A   0     -11.143  10.198  68.813  1.00  0.00    -0.250 A  
HETATM   24  C   UNK A   0     -10.693   8.879  68.878  1.00  0.00    -0.106 A  
HETATM   25  C   UNK A   0     -11.123  10.904  67.607  1.00  0.00    -0.376 A  
HETATM   26  H   UNK A   0     -12.095  10.455  72.079  1.00  0.00     0.000 HD 
HETATM   27  C   UNK A   0     -10.198   8.273  67.724  1.00  0.00    -0.282 A  
HETATM   28  C   UNK A   0     -11.381   8.044  72.473  1.00  0.00    -0.469 C  
HETATM   29  N   UNK A   0     -10.726   8.216  70.105  1.00  0.00    -0.242 NA 
HETATM   30  N   UNK A   0     -11.710  10.061  71.221  1.00  0.00    -0.376 N  
HETATM   31  C   UNK A   0     -10.185   8.973  66.512  1.00  0.00    -0.318 A  
HETATM   32  C   UNK A   0     -11.647  10.817  70.067  1.00  0.00    -0.334 C  
HETATM   33  O   UNK A   0     -11.993  11.994  70.031  1.00  0.00    -0.326 OA 
HETATM   34  C   UNK A   0     -11.273   8.842  71.194  1.00  0.00    -0.277 C  
ENDBRANCH  21  22
ENDBRANCH   2  21
TORSDOF 7
ENDMDL
MODEL       25
REMARK 921   NORMALIZED FREE ENERGY PREDICTED BY IDOCK:   -6.88 KCAL/MOL
REMARK 922        TOTAL FREE ENERGY PREDICTED BY IDOCK:  -10.83 KCAL/MOL
REMARK 923 INTER-LIGAND FREE ENERGY PREDICTED BY IDOCK:   -9.61 KCAL/MOL
REMARK 924 INTRA-LIGAND FREE ENERGY PREDICTED BY IDOCK:   -1.21 KCAL/MOL
REMARK 927      BINDING AFFINITY PREDICTED BY RF-SCORE:    0.00 PKD
ROOT
HETATM    1  C   UNK A   0     -12.417  13.559  65.808  1.00  0.00    -0.462 C  
HETATM    2  N   UNK A   0     -11.179  13.485  66.578  1.00  0.00    -0.301 NA 
ENDROOT
BRANCH   2   3
HETATM    3  C   UNK A   0     -10.703  12.248  66.927  1.00  0.00    -0.232 A  
HETATM    4  C   UNK A   0     -10.115   9.982  66.875  1.00  0.00    -0.287 A  
HETATM    5  C   UNK A   0     -10.373  11.172  66.123  1.00  0.00    -0.302 A  
HETATM    6  S   UNK A   0     -10.408  11.856  68.570  1.00  0.00    -0.206 SA 
HETATM    7  C   UNK A   0     -10.193  10.200  68.236  1.00  0.00    -0.166 A  
BRANCH   7   8
HETATM    8  C   UNK A   0     -10.153   9.225  69.311  1.00  0.00    -0.200 C  
HETATM    9  O   UNK A   0      -9.403   9.313  70.277  1.00  0.00    -0.201 OA 
ATOM     10  N   GLU A   1     -11.000   8.138  69.150  1.00  0.00    -0.426 N  
ATOM     11  H   GLU A   1     -11.585   8.080  68.316  1.00  0.00     0.000 HD 
BRANCH  10  12
ATOM     12  CA  GLU A   1     -11.074   7.071  70.152  1.00  0.00    -0.285 C  
ATOM     13  C   GLU A   1     -10.529   5.759  69.557  1.00  0.00    -0.293 C  
ATOM     14  O   GLU A   1     -10.617   5.692  68.206  1.00  0.00    -0.212 OA 
ATOM     15  OXT GLU A   1     -10.183   4.797  70.230  1.00  0.00    -0.247 OA 
BRANCH  12  16
ATOM     16  CB  GLU A   1     -12.530   6.891  70.598  1.00  0.00    -0.179 C  
BRANCH  16  17
ATOM     17  CG  GLU A   1     -12.825   7.573  71.934  1.00  0.00    -0.306 C  
ATOM     18  CD  GLU A   1     -13.541   8.887  71.754  1.00  0.00    -0.412 C  
ATOM     19  OE2 GLU A   1     -13.426   9.608  70.780  1.00  0.00    -0.207 OA 
ATOM     20  OE1 GLU A   1     -14.310   9.212  72.818  1.00  0.00    -0.563 OA 
ENDBRANCH  16  17
ENDBRANCH  12  16
ENDBRANCH  10  12
ENDBRANCH   7   8
ENDBRANCH   2   3
BRANCH   2  21
HETATM   21  C   UNK A   0     -10.987  14.558  67.574  1.00  0.00    -0.293 C  
BRANCH  21  22
HETATM   22  C   UNK A   0      -9.965  15.570  67.104  1.00  0.00    -0.242 A  
HETATM   23  C   UNK A   0      -9.361  17.849  66.512  1.00  0.00    -0.290 A  
HETATM   24  C   UNK A   0      -8.045  17.460  66.265  1.00  0.00    -0.263 A  
HETATM   25  C   UNK A   0     -10.318  16.917  66.926  1.00  0.00    -0.304 A  
HETATM   26  H   UNK A   0      -8.919  21.174  65.892  1.00  0.00     0.000 HD 
HETATM   27  C   UNK A   0      -7.693  16.119  66.413  1.00  0.00    -0.129 A  
HETATM   28  C   UNK A   0      -6.454  20.754  65.415  1.00  0.00    -0.234 C  
HETATM   29  N   UNK A   0      -7.126  18.423  65.848  1.00  0.00    -0.386 NA 
HETATM   30  N   UNK A   0      -8.712  20.180  65.980  1.00  0.00    -0.567 N  
HETATM   31  C   UNK A   0      -8.645  15.184  66.836  1.00  0.00    -0.289 A  
HETATM   32  C   UNK A   0      -9.704  19.283  66.326  1.00  0.00    -0.374 C  
HETATM   33  O   UNK A   0     -10.872  19.623  66.488  1.00  0.00    -0.447 OA 
HETATM   34  C   UNK A   0      -7.513  19.735  65.771  1.00  0.00    -0.311 C  
ENDBRANCH  21  22
ENDBRANCH   2  21
TORSDOF 7
ENDMDL
MODEL       26
REMARK 921   NORMALIZED FREE ENERGY PREDICTED BY IDOCK:   -6.88 KCAL/MOL
REMARK 922        TOTAL FREE ENERGY PREDICTED BY IDOCK:  -10.82 KCAL/MOL
REMARK 923 INTER-LIGAND FREE ENERGY PREDICTED BY IDOCK:   -9.43 KCAL/MOL
REMARK 924 INTRA-LIGAND FREE ENERGY PREDICTED BY IDOCK:   -1.40 KCAL/MOL
REMARK 927      BINDING AFFINITY PREDICTED BY RF-SCORE:    0.00 PKD
ROOT
HETATM    1  C   UNK A   0      -9.428  11.102  64.196  1.00  0.00    -0.208 C  
HETATM    2  N   UNK A   0      -9.667  12.091  65.241  1.00  0.00    -0.369 NA 
ENDROOT
BRANCH   2   3
HETATM    3  C   UNK A   0      -9.366  11.756  66.536  1.00  0.00    -0.210 A  
HETATM    4  C   UNK A   0      -8.214  11.392  68.542  1.00  0.00    -0.153 A  
HETATM    5  C   UNK A   0      -8.280  12.119  67.311  1.00  0.00    -0.180 A  
HETATM    6  S   UNK A   0     -10.423  10.760  67.449  1.00  0.00    -0.242 SA 
HETATM    7  C   UNK A   0      -9.288  10.539  68.700  1.00  0.00    -0.172 A  
BRANCH   7   8
HETATM    8  C   UNK A   0      -9.498   9.530  69.723  1.00  0.00    -0.210 C  
HETATM    9  O   UNK A   0      -8.738   9.358  70.670  1.00  0.00    -0.223 OA 
ATOM     10  N   GLU A   1     -10.611   8.724  69.533  1.00  0.00    -0.227 N  
ATOM     11  H   GLU A   1     -11.202   8.874  68.714  1.00  0.00     0.000 HD 
BRANCH  10  12
ATOM     12  CA  GLU A   1     -10.958   7.663  70.482  1.00  0.00    -0.249 C  
ATOM     13  C   GLU A   1     -11.014   6.309  69.751  1.00  0.00    -0.378 C  
ATOM     14  O   GLU A   1     -11.280   6.412  68.426  1.00  0.00    -0.320 OA 
ATOM     15  OXT GLU A   1     -10.973   5.225  70.319  1.00  0.00    -0.166 OA 
BRANCH  12  16
ATOM     16  CB  GLU A   1     -12.312   7.979  71.127  1.00  0.00    -0.234 C  
BRANCH  16  17
ATOM     17  CG  GLU A   1     -12.253   9.191  72.057  1.00  0.00    -0.443 C  
ATOM     18  CD  GLU A   1     -12.837  10.425  71.418  1.00  0.00    -0.452 C  
ATOM     19  OE2 GLU A   1     -12.840  10.647  70.221  1.00  0.00    -0.302 OA 
ATOM     20  OE1 GLU A   1     -13.335  11.296  72.325  1.00  0.00    -0.394 OA 
ENDBRANCH  16  17
ENDBRANCH  12  16
ENDBRANCH  10  12
ENDBRANCH   7   8
ENDBRANCH   2   3
BRANCH   2  21
HETATM   21  C   UNK A   0     -10.861  12.938  65.052  1.00  0.00    -0.299 C  
BRANCH  21  22
HETATM   22  C   UNK A   0     -10.857  14.117  66.000  1.00  0.00    -0.297 A  
HETATM   23  C   UNK A   0      -9.980  16.278  66.687  1.00  0.00    -0.274 A  
HETATM   24  C   UNK A   0     -10.881  16.332  67.750  1.00  0.00    -0.315 A  
HETATM   25  C   UNK A   0      -9.962  15.182  65.818  1.00  0.00    -0.375 A  
HETATM   26  H   UNK A   0      -8.550  19.329  67.219  1.00  0.00     0.000 HD 
HETATM   27  C   UNK A   0     -11.755  15.265  67.955  1.00  0.00    -0.233 A  
HETATM   28  C   UNK A   0     -10.104  19.707  69.200  1.00  0.00    -0.386 C  
HETATM   29  N   UNK A   0     -10.859  17.442  68.595  1.00  0.00    -0.278 NA 
HETATM   30  N   UNK A   0      -9.149  18.515  67.353  1.00  0.00    -0.273 N  
HETATM   31  C   UNK A   0     -11.747  14.171  67.081  1.00  0.00    -0.430 A  
HETATM   32  C   UNK A   0      -9.050  17.424  66.511  1.00  0.00    -0.266 C  
HETATM   33  O   UNK A   0      -8.218  17.359  65.612  1.00  0.00    -0.491 OA 
HETATM   34  C   UNK A   0     -10.016  18.485  68.315  1.00  0.00    -0.376 C  
ENDBRANCH  21  22
ENDBRANCH   2  21
TORSDOF 7
ENDMDL
MODEL       27
REMARK 921   NORMALIZED FREE ENERGY PREDICTED BY IDOCK:   -6.87 KCAL/MOL
REMARK 922        TOTAL FREE ENERGY PREDICTED BY IDOCK:  -10.82 KCAL/MOL
REMARK 923 INTER-LIGAND FREE ENERGY PREDICTED BY IDOCK:   -9.98 KCAL/MOL
REMARK 924 INTRA-LIGAND FREE ENERGY PREDICTED BY IDOCK:   -0.84 KCAL/MOL
REMARK 927      BINDING AFFINITY PREDICTED BY RF-SCORE:    0.00 PKD
ROOT
HETATM    1  C   UNK A   0      -9.629  11.510  66.665  1.00  0.00    -0.197 C  
HETATM    2  N   UNK A   0     -10.670  12.381  67.202  1.00  0.00    -0.231 NA 
ENDROOT
BRANCH   2   3
HETATM    3  C   UNK A   0     -11.290  12.013  68.367  1.00  0.00    -0.279 A  
HETATM    4  C   UNK A   0     -12.250  12.066  70.503  1.00  0.00    -0.414 A  
HETATM    5  C   UNK A   0     -11.909  12.799  69.322  1.00  0.00    -0.358 A  
HETATM    6  S   UNK A   0     -11.401  10.361  68.815  1.00  0.00    -0.174 SA 
HETATM    7  C   UNK A   0     -11.936  10.726  70.391  1.00  0.00    -0.357 A  
BRANCH   7   8
HETATM    8  C   UNK A   0     -11.980   9.698  71.416  1.00  0.00    -0.399 C  
HETATM    9  O   UNK A   0     -12.927   9.545  72.180  1.00  0.00    -0.396 OA 
ATOM     10  N   GLU A   1     -10.839   8.916  71.512  1.00  0.00    -0.298 N  
ATOM     11  H   GLU A   1     -10.056   9.096  70.882  1.00  0.00     0.000 HD 
BRANCH  10  12
ATOM     12  CA  GLU A   1     -10.732   7.836  72.497  1.00  0.00    -0.314 C  
ATOM     13  C   GLU A   1      -9.432   7.995  73.306  1.00  0.00    -0.266 C  
ATOM     14  O   GLU A   1      -8.459   8.674  72.650  1.00  0.00    -0.378 OA 
ATOM     15  OXT GLU A   1      -9.224   7.442  74.378  1.00  0.00    -0.204 OA 
BRANCH  12  16
ATOM     16  CB  GLU A   1     -10.751   6.484  71.774  1.00  0.00    -0.262 C  
BRANCH  16  17
ATOM     17  CG  GLU A   1     -11.607   6.505  70.507  1.00  0.00    -0.455 C  
ATOM     18  CD  GLU A   1     -10.771   6.645  69.261  1.00  0.00    -0.265 C  
ATOM     19  OE2 GLU A   1      -9.697   7.215  69.211  1.00  0.00    -0.158 OA 
ATOM     20  OE1 GLU A   1     -11.361   6.096  68.174  1.00  0.00    -0.234 OA 
ENDBRANCH  16  17
ENDBRANCH  12  16
ENDBRANCH  10  12
ENDBRANCH   7   8
ENDBRANCH   2   3
BRANCH   2  21
HETATM   21  C   UNK A   0     -11.523  13.043  66.195  1.00  0.00    -0.340 C  
BRANCH  21  22
HETATM   22  C   UNK A   0     -11.212  14.520  66.093  1.00  0.00    -0.339 A  
HETATM   23  C   UNK A   0     -10.732  16.659  67.144  1.00  0.00    -0.202 A  
HETATM   24  C   UNK A   0     -10.594  17.267  65.896  1.00  0.00    -0.204 A  
HETATM   25  C   UNK A   0     -11.040  15.299  67.248  1.00  0.00    -0.325 A  
HETATM   26  H   UNK A   0      -9.982  19.411  69.015  1.00  0.00     0.000 HD 
HETATM   27  C   UNK A   0     -10.789  16.506  64.744  1.00  0.00    -0.145 A  
HETATM   28  C   UNK A   0      -9.631  20.759  66.884  1.00  0.00    -0.330 C  
HETATM   29  N   UNK A   0     -10.291  18.628  65.841  1.00  0.00    -0.588 NA 
HETATM   30  N   UNK A   0     -10.166  18.828  68.199  1.00  0.00    -0.374 N  
HETATM   31  C   UNK A   0     -11.089  15.143  64.844  1.00  0.00    -0.425 A  
HETATM   32  C   UNK A   0     -10.535  17.506  68.350  1.00  0.00    -0.372 C  
HETATM   33  O   UNK A   0     -10.709  16.991  69.451  1.00  0.00    -0.322 OA 
HETATM   34  C   UNK A   0     -10.057  19.314  67.003  1.00  0.00    -0.374 C  
ENDBRANCH  21  22
ENDBRANCH   2  21
TORSDOF 7
ENDMDL
MODEL       28
REMARK 921   NORMALIZED FREE ENERGY PREDICTED BY IDOCK:   -6.86 KCAL/MOL
REMARK 922        TOTAL FREE ENERGY PREDICTED BY IDOCK:  -10.79 KCAL/MOL
REMARK 923 INTER-LIGAND FREE ENERGY PREDICTED BY IDOCK:   -9.38 KCAL/MOL
REMARK 924 INTRA-LIGAND FREE ENERGY PREDICTED BY IDOCK:   -1.41 KCAL/MOL
REMARK 927      BINDING AFFINITY PREDICTED BY RF-SCORE:    0.00 PKD
ROOT
HETATM    1  C   UNK A   0      -9.808  17.481  68.665  1.00  0.00    -0.338 C  
HETATM    2  N   UNK A   0     -10.457  16.176  68.738  1.00  0.00    -0.249 NA 
ENDROOT
BRANCH   2   3
HETATM    3  C   UNK A   0     -10.094  15.216  67.829  1.00  0.00    -0.230 A  
HETATM    4  C   UNK A   0     -10.085  13.771  65.986  1.00  0.00    -0.320 A  
HETATM    5  C   UNK A   0     -10.551  15.006  66.540  1.00  0.00    -0.305 A  
HETATM    6  S   UNK A   0      -8.890  14.057  68.214  1.00  0.00    -0.184 SA 
HETATM    7  C   UNK A   0      -9.235  13.104  66.844  1.00  0.00    -0.236 A  
BRANCH   7   8
HETATM    8  C   UNK A   0      -8.688  11.765  66.716  1.00  0.00    -0.192 C  
HETATM    9  O   UNK A   0      -7.485  11.523  66.712  1.00  0.00    -0.144 OA 
ATOM     10  N   GLU A   1      -9.629  10.760  66.544  1.00  0.00    -0.179 N  
ATOM     11  H   GLU A   1     -10.619  11.004  66.517  1.00  0.00     0.000 HD 
BRANCH  10  12
ATOM     12  CA  GLU A   1      -9.231   9.357  66.402  1.00  0.00    -0.169 C  
ATOM     13  C   GLU A   1      -8.904   9.056  64.928  1.00  0.00    -0.148 C  
ATOM     14  O   GLU A   1      -9.529   9.877  64.049  1.00  0.00    -0.277 OA 
ATOM     15  OXT GLU A   1      -8.263   8.081  64.557  1.00  0.00    -0.148 OA 
BRANCH  12  16
ATOM     16  CB  GLU A   1     -10.369   8.454  66.893  1.00  0.00    -0.378 C  
BRANCH  16  17
ATOM     17  CG  GLU A   1      -9.860   7.175  67.558  1.00  0.00    -0.192 C  
ATOM     18  CD  GLU A   1     -10.501   6.941  68.902  1.00  0.00    -0.208 C  
ATOM     19  OE2 GLU A   1     -10.903   7.824  69.637  1.00  0.00    -0.244 OA 
ATOM     20  OE1 GLU A   1     -10.553   5.631  69.234  1.00  0.00    -0.267 OA 
ENDBRANCH  16  17
ENDBRANCH  12  16
ENDBRANCH  10  12
ENDBRANCH   7   8
ENDBRANCH   2   3
BRANCH   2  21
HETATM   21  C   UNK A   0     -11.882  16.197  69.123  1.00  0.00    -0.178 C  
BRANCH  21  22
HETATM   22  C   UNK A   0     -12.255  14.971  69.928  1.00  0.00    -0.351 A  
HETATM   23  C   UNK A   0     -12.476  12.559  70.131  1.00  0.00    -0.092 A  
HETATM   24  C   UNK A   0     -12.915  12.687  71.448  1.00  0.00    -0.258 A  
HETATM   25  C   UNK A   0     -12.149  13.687  69.372  1.00  0.00    -0.364 A  
HETATM   26  H   UNK A   0     -12.516   9.150  70.025  1.00  0.00     0.000 HD 
HETATM   27  C   UNK A   0     -13.050  13.961  71.999  1.00  0.00    -0.480 A  
HETATM   28  C   UNK A   0     -13.297   9.088  72.446  1.00  0.00    -0.516 C  
HETATM   29  N   UNK A   0     -13.236  11.534  72.165  1.00  0.00    -0.559 NA 
HETATM   30  N   UNK A   0     -12.632  10.099  70.378  1.00  0.00    -0.516 N  
HETATM   31  C   UNK A   0     -12.714  15.092  71.246  1.00  0.00    -0.439 A  
HETATM   32  C   UNK A   0     -12.363  11.187  69.571  1.00  0.00    -0.194 C  
HETATM   33  O   UNK A   0     -12.029  11.069  68.395  1.00  0.00    -0.565 OA 
HETATM   34  C   UNK A   0     -13.034  10.306  71.592  1.00  0.00    -0.465 C  
ENDBRANCH  21  22
ENDBRANCH   2  21
TORSDOF 7
ENDMDL
MODEL       29
REMARK 921   NORMALIZED FREE ENERGY PREDICTED BY IDOCK:   -6.83 KCAL/MOL
REMARK 922        TOTAL FREE ENERGY PREDICTED BY IDOCK:  -10.75 KCAL/MOL
REMARK 923 INTER-LIGAND FREE ENERGY PREDICTED BY IDOCK:   -9.53 KCAL/MOL
REMARK 924 INTRA-LIGAND FREE ENERGY PREDICTED BY IDOCK:   -1.23 KCAL/MOL
REMARK 927      BINDING AFFINITY PREDICTED BY RF-SCORE:    0.00 PKD
ROOT
HETATM    1  C   UNK A   0     -11.616  14.096  68.456  1.00  0.00    -0.316 C  
HETATM    2  N   UNK A   0     -10.813  13.721  67.296  1.00  0.00    -0.283 NA 
ENDROOT
BRANCH   2   3
HETATM    3  C   UNK A   0      -9.628  14.377  67.085  1.00  0.00    -0.250 A  
HETATM    4  C   UNK A   0      -7.397  15.071  67.245  1.00  0.00    -0.195 A  
HETATM    5  C   UNK A   0      -8.345  14.021  67.460  1.00  0.00    -0.200 A  
HETATM    6  S   UNK A   0      -9.590  15.859  66.223  1.00  0.00    -0.344 SA 
HETATM    7  C   UNK A   0      -7.973  16.178  66.654  1.00  0.00    -0.270 A  
BRANCH   7   8
HETATM    8  C   UNK A   0      -7.388  17.487  66.423  1.00  0.00    -0.299 C  
HETATM    9  O   UNK A   0      -6.946  17.849  65.338  1.00  0.00    -0.434 OA 
ATOM     10  N   GLU A   1      -7.313  18.302  67.543  1.00  0.00    -0.208 N  
ATOM     11  H   GLU A   1      -7.659  17.954  68.437  1.00  0.00     0.000 HD 
BRANCH  10  12
ATOM     12  CA  GLU A   1      -6.750  19.653  67.469  1.00  0.00    -0.214 C  
ATOM     13  C   GLU A   1      -6.117  20.029  68.822  1.00  0.00    -0.280 C  
ATOM     14  O   GLU A   1      -6.647  19.363  69.877  1.00  0.00    -0.263 OA 
ATOM     15  OXT GLU A   1      -5.318  20.943  68.970  1.00  0.00    -0.312 OA 
BRANCH  12  16
ATOM     16  CB  GLU A   1      -7.857  20.647  67.101  1.00  0.00    -0.334 C  
BRANCH  16  17
ATOM     17  CG  GLU A   1      -9.190  20.319  67.774  1.00  0.00    -0.395 C  
ATOM     18  CD  GLU A   1     -10.190  19.746  66.802  1.00  0.00    -0.462 C  
ATOM     19  OE2 GLU A   1     -10.219  20.002  65.612  1.00  0.00    -0.429 OA 
ATOM     20  OE1 GLU A   1     -11.091  18.934  67.399  1.00  0.00    -0.359 OA 
ENDBRANCH  16  17
ENDBRANCH  12  16
ENDBRANCH  10  12
ENDBRANCH   7   8
ENDBRANCH   2   3
BRANCH   2  21
HETATM   21  C   UNK A   0     -11.578  13.360  66.086  1.00  0.00    -0.346 C  
BRANCH  21  22
HETATM   22  C   UNK A   0     -10.844  12.329  65.256  1.00  0.00    -0.332 A  
HETATM   23  C   UNK A   0      -9.762  10.162  65.048  1.00  0.00    -0.384 A  
HETATM   24  C   UNK A   0      -9.510  10.393  63.695  1.00  0.00    -0.306 A  
HETATM   25  C   UNK A   0     -10.421  11.118  65.827  1.00  0.00    -0.305 A  
HETATM   26  H   UNK A   0      -8.452   7.014  65.167  1.00  0.00     0.000 HD 
HETATM   27  C   UNK A   0      -9.902  11.604  63.128  1.00  0.00    -0.407 A  
HETATM   28  C   UNK A   0      -7.904   7.153  62.685  1.00  0.00    -0.135 C  
HETATM   29  N   UNK A   0      -8.844   9.413  62.958  1.00  0.00    -0.325 NA 
HETATM   30  N   UNK A   0      -8.726   7.926  64.800  1.00  0.00    -0.377 N  
HETATM   31  C   UNK A   0     -10.571  12.560  63.902  1.00  0.00    -0.472 A  
HETATM   32  C   UNK A   0      -9.313   8.867  65.622  1.00  0.00    -0.191 C  
HETATM   33  O   UNK A   0      -9.482   8.680  66.823  1.00  0.00    -0.162 OA 
HETATM   34  C   UNK A   0      -8.530   8.220  63.554  1.00  0.00     0.065 C  
ENDBRANCH  21  22
ENDBRANCH   2  21
TORSDOF 7
ENDMDL
MODEL       30
REMARK 921   NORMALIZED FREE ENERGY PREDICTED BY IDOCK:   -6.81 KCAL/MOL
REMARK 922        TOTAL FREE ENERGY PREDICTED BY IDOCK:  -10.73 KCAL/MOL
REMARK 923 INTER-LIGAND FREE ENERGY PREDICTED BY IDOCK:  -10.02 KCAL/MOL
REMARK 924 INTRA-LIGAND FREE ENERGY PREDICTED BY IDOCK:   -0.71 KCAL/MOL
REMARK 927      BINDING AFFINITY PREDICTED BY RF-SCORE:    0.00 PKD
ROOT
HETATM    1  C   UNK A   0     -11.815  11.881  63.822  1.00  0.00    -0.458 C  
HETATM    2  N   UNK A   0     -11.041  12.264  64.999  1.00  0.00    -0.307 NA 
ENDROOT
BRANCH   2   3
HETATM    3  C   UNK A   0     -10.831  13.598  65.232  1.00  0.00    -0.322 A  
HETATM    4  C   UNK A   0     -10.797  15.930  65.011  1.00  0.00    -0.444 A  
HETATM    5  C   UNK A   0     -11.441  14.700  64.661  1.00  0.00    -0.389 A  
HETATM    6  S   UNK A   0      -9.680  14.112  66.397  1.00  0.00    -0.295 SA 
HETATM    7  C   UNK A   0      -9.750  15.736  65.889  1.00  0.00    -0.354 A  
BRANCH   7   8
HETATM    8  C   UNK A   0      -8.765  16.700  66.349  1.00  0.00    -0.310 C  
HETATM    9  O   UNK A   0      -8.115  17.415  65.594  1.00  0.00    -0.485 OA 
ATOM     10  N   GLU A   1      -8.567  16.727  67.721  1.00  0.00    -0.196 N  
ATOM     11  H   GLU A   1      -9.101  16.093  68.316  1.00  0.00     0.000 HD 
BRANCH  10  12
ATOM     12  CA  GLU A   1      -7.607  17.648  68.337  1.00  0.00    -0.260 C  
ATOM     13  C   GLU A   1      -6.655  16.867  69.261  1.00  0.00    -0.232 C  
ATOM     14  O   GLU A   1      -7.180  15.710  69.736  1.00  0.00    -0.180 OA 
ATOM     15  OXT GLU A   1      -5.583  17.301  69.660  1.00  0.00    -0.185 OA 
BRANCH  12  16
ATOM     16  CB  GLU A   1      -8.365  18.718  69.130  1.00  0.00    -0.029 C  
BRANCH  16  17
ATOM     17  CG  GLU A   1      -9.815  18.876  68.671  1.00  0.00    -0.463 C  
ATOM     18  CD  GLU A   1      -9.941  19.829  67.510  1.00  0.00    -0.409 C  
ATOM     19  OE2 GLU A   1      -9.190  20.763  67.299  1.00  0.00    -0.364 OA 
ATOM     20  OE1 GLU A   1     -11.013  19.561  66.730  1.00  0.00    -0.436 OA 
ENDBRANCH  16  17
ENDBRANCH  12  16
ENDBRANCH  10  12
ENDBRANCH   7   8
ENDBRANCH   2   3
BRANCH   2  21
HETATM   21  C   UNK A   0      -9.926  11.362  65.346  1.00  0.00    -0.245 C  
BRANCH  21  22
HETATM   22  C   UNK A   0     -10.247  10.535  66.572  1.00  0.00    -0.288 A  
HETATM   23  C   UNK A   0     -11.055  10.365  68.858  1.00  0.00    -0.296 A  
HETATM   24  C   UNK A   0     -10.878   8.981  68.842  1.00  0.00    -0.045 A  
HETATM   25  C   UNK A   0     -10.742  11.140  67.737  1.00  0.00    -0.267 A  
HETATM   26  H   UNK A   0     -12.360  10.565  72.004  1.00  0.00     0.000 HD 
HETATM   27  C   UNK A   0     -10.361   8.376  67.698  1.00  0.00    -0.317 A  
HETATM   28  C   UNK A   0     -12.179   8.037  72.236  1.00  0.00    -0.366 C  
HETATM   29  N   UNK A   0     -11.198   8.249  69.986  1.00  0.00    -0.433 NA 
HETATM   30  N   UNK A   0     -11.949  10.167  71.160  1.00  0.00    -0.364 N  
HETATM   31  C   UNK A   0     -10.055   9.147  66.571  1.00  0.00    -0.357 A  
HETATM   32  C   UNK A   0     -11.591  10.978  70.102  1.00  0.00    -0.334 C  
HETATM   33  O   UNK A   0     -11.697  12.200  70.143  1.00  0.00    -0.303 OA 
HETATM   34  C   UNK A   0     -11.753   8.889  71.062  1.00  0.00    -0.289 C  
ENDBRANCH  21  22
ENDBRANCH   2  21
TORSDOF 7
ENDMDL
MODEL       31
REMARK 921   NORMALIZED FREE ENERGY PREDICTED BY IDOCK:   -6.80 KCAL/MOL
REMARK 922        TOTAL FREE ENERGY PREDICTED BY IDOCK:  -10.71 KCAL/MOL
REMARK 923 INTER-LIGAND FREE ENERGY PREDICTED BY IDOCK:   -9.53 KCAL/MOL
REMARK 924 INTRA-LIGAND FREE ENERGY PREDICTED BY IDOCK:   -1.18 KCAL/MOL
REMARK 927      BINDING AFFINITY PREDICTED BY RF-SCORE:    0.00 PKD
ROOT
HETATM    1  C   UNK A   0     -11.387  14.801  69.917  1.00  0.00    -0.271 C  
HETATM    2  N   UNK A   0     -10.592  13.877  69.114  1.00  0.00    -0.402 NA 
ENDROOT
BRANCH   2   3
HETATM    3  C   UNK A   0      -9.482  14.362  68.473  1.00  0.00    -0.212 A  
HETATM    4  C   UNK A   0      -7.281  14.663  67.731  1.00  0.00    -0.191 A  
HETATM    5  C   UNK A   0      -8.259  13.755  68.249  1.00  0.00    -0.156 A  
HETATM    6  S   UNK A   0      -9.486  15.932  67.782  1.00  0.00    -0.216 SA 
HETATM    7  C   UNK A   0      -7.803  15.923  67.517  1.00  0.00    -0.153 A  
BRANCH   7   8
HETATM    8  C   UNK A   0      -7.103  17.143  67.156  1.00  0.00    -0.175 C  
HETATM    9  O   UNK A   0      -6.193  17.183  66.335  1.00  0.00    -0.205 OA 
ATOM     10  N   GLU A   1      -7.503  18.276  67.849  1.00  0.00    -0.228 N  
ATOM     11  H   GLU A   1      -8.239  18.198  68.551  1.00  0.00     0.000 HD 
BRANCH  10  12
ATOM     12  CA  GLU A   1      -6.890  19.583  67.594  1.00  0.00    -0.232 C  
ATOM     13  C   GLU A   1      -6.277  20.133  68.895  1.00  0.00    -0.316 C  
ATOM     14  O   GLU A   1      -6.855  19.647  70.021  1.00  0.00    -0.233 OA 
ATOM     15  OXT GLU A   1      -5.450  21.034  68.931  1.00  0.00    -0.342 OA 
BRANCH  12  16
ATOM     16  CB  GLU A   1      -7.954  20.547  67.055  1.00  0.00    -0.333 C  
BRANCH  16  17
ATOM     17  CG  GLU A   1      -8.820  19.918  65.964  1.00  0.00    -0.287 C  
ATOM     18  CD  GLU A   1     -10.237  19.693  66.424  1.00  0.00    -0.488 C  
ATOM     19  OE2 GLU A   1     -10.563  19.482  67.578  1.00  0.00    -0.444 OA 
ATOM     20  OE1 GLU A   1     -11.126  19.712  65.405  1.00  0.00    -0.412 OA 
ENDBRANCH  16  17
ENDBRANCH  12  16
ENDBRANCH  10  12
ENDBRANCH   7   8
ENDBRANCH   2   3
BRANCH   2  21
HETATM   21  C   UNK A   0     -11.360  12.846  68.389  1.00  0.00    -0.294 C  
BRANCH  21  22
HETATM   22  C   UNK A   0     -11.204  11.486  69.035  1.00  0.00    -0.324 A  
HETATM   23  C   UNK A   0     -11.846   9.859  70.723  1.00  0.00    -0.415 A  
HETATM   24  C   UNK A   0     -10.935   8.935  70.212  1.00  0.00    -0.241 A  
HETATM   25  C   UNK A   0     -11.982  11.125  70.146  1.00  0.00    -0.449 A  
HETATM   26  H   UNK A   0     -13.130   7.847  73.161  1.00  0.00     0.000 HD 
HETATM   27  C   UNK A   0     -10.138   9.296  69.126  1.00  0.00    -0.204 A  
HETATM   28  C   UNK A   0     -11.589   5.964  72.412  1.00  0.00    -0.341 C  
HETATM   29  N   UNK A   0     -10.829   7.686  70.823  1.00  0.00    -0.234 NA 
HETATM   30  N   UNK A   0     -12.544   8.163  72.388  1.00  0.00    -0.541 N  
HETATM   31  C   UNK A   0     -10.279  10.559  68.539  1.00  0.00    -0.190 A  
HETATM   32  C   UNK A   0     -12.665   9.446  71.893  1.00  0.00    -0.401 C  
HETATM   33  O   UNK A   0     -13.429  10.272  72.383  1.00  0.00    -0.310 OA 
HETATM   34  C   UNK A   0     -11.673   7.366  71.853  1.00  0.00    -0.288 C  
ENDBRANCH  21  22
ENDBRANCH   2  21
TORSDOF 7
ENDMDL
MODEL       32
REMARK 921   NORMALIZED FREE ENERGY PREDICTED BY IDOCK:   -6.79 KCAL/MOL
REMARK 922        TOTAL FREE ENERGY PREDICTED BY IDOCK:  -10.69 KCAL/MOL
REMARK 923 INTER-LIGAND FREE ENERGY PREDICTED BY IDOCK:   -9.84 KCAL/MOL
REMARK 924 INTRA-LIGAND FREE ENERGY PREDICTED BY IDOCK:   -0.86 KCAL/MOL
REMARK 927      BINDING AFFINITY PREDICTED BY RF-SCORE:    0.00 PKD
ROOT
HETATM    1  C   UNK A   0     -10.397   9.789  66.357  1.00  0.00    -0.177 C  
HETATM    2  N   UNK A   0     -10.622  11.097  66.964  1.00  0.00    -0.239 NA 
ENDROOT
BRANCH   2   3
HETATM    3  C   UNK A   0     -10.921  12.153  66.142  1.00  0.00    -0.298 A  
HETATM    4  C   UNK A   0     -11.219  13.499  64.249  1.00  0.00    -0.383 A  
HETATM    5  C   UNK A   0     -11.148  12.171  64.778  1.00  0.00    -0.364 A  
HETATM    6  S   UNK A   0     -11.087  13.737  66.779  1.00  0.00    -0.315 SA 
HETATM    7  C   UNK A   0     -11.105  14.458  65.236  1.00  0.00    -0.342 A  
BRANCH   7   8
HETATM    8  C   UNK A   0     -10.971  15.897  65.088  1.00  0.00    -0.377 C  
HETATM    9  O   UNK A   0     -11.401  16.520  64.123  1.00  0.00    -1.060 OA 
ATOM     10  N   GLU A   1     -10.269  16.528  66.104  1.00  0.00    -0.332 N  
ATOM     11  H   GLU A   1      -9.895  15.972  66.872  1.00  0.00     0.000 HD 
BRANCH  10  12
ATOM     12  CA  GLU A   1     -10.052  17.978  66.096  1.00  0.00    -0.334 C  
ATOM     13  C   GLU A   1      -8.542  18.278  66.049  1.00  0.00     0.019 C  
ATOM     14  O   GLU A   1      -7.770  17.285  66.554  1.00  0.00    -0.233 OA 
ATOM     15  OXT GLU A   1      -8.072  19.362  65.729  1.00  0.00    -0.436 OA 
BRANCH  12  16
ATOM     16  CB  GLU A   1     -10.681  18.593  67.351  1.00  0.00    -0.456 C  
BRANCH  16  17
ATOM     17  CG  GLU A   1     -10.067  18.053  68.643  1.00  0.00    -0.401 C  
ATOM     18  CD  GLU A   1     -10.695  16.751  69.069  1.00  0.00    -0.331 C  
ATOM     19  OE2 GLU A   1     -11.843  16.426  68.824  1.00  0.00    -0.201 OA 
ATOM     20  OE1 GLU A   1      -9.854  15.979  69.794  1.00  0.00    -0.246 OA 
ENDBRANCH  16  17
ENDBRANCH  12  16
ENDBRANCH  10  12
ENDBRANCH   7   8
ENDBRANCH   2   3
BRANCH   2  21
HETATM   21  C   UNK A   0      -9.778  11.407  68.135  1.00  0.00    -0.192 C  
BRANCH  21  22
HETATM   22  C   UNK A   0     -10.125  10.523  69.314  1.00  0.00    -0.244 A  
HETATM   23  C   UNK A   0      -9.520   8.796  70.913  1.00  0.00    -0.269 A  
HETATM   24  C   UNK A   0     -10.764   8.905  71.536  1.00  0.00    -0.328 A  
HETATM   25  C   UNK A   0      -9.199   9.593  69.811  1.00  0.00    -0.237 A  
HETATM   26  H   UNK A   0      -8.224   6.445  73.019  1.00  0.00     0.000 HD 
HETATM   27  C   UNK A   0     -11.699   9.807  71.031  1.00  0.00    -0.453 A  
HETATM   28  C   UNK A   0     -10.385   6.466  74.365  1.00  0.00    -0.268 C  
HETATM   29  N   UNK A   0     -11.043   8.085  72.630  1.00  0.00    -0.371 NA 
HETATM   30  N   UNK A   0      -8.891   7.092  72.598  1.00  0.00    -0.122 N  
HETATM   31  C   UNK A   0     -11.378  10.614  69.934  1.00  0.00    -0.386 A  
HETATM   32  C   UNK A   0      -8.555   7.811  71.468  1.00  0.00    -0.117 C  
HETATM   33  O   UNK A   0      -7.481   7.669  70.892  1.00  0.00    -0.069 OA 
HETATM   34  C   UNK A   0     -10.067   7.256  73.116  1.00  0.00    -0.273 C  
ENDBRANCH  21  22
ENDBRANCH   2  21
TORSDOF 7
ENDMDL
MODEL       33
REMARK 921   NORMALIZED FREE ENERGY PREDICTED BY IDOCK:   -6.77 KCAL/MOL
REMARK 922        TOTAL FREE ENERGY PREDICTED BY IDOCK:  -10.68 KCAL/MOL
REMARK 923 INTER-LIGAND FREE ENERGY PREDICTED BY IDOCK:   -9.64 KCAL/MOL
REMARK 924 INTRA-LIGAND FREE ENERGY PREDICTED BY IDOCK:   -1.04 KCAL/MOL
REMARK 927      BINDING AFFINITY PREDICTED BY RF-SCORE:    0.00 PKD
ROOT
HETATM    1  C   UNK A   0      -9.566   9.847  63.068  1.00  0.00     0.093 C  
HETATM    2  N   UNK A   0      -9.880  10.455  64.357  1.00  0.00    -0.328 NA 
ENDROOT
BRANCH   2   3
HETATM    3  C   UNK A   0     -10.518  11.668  64.366  1.00  0.00    -0.322 A  
HETATM    4  C   UNK A   0     -11.874  13.486  63.781  1.00  0.00    -0.429 A  
HETATM    5  C   UNK A   0     -11.639  12.079  63.667  1.00  0.00    -0.578 A  
HETATM    6  S   UNK A   0      -9.957  12.945  65.365  1.00  0.00    -0.137 SA 
HETATM    7  C   UNK A   0     -10.960  14.100  64.615  1.00  0.00    -0.382 A  
BRANCH   7   8
HETATM    8  C   UNK A   0     -10.768  15.518  64.858  1.00  0.00    -0.392 C  
HETATM    9  O   UNK A   0     -11.383  16.396  64.261  1.00  0.00    -0.892 OA 
ATOM     10  N   GLU A   1      -9.791  15.827  65.792  1.00  0.00    -0.339 N  
ATOM     11  H   GLU A   1      -9.275  15.071  66.243  1.00  0.00     0.000 HD 
BRANCH  10  12
ATOM     12  CA  GLU A   1      -9.482  17.215  66.146  1.00  0.00    -0.201 C  
ATOM     13  C   GLU A   1      -7.958  17.399  66.257  1.00  0.00    -0.279 C  
ATOM     14  O   GLU A   1      -7.289  16.256  66.550  1.00  0.00    -0.214 OA 
ATOM     15  OXT GLU A   1      -7.398  18.487  66.234  1.00  0.00    -0.231 OA 
BRANCH  12  16
ATOM     16  CB  GLU A   1     -10.161  17.564  67.476  1.00  0.00    -0.340 C  
BRANCH  16  17
ATOM     17  CG  GLU A   1     -10.707  18.991  67.503  1.00  0.00    -0.532 C  
ATOM     18  CD  GLU A   1      -9.704  19.972  68.054  1.00  0.00    -0.368 C  
ATOM     19  OE2 GLU A   1      -8.844  19.694  68.870  1.00  0.00    -0.321 OA 
ATOM     20  OE1 GLU A   1      -9.879  21.223  67.573  1.00  0.00    -0.215 OA 
ENDBRANCH  16  17
ENDBRANCH  12  16
ENDBRANCH  10  12
ENDBRANCH   7   8
ENDBRANCH   2   3
BRANCH   2  21
HETATM   21  C   UNK A   0      -8.876  10.244  65.418  1.00  0.00    -0.172 C  
BRANCH  21  22
HETATM   22  C   UNK A   0      -9.411   9.347  66.513  1.00  0.00    -0.222 A  
HETATM   23  C   UNK A   0     -10.440   9.055  68.696  1.00  0.00    -0.229 A  
HETATM   24  C   UNK A   0     -10.441   7.669  68.536  1.00  0.00    -0.174 A  
HETATM   25  C   UNK A   0      -9.929   9.891  67.698  1.00  0.00    -0.212 A  
HETATM   26  H   UNK A   0     -11.992   9.107  71.733  1.00  0.00     0.000 HD 
HETATM   27  C   UNK A   0      -9.903   7.120  67.373  1.00  0.00    -0.200 A  
HETATM   28  C   UNK A   0     -12.158   6.567  71.688  1.00  0.00    -0.381 C  
HETATM   29  N   UNK A   0     -10.956   6.874  69.559  1.00  0.00    -0.321 NA 
HETATM   30  N   UNK A   0     -11.559   8.745  70.884  1.00  0.00    -0.282 N  
HETATM   31  C   UNK A   0      -9.399   7.953  66.368  1.00  0.00    -0.247 A  
HETATM   32  C   UNK A   0     -11.005   9.604  69.956  1.00  0.00    -0.260 C  
HETATM   33  O   UNK A   0     -10.957  10.819  70.129  1.00  0.00    -0.263 OA 
HETATM   34  C   UNK A   0     -11.521   7.470  70.656  1.00  0.00    -0.269 C  
ENDBRANCH  21  22
ENDBRANCH   2  21
TORSDOF 7
ENDMDL
MODEL       34
REMARK 921   NORMALIZED FREE ENERGY PREDICTED BY IDOCK:   -6.75 KCAL/MOL
REMARK 922        TOTAL FREE ENERGY PREDICTED BY IDOCK:  -10.64 KCAL/MOL
REMARK 923 INTER-LIGAND FREE ENERGY PREDICTED BY IDOCK:   -9.98 KCAL/MOL
REMARK 924 INTRA-LIGAND FREE ENERGY PREDICTED BY IDOCK:   -0.66 KCAL/MOL
REMARK 927      BINDING AFFINITY PREDICTED BY RF-SCORE:    0.00 PKD
ROOT
HETATM    1  C   UNK A   0     -11.926  12.526  65.304  1.00  0.00    -0.438 C  
HETATM    2  N   UNK A   0     -10.985  12.096  66.334  1.00  0.00    -0.274 NA 
ENDROOT
BRANCH   2   3
HETATM    3  C   UNK A   0     -11.438  11.985  67.623  1.00  0.00    -0.322 A  
HETATM    4  C   UNK A   0     -12.018  12.472  69.839  1.00  0.00    -0.371 A  
HETATM    5  C   UNK A   0     -11.805  12.975  68.516  1.00  0.00    -0.360 A  
HETATM    6  S   UNK A   0     -11.643  10.444  68.348  1.00  0.00     0.092 SA 
HETATM    7  C   UNK A   0     -11.868  11.101  69.904  1.00  0.00    -0.363 A  
BRANCH   7   8
HETATM    8  C   UNK A   0     -11.847  10.249  71.079  1.00  0.00    -0.377 C  
HETATM    9  O   UNK A   0     -12.561  10.430  72.060  1.00  0.00    -0.351 OA 
ATOM     10  N   GLU A   1     -10.913   9.223  71.044  1.00  0.00    -0.290 N  
ATOM     11  H   GLU A   1     -10.311   9.125  70.226  1.00  0.00     0.000 HD 
BRANCH  10  12
ATOM     12  CA  GLU A   1     -10.773   8.279  72.156  1.00  0.00    -0.319 C  
ATOM     13  C   GLU A   1      -9.338   8.338  72.712  1.00  0.00    -0.268 C  
ATOM     14  O   GLU A   1      -8.419   8.765  71.811  1.00  0.00    -0.247 OA 
ATOM     15  OXT GLU A   1      -9.014   7.904  73.809  1.00  0.00    -0.261 OA 
BRANCH  12  16
ATOM     16  CB  GLU A   1     -11.099   6.863  71.665  1.00  0.00    -0.271 C  
BRANCH  16  17
ATOM     17  CG  GLU A   1     -11.552   6.836  70.205  1.00  0.00    -0.417 C  
ATOM     18  CD  GLU A   1     -10.436   6.442  69.272  1.00  0.00    -0.231 C  
ATOM     19  OE2 GLU A   1      -9.256   6.654  69.480  1.00  0.00    -0.143 OA 
ATOM     20  OE1 GLU A   1     -10.886   5.850  68.142  1.00  0.00    -0.271 OA 
ENDBRANCH  16  17
ENDBRANCH  12  16
ENDBRANCH  10  12
ENDBRANCH   7   8
ENDBRANCH   2   3
BRANCH   2  21
HETATM   21  C   UNK A   0      -9.602  12.584  66.172  1.00  0.00    -0.228 C  
BRANCH  21  22
HETATM   22  C   UNK A   0      -9.488  14.049  66.536  1.00  0.00    -0.295 A  
HETATM   23  C   UNK A   0     -10.055  16.379  66.134  1.00  0.00    -0.364 A  
HETATM   24  C   UNK A   0      -9.303  16.776  67.240  1.00  0.00    -0.231 A  
HETATM   25  C   UNK A   0     -10.149  15.030  65.779  1.00  0.00    -0.367 A  
HETATM   26  H   UNK A   0     -11.195  19.481  65.290  1.00  0.00     0.000 HD 
HETATM   27  C   UNK A   0      -8.622  15.811  67.980  1.00  0.00    -0.163 A  
HETATM   28  C   UNK A   0      -9.939  20.476  67.268  1.00  0.00    -0.528 C  
HETATM   29  N   UNK A   0      -9.234  18.134  67.553  1.00  0.00    -0.256 NA 
HETATM   30  N   UNK A   0     -10.686  18.749  65.784  1.00  0.00    -0.365 N  
HETATM   31  C   UNK A   0      -8.721  14.458  67.634  1.00  0.00    -0.191 A  
HETATM   32  C   UNK A   0     -10.753  17.437  65.358  1.00  0.00    -0.035 C  
HETATM   33  O   UNK A   0     -11.371  17.102  64.351  1.00  0.00    -1.115 OA 
HETATM   34  C   UNK A   0      -9.966  19.032  66.824  1.00  0.00    -0.360 C  
ENDBRANCH  21  22
ENDBRANCH   2  21
TORSDOF 7
ENDMDL
MODEL       35
REMARK 921   NORMALIZED FREE ENERGY PREDICTED BY IDOCK:   -6.75 KCAL/MOL
REMARK 922        TOTAL FREE ENERGY PREDICTED BY IDOCK:  -10.64 KCAL/MOL
REMARK 923 INTER-LIGAND FREE ENERGY PREDICTED BY IDOCK:   -9.62 KCAL/MOL
REMARK 924 INTRA-LIGAND FREE ENERGY PREDICTED BY IDOCK:   -1.02 KCAL/MOL
REMARK 927      BINDING AFFINITY PREDICTED BY RF-SCORE:    0.00 PKD
ROOT
HETATM    1  C   UNK A   0     -10.101  12.823  67.027  1.00  0.00    -0.240 C  
HETATM    2  N   UNK A   0     -10.781  13.693  67.981  1.00  0.00    -0.242 NA 
ENDROOT
BRANCH   2   3
HETATM    3  C   UNK A   0     -11.500  13.112  68.993  1.00  0.00    -0.296 A  
HETATM    4  C   UNK A   0     -12.602  12.741  71.026  1.00  0.00    -0.362 A  
HETATM    5  C   UNK A   0     -12.141  13.700  70.069  1.00  0.00    -0.417 A  
HETATM    6  S   UNK A   0     -11.733  11.413  69.038  1.00  0.00    -0.364 SA 
HETATM    7  C   UNK A   0     -12.356  11.444  70.623  1.00  0.00    -0.373 A  
BRANCH   7   8
HETATM    8  C   UNK A   0     -12.527  10.215  71.377  1.00  0.00    -0.423 C  
HETATM    9  O   UNK A   0     -13.342  10.086  72.285  1.00  0.00    -0.429 OA 
ATOM     10  N   GLU A   1     -11.660   9.189  71.032  1.00  0.00    -0.289 N  
ATOM     11  H   GLU A   1     -10.971   9.344  70.295  1.00  0.00     0.000 HD 
BRANCH  10  12
ATOM     12  CA  GLU A   1     -11.711   7.887  71.702  1.00  0.00    -0.281 C  
ATOM     13  C   GLU A   1     -10.631   7.821  72.797  1.00  0.00    -0.341 C  
ATOM     14  O   GLU A   1      -9.578   8.647  72.577  1.00  0.00    -0.278 OA 
ATOM     15  OXT GLU A   1     -10.631   7.004  73.708  1.00  0.00    -0.375 OA 
BRANCH  12  16
ATOM     16  CB  GLU A   1     -11.494   6.774  70.669  1.00  0.00    -0.403 C  
BRANCH  16  17
ATOM     17  CG  GLU A   1     -11.126   7.316  69.288  1.00  0.00    -0.056 C  
ATOM     18  CD  GLU A   1     -10.911   6.212  68.285  1.00  0.00    -0.306 C  
ATOM     19  OE2 GLU A   1     -10.515   5.095  68.563  1.00  0.00    -0.126 OA 
ATOM     20  OE1 GLU A   1     -11.168   6.603  67.016  1.00  0.00    -0.404 OA 
ENDBRANCH  16  17
ENDBRANCH  12  16
ENDBRANCH  10  12
ENDBRANCH   7   8
ENDBRANCH   2   3
BRANCH   2  21
HETATM   21  C   UNK A   0     -11.344  14.935  67.417  1.00  0.00    -0.347 C  
BRANCH  21  22
HETATM   22  C   UNK A   0     -10.468  16.129  67.728  1.00  0.00    -0.295 A  
HETATM   23  C   UNK A   0      -8.405  17.069  68.606  1.00  0.00    -0.264 A  
HETATM   24  C   UNK A   0      -8.822  18.357  68.272  1.00  0.00    -0.305 A  
HETATM   25  C   UNK A   0      -9.217  15.961  68.341  1.00  0.00    -0.197 A  
HETATM   26  H   UNK A   0      -5.339  17.944  69.819  1.00  0.00     0.000 HD 
HETATM   27  C   UNK A   0     -10.076  18.535  67.688  1.00  0.00    -0.390 A  
HETATM   28  C   UNK A   0      -5.827  20.384  69.281  1.00  0.00    -0.372 C  
HETATM   29  N   UNK A   0      -7.982  19.432  68.560  1.00  0.00    -0.351 NA 
HETATM   30  N   UNK A   0      -6.275  18.033  69.425  1.00  0.00    -0.245 N  
HETATM   31  C   UNK A   0     -10.888  17.428  67.412  1.00  0.00    -0.165 A  
HETATM   32  C   UNK A   0      -7.071  16.919  69.243  1.00  0.00    -0.192 C  
HETATM   33  O   UNK A   0      -6.720  15.795  69.591  1.00  0.00    -0.181 OA 
HETATM   34  C   UNK A   0      -6.739  19.194  69.085  1.00  0.00    -0.311 C  
ENDBRANCH  21  22
ENDBRANCH   2  21
TORSDOF 7
ENDMDL
MODEL       36
REMARK 921   NORMALIZED FREE ENERGY PREDICTED BY IDOCK:   -6.73 KCAL/MOL
REMARK 922        TOTAL FREE ENERGY PREDICTED BY IDOCK:  -10.62 KCAL/MOL
REMARK 923 INTER-LIGAND FREE ENERGY PREDICTED BY IDOCK:   -9.63 KCAL/MOL
REMARK 924 INTRA-LIGAND FREE ENERGY PREDICTED BY IDOCK:   -0.99 KCAL/MOL
REMARK 927      BINDING AFFINITY PREDICTED BY RF-SCORE:    0.00 PKD
ROOT
HETATM    1  C   UNK A   0      -8.905  17.446  68.012  1.00  0.00    -0.252 C  
HETATM    2  N   UNK A   0      -9.920  16.397  68.015  1.00  0.00    -0.238 NA 
ENDROOT
BRANCH   2   3
HETATM    3  C   UNK A   0     -10.076  15.639  66.883  1.00  0.00    -0.263 A  
HETATM    4  C   UNK A   0     -10.869  14.799  64.846  1.00  0.00    -0.433 A  
HETATM    5  C   UNK A   0     -10.754  15.932  65.714  1.00  0.00    -0.325 A  
HETATM    6  S   UNK A   0      -9.356  14.087  66.764  1.00  0.00    -0.270 SA 
HETATM    7  C   UNK A   0     -10.222  13.690  65.352  1.00  0.00    -0.313 A  
BRANCH   7   8
HETATM    8  C   UNK A   0     -10.243  12.326  64.853  1.00  0.00    -0.281 C  
HETATM    9  O   UNK A   0     -10.669  12.016  63.746  1.00  0.00    -0.341 OA 
ATOM     10  N   GLU A   1      -9.787  11.367  65.747  1.00  0.00    -0.223 N  
ATOM     11  H   GLU A   1      -9.473  11.658  66.673  1.00  0.00     0.000 HD 
BRANCH  10  12
ATOM     12  CA  GLU A   1      -9.745   9.947  65.389  1.00  0.00    -0.306 C  
ATOM     13  C   GLU A   1     -10.033   9.087  66.634  1.00  0.00    -0.278 C  
ATOM     14  O   GLU A   1      -9.727   9.700  67.804  1.00  0.00    -0.141 OA 
ATOM     15  OXT GLU A   1     -10.364   7.910  66.588  1.00  0.00    -0.291 OA 
BRANCH  12  16
ATOM     16  CB  GLU A   1      -8.366   9.608  64.811  1.00  0.00    -0.156 C  
BRANCH  16  17
ATOM     17  CG  GLU A   1      -7.229  10.317  65.546  1.00  0.00    -0.149 C  
ATOM     18  CD  GLU A   1      -5.942  10.289  64.761  1.00  0.00    -0.132 C  
ATOM     19  OE2 GLU A   1      -5.631   9.410  63.978  1.00  0.00    -0.067 OA 
ATOM     20  OE1 GLU A   1      -5.135  11.336  65.045  1.00  0.00    -0.265 OA 
ENDBRANCH  16  17
ENDBRANCH  12  16
ENDBRANCH  10  12
ENDBRANCH   7   8
ENDBRANCH   2   3
BRANCH   2  21
HETATM   21  C   UNK A   0     -11.155  16.712  68.759  1.00  0.00    -0.270 C  
BRANCH  21  22
HETATM   22  C   UNK A   0     -11.626  15.527  69.573  1.00  0.00    -0.361 A  
HETATM   23  C   UNK A   0     -12.153  13.161  69.757  1.00  0.00    -0.336 A  
HETATM   24  C   UNK A   0     -12.470  13.313  71.107  1.00  0.00    -0.308 A  
HETATM   25  C   UNK A   0     -11.736  14.254  68.991  1.00  0.00    -0.352 A  
HETATM   26  H   UNK A   0     -12.658   9.790  69.604  1.00  0.00     0.000 HD 
HETATM   27  C   UNK A   0     -12.389  14.579  71.685  1.00  0.00    -0.420 A  
HETATM   28  C   UNK A   0     -13.254   9.772  72.079  1.00  0.00    -0.557 C  
HETATM   29  N   UNK A   0     -12.886  12.195  71.830  1.00  0.00    -0.310 NA 
HETATM   30  N   UNK A   0     -12.618  10.738  69.980  1.00  0.00    -0.415 N  
HETATM   31  C   UNK A   0     -11.964  15.674  70.925  1.00  0.00    -0.440 A  
HETATM   32  C   UNK A   0     -12.268  11.800  69.170  1.00  0.00    -0.108 C  
HETATM   33  O   UNK A   0     -12.044  11.669  67.970  1.00  0.00    -0.597 OA 
HETATM   34  C   UNK A   0     -12.895  10.966  71.225  1.00  0.00    -0.433 C  
ENDBRANCH  21  22
ENDBRANCH   2  21
TORSDOF 7
ENDMDL
MODEL       37
REMARK 921   NORMALIZED FREE ENERGY PREDICTED BY IDOCK:   -6.73 KCAL/MOL
REMARK 922        TOTAL FREE ENERGY PREDICTED BY IDOCK:  -10.61 KCAL/MOL
REMARK 923 INTER-LIGAND FREE ENERGY PREDICTED BY IDOCK:   -9.57 KCAL/MOL
REMARK 924 INTRA-LIGAND FREE ENERGY PREDICTED BY IDOCK:   -1.04 KCAL/MOL
REMARK 927      BINDING AFFINITY PREDICTED BY RF-SCORE:    0.00 PKD
ROOT
HETATM    1  C   UNK A   0      -6.358   8.225  65.324  1.00  0.00    -0.048 C  
HETATM    2  N   UNK A   0      -7.627   8.794  65.769  1.00  0.00    -0.085 NA 
ENDROOT
BRANCH   2   3
HETATM    3  C   UNK A   0      -8.378   9.497  64.863  1.00  0.00    -0.146 A  
HETATM    4  C   UNK A   0      -9.037  10.748  62.996  1.00  0.00    -0.290 A  
HETATM    5  C   UNK A   0      -8.098   9.818  63.547  1.00  0.00    -0.150 A  
HETATM    6  S   UNK A   0      -9.922  10.107  65.293  1.00  0.00    -0.267 SA 
HETATM    7  C   UNK A   0     -10.042  11.062  63.888  1.00  0.00    -0.356 A  
BRANCH   7   8
HETATM    8  C   UNK A   0     -11.077  12.074  63.765  1.00  0.00    -0.439 C  
HETATM    9  O   UNK A   0     -12.082  11.932  63.077  1.00  0.00    -0.303 OA 
ATOM     10  N   GLU A   1     -10.828  13.254  64.449  1.00  0.00    -0.388 N  
ATOM     11  H   GLU A   1      -9.964  13.349  64.983  1.00  0.00     0.000 HD 
BRANCH  10  12
ATOM     12  CA  GLU A   1     -11.781  14.368  64.423  1.00  0.00    -0.375 C  
ATOM     13  C   GLU A   1     -11.019  15.706  64.472  1.00  0.00    -0.200 C  
ATOM     14  O   GLU A   1      -9.797  15.619  65.052  1.00  0.00    -0.322 OA 
ATOM     15  OXT GLU A   1     -11.511  16.782  64.159  1.00  0.00    -1.171 OA 
BRANCH  12  16
ATOM     16  CB  GLU A   1     -12.734  14.251  65.618  1.00  0.00    -0.395 C  
BRANCH  16  17
ATOM     17  CG  GLU A   1     -12.002  14.267  66.959  1.00  0.00    -0.463 C  
ATOM     18  CD  GLU A   1     -11.630  12.882  67.420  1.00  0.00    -0.360 C  
ATOM     19  OE2 GLU A   1     -12.252  11.872  67.142  1.00  0.00    -0.501 OA 
ATOM     20  OE1 GLU A   1     -10.538  12.873  68.218  1.00  0.00    -0.232 OA 
ENDBRANCH  16  17
ENDBRANCH  12  16
ENDBRANCH  10  12
ENDBRANCH   7   8
ENDBRANCH   2   3
BRANCH   2  21
HETATM   21  C   UNK A   0      -7.643   9.300  67.155  1.00  0.00    -0.091 C  
BRANCH  21  22
HETATM   22  C   UNK A   0      -8.726   8.632  67.974  1.00  0.00    -0.141 A  
HETATM   23  C   UNK A   0     -10.569   8.763  69.553  1.00  0.00    -0.224 A  
HETATM   24  C   UNK A   0     -10.769   7.385  69.470  1.00  0.00    -0.224 A  
HETATM   25  C   UNK A   0      -9.557   9.386  68.816  1.00  0.00    -0.156 A  
HETATM   26  H   UNK A   0     -13.155   9.413  71.681  1.00  0.00     0.000 HD 
HETATM   27  C   UNK A   0      -9.929   6.625  68.657  1.00  0.00    -0.151 A  
HETATM   28  C   UNK A   0     -13.766   6.942  71.688  1.00  0.00    -0.273 C  
HETATM   29  N   UNK A   0     -11.787   6.805  70.228  1.00  0.00    -0.582 NA 
HETATM   30  N   UNK A   0     -12.499   8.890  71.102  1.00  0.00    -0.440 N  
HETATM   31  C   UNK A   0      -8.921   7.246  67.910  1.00  0.00    -0.130 A  
HETATM   32  C   UNK A   0     -11.471   9.538  70.445  1.00  0.00    -0.242 C  
HETATM   33  O   UNK A   0     -11.267  10.742  70.566  1.00  0.00    -0.282 OA 
HETATM   34  C   UNK A   0     -12.615   7.607  70.968  1.00  0.00    -0.147 C  
ENDBRANCH  21  22
ENDBRANCH   2  21
TORSDOF 7
ENDMDL
MODEL       38
REMARK 921   NORMALIZED FREE ENERGY PREDICTED BY IDOCK:   -6.71 KCAL/MOL
REMARK 922        TOTAL FREE ENERGY PREDICTED BY IDOCK:  -10.59 KCAL/MOL
REMARK 923 INTER-LIGAND FREE ENERGY PREDICTED BY IDOCK:   -9.58 KCAL/MOL
REMARK 924 INTRA-LIGAND FREE ENERGY PREDICTED BY IDOCK:   -1.01 KCAL/MOL
REMARK 927      BINDING AFFINITY PREDICTED BY RF-SCORE:    0.00 PKD
ROOT
HETATM    1  C   UNK A   0      -8.930  11.647  68.385  1.00  0.00    -0.176 C  
HETATM    2  N   UNK A   0     -10.362  11.929  68.374  1.00  0.00    -0.204 NA 
ENDROOT
BRANCH   2   3
HETATM    3  C   UNK A   0     -11.159  11.283  69.283  1.00  0.00    -0.255 A  
HETATM    4  C   UNK A   0     -12.509  10.815  71.139  1.00  0.00    -0.519 A  
HETATM    5  C   UNK A   0     -12.013  11.809  70.235  1.00  0.00    -0.429 A  
HETATM    6  S   UNK A   0     -11.212   9.570  69.338  1.00  0.00     0.050 SA 
HETATM    7  C   UNK A   0     -12.067   9.549  70.812  1.00  0.00    -0.232 A  
BRANCH   7   8
HETATM    8  C   UNK A   0     -12.218   8.316  71.564  1.00  0.00    -0.301 C  
HETATM    9  O   UNK A   0     -13.214   8.044  72.225  1.00  0.00    -0.221 OA 
ATOM     10  N   GLU A   1     -11.120   7.468  71.528  1.00  0.00    -0.234 N  
ATOM     11  H   GLU A   1     -10.294   7.744  70.996  1.00  0.00     0.000 HD 
BRANCH  10  12
ATOM     12  CA  GLU A   1     -11.121   6.185  72.236  1.00  0.00    -0.277 C  
ATOM     13  C   GLU A   1     -10.490   6.360  73.630  1.00  0.00    -0.295 C  
ATOM     14  O   GLU A   1      -9.623   7.399  73.712  1.00  0.00    -0.255 OA 
ATOM     15  OXT GLU A   1     -10.628   5.560  74.546  1.00  0.00    -0.270 OA 
BRANCH  12  16
ATOM     16  CB  GLU A   1     -10.337   5.152  71.419  1.00  0.00    -0.273 C  
BRANCH  16  17
ATOM     17  CG  GLU A   1      -9.987   5.652  70.018  1.00  0.00    -0.267 C  
ATOM     18  CD  GLU A   1      -9.599   4.526  69.094  1.00  0.00    -0.180 C  
ATOM     19  OE2 GLU A   1      -9.081   3.485  69.455  1.00  0.00    -0.104 OA 
ATOM     20  OE1 GLU A   1      -9.855   4.804  67.796  1.00  0.00    -0.159 OA 
ENDBRANCH  16  17
ENDBRANCH  12  16
ENDBRANCH  10  12
ENDBRANCH   7   8
ENDBRANCH   2   3
BRANCH   2  21
HETATM   21  C   UNK A   0     -10.953  12.157  67.041  1.00  0.00    -0.271 C  
BRANCH  21  22
HETATM   22  C   UNK A   0     -10.848  13.610  66.632  1.00  0.00    -0.283 A  
HETATM   23  C   UNK A   0     -10.704  15.967  67.212  1.00  0.00    -0.306 A  
HETATM   24  C   UNK A   0     -10.615  16.317  65.865  1.00  0.00    -0.297 A  
HETATM   25  C   UNK A   0     -10.823  14.628  67.598  1.00  0.00    -0.284 A  
HETATM   26  H   UNK A   0     -10.403  19.125  68.466  1.00  0.00     0.000 HD 
HETATM   27  C   UNK A   0     -10.667  15.314  64.898  1.00  0.00    -0.423 A  
HETATM   28  C   UNK A   0     -10.180  20.038  66.100  1.00  0.00    -0.589 C  
HETATM   29  N   UNK A   0     -10.504  17.665  65.526  1.00  0.00    -0.638 NA 
HETATM   30  N   UNK A   0     -10.479  18.365  67.790  1.00  0.00    -0.406 N  
HETATM   31  C   UNK A   0     -10.776  13.972  65.280  1.00  0.00    -0.367 A  
HETATM   32  C   UNK A   0     -10.664  17.064  68.214  1.00  0.00    -0.372 C  
HETATM   33  O   UNK A   0     -10.798  16.769  69.398  1.00  0.00    -0.318 OA 
HETATM   34  C   UNK A   0     -10.403  18.603  66.519  1.00  0.00    -0.421 C  
ENDBRANCH  21  22
ENDBRANCH   2  21
TORSDOF 7
ENDMDL
MODEL       39
REMARK 921   NORMALIZED FREE ENERGY PREDICTED BY IDOCK:   -6.68 KCAL/MOL
REMARK 922        TOTAL FREE ENERGY PREDICTED BY IDOCK:  -10.55 KCAL/MOL
REMARK 923 INTER-LIGAND FREE ENERGY PREDICTED BY IDOCK:   -9.20 KCAL/MOL
REMARK 924 INTRA-LIGAND FREE ENERGY PREDICTED BY IDOCK:   -1.35 KCAL/MOL
REMARK 927      BINDING AFFINITY PREDICTED BY RF-SCORE:    0.00 PKD
ROOT
HETATM    1  C   UNK A   0     -10.644  11.105  64.605  1.00  0.00    -0.318 C  
HETATM    2  N   UNK A   0     -10.385  11.717  65.905  1.00  0.00    -0.232 NA 
ENDROOT
BRANCH   2   3
HETATM    3  C   UNK A   0      -9.533  11.077  66.767  1.00  0.00    -0.182 A  
HETATM    4  C   UNK A   0      -7.657  10.014  67.679  1.00  0.00    -0.091 A  
HETATM    5  C   UNK A   0      -8.159  10.933  66.704  1.00  0.00    -0.147 A  
HETATM    6  S   UNK A   0     -10.131  10.320  68.185  1.00  0.00    -0.157 SA 
HETATM    7  C   UNK A   0      -8.655   9.530  68.501  1.00  0.00    -0.119 A  
BRANCH   7   8
HETATM    8  C   UNK A   0      -8.576   8.474  69.494  1.00  0.00    -0.131 C  
HETATM    9  O   UNK A   0      -7.550   7.847  69.735  1.00  0.00    -0.086 OA 
ATOM     10  N   GLU A   1      -9.771   8.179  70.134  1.00  0.00    -0.175 N  
ATOM     11  H   GLU A   1     -10.613   8.698  69.882  1.00  0.00     0.000 HD 
BRANCH  10  12
ATOM     12  CA  GLU A   1      -9.852   7.139  71.163  1.00  0.00    -0.179 C  
ATOM     13  C   GLU A   1     -10.426   5.846  70.553  1.00  0.00    -0.254 C  
ATOM     14  O   GLU A   1     -11.204   6.054  69.463  1.00  0.00    -0.398 OA 
ATOM     15  OXT GLU A   1     -10.324   4.744  71.074  1.00  0.00    -0.199 OA 
BRANCH  12  16
ATOM     16  CB  GLU A   1     -10.739   7.628  72.313  1.00  0.00    -0.311 C  
BRANCH  16  17
ATOM     17  CG  GLU A   1     -11.498   8.909  71.968  1.00  0.00    -0.431 C  
ATOM     18  CD  GLU A   1     -12.969   8.657  71.759  1.00  0.00    -0.359 C  
ATOM     19  OE2 GLU A   1     -13.439   7.610  71.353  1.00  0.00    -0.341 OA 
ATOM     20  OE1 GLU A   1     -13.729   9.741  72.036  1.00  0.00    -0.358 OA 
ENDBRANCH  16  17
ENDBRANCH  12  16
ENDBRANCH  10  12
ENDBRANCH   7   8
ENDBRANCH   2   3
BRANCH   2  21
HETATM   21  C   UNK A   0     -11.536  12.405  66.522  1.00  0.00    -0.387 C  
BRANCH  21  22
HETATM   22  C   UNK A   0     -11.180  13.817  66.933  1.00  0.00    -0.326 A  
HETATM   23  C   UNK A   0     -10.904  16.171  66.395  1.00  0.00    -0.131 A  
HETATM   24  C   UNK A   0     -10.551  16.455  67.714  1.00  0.00    -0.321 A  
HETATM   25  C   UNK A   0     -11.215  14.866  66.001  1.00  0.00    -0.327 A  
HETATM   26  H   UNK A   0     -10.762  19.380  65.244  1.00  0.00     0.000 HD 
HETATM   27  C   UNK A   0     -10.486  15.414  68.639  1.00  0.00    -0.237 A  
HETATM   28  C   UNK A   0     -10.130  20.184  67.576  1.00  0.00    -0.549 C  
HETATM   29  N   UNK A   0     -10.243  17.771  68.060  1.00  0.00    -0.356 NA 
HETATM   30  N   UNK A   0     -10.695  18.586  65.881  1.00  0.00    -0.329 N  
HETATM   31  C   UNK A   0     -10.806  14.107  68.252  1.00  0.00    -0.259 A  
HETATM   32  C   UNK A   0     -10.944  17.303  65.433  1.00  0.00     0.078 C  
HETATM   33  O   UNK A   0     -11.200  17.054  64.259  1.00  0.00    -1.186 OA 
HETATM   34  C   UNK A   0     -10.374  18.762  67.124  1.00  0.00    -0.404 C  
ENDBRANCH  21  22
ENDBRANCH   2  21
TORSDOF 7
ENDMDL
MODEL       40
REMARK 921   NORMALIZED FREE ENERGY PREDICTED BY IDOCK:   -6.68 KCAL/MOL
REMARK 922        TOTAL FREE ENERGY PREDICTED BY IDOCK:  -10.55 KCAL/MOL
REMARK 923 INTER-LIGAND FREE ENERGY PREDICTED BY IDOCK:   -9.30 KCAL/MOL
REMARK 924 INTRA-LIGAND FREE ENERGY PREDICTED BY IDOCK:   -1.25 KCAL/MOL
REMARK 927      BINDING AFFINITY PREDICTED BY RF-SCORE:    0.00 PKD
ROOT
HETATM    1  C   UNK A   0      -9.250   7.786  66.161  1.00  0.00    -0.128 C  
HETATM    2  N   UNK A   0      -9.598   8.792  67.160  1.00  0.00    -0.164 NA 
ENDROOT
BRANCH   2   3
HETATM    3  C   UNK A   0     -10.228   9.935  66.741  1.00  0.00    -0.236 A  
HETATM    4  C   UNK A   0     -10.848  11.818  65.494  1.00  0.00    -0.348 A  
HETATM    5  C   UNK A   0     -10.261  10.512  65.484  1.00  0.00    -0.325 A  
HETATM    6  S   UNK A   0     -11.162  10.869  67.834  1.00  0.00    -0.315 SA 
HETATM    7  C   UNK A   0     -11.301  12.175  66.748  1.00  0.00    -0.342 A  
BRANCH   7   8
HETATM    8  C   UNK A   0     -11.804  13.462  67.195  1.00  0.00    -0.382 C  
HETATM    9  O   UNK A   0     -12.417  14.238  66.470  1.00  0.00    -0.428 OA 
ATOM     10  N   GLU A   1     -11.499  13.787  68.509  1.00  0.00    -0.284 N  
ATOM     11  H   GLU A   1     -10.956  13.131  69.072  1.00  0.00     0.000 HD 
BRANCH  10  12
ATOM     12  CA  GLU A   1     -11.939  15.051  69.106  1.00  0.00    -0.275 C  
ATOM     13  C   GLU A   1     -10.717  15.939  69.404  1.00  0.00    -0.272 C  
ATOM     14  O   GLU A   1      -9.566  15.245  69.585  1.00  0.00    -0.242 OA 
ATOM     15  OXT GLU A   1     -10.784  17.144  69.610  1.00  0.00    -0.226 OA 
BRANCH  12  16
ATOM     16  CB  GLU A   1     -12.718  14.761  70.394  1.00  0.00    -0.368 C  
BRANCH  16  17
ATOM     17  CG  GLU A   1     -12.327  13.428  71.032  1.00  0.00    -0.401 C  
ATOM     18  CD  GLU A   1     -13.357  12.950  72.023  1.00  0.00    -0.482 C  
ATOM     19  OE2 GLU A   1     -14.081  13.682  72.673  1.00  0.00    -0.746 OA 
ATOM     20  OE1 GLU A   1     -13.374  11.604  72.149  1.00  0.00    -0.491 OA 
ENDBRANCH  16  17
ENDBRANCH  12  16
ENDBRANCH  10  12
ENDBRANCH   7   8
ENDBRANCH   2   3
BRANCH   2  21
HETATM   21  C   UNK A   0      -8.628   8.953  68.260  1.00  0.00    -0.134 C  
BRANCH  21  22
HETATM   22  C   UNK A   0      -8.849   7.923  69.347  1.00  0.00    -0.145 A  
HETATM   23  C   UNK A   0     -10.262   6.910  71.046  1.00  0.00    -0.213 A  
HETATM   24  C   UNK A   0      -9.271   5.976  71.346  1.00  0.00    -0.143 A  
HETATM   25  C   UNK A   0     -10.058   7.879  70.058  1.00  0.00    -0.199 A  
HETATM   26  H   UNK A   0     -12.603   5.723  73.225  1.00  0.00     0.000 HD 
HETATM   27  C   UNK A   0      -8.056   6.031  70.663  1.00  0.00    -0.116 A  
HETATM   28  C   UNK A   0     -10.996   3.883  73.942  1.00  0.00    -0.285 C  
HETATM   29  N   UNK A   0      -9.516   5.032  72.343  1.00  0.00    -0.139 NA 
HETATM   30  N   UNK A   0     -11.718   5.818  72.726  1.00  0.00    -0.513 N  
HETATM   31  C   UNK A   0      -7.852   6.993  69.667  1.00  0.00    -0.119 A  
HETATM   32  C   UNK A   0     -11.536   6.833  71.807  1.00  0.00    -0.297 C  
HETATM   33  O   UNK A   0     -12.392   7.685  71.588  1.00  0.00    -0.303 OA 
HETATM   34  C   UNK A   0     -10.746   4.990  72.944  1.00  0.00    -0.242 C  
ENDBRANCH  21  22
ENDBRANCH   2  21
TORSDOF 7
ENDMDL
MODEL       41
REMARK 921   NORMALIZED FREE ENERGY PREDICTED BY IDOCK:   -6.68 KCAL/MOL
REMARK 922        TOTAL FREE ENERGY PREDICTED BY IDOCK:  -10.54 KCAL/MOL
REMARK 923 INTER-LIGAND FREE ENERGY PREDICTED BY IDOCK:   -9.71 KCAL/MOL
REMARK 924 INTRA-LIGAND FREE ENERGY PREDICTED BY IDOCK:   -0.84 KCAL/MOL
REMARK 927      BINDING AFFINITY PREDICTED BY RF-SCORE:    0.00 PKD
ROOT
HETATM    1  C   UNK A   0     -11.643  11.637  63.637  1.00  0.00    -0.334 C  
HETATM    2  N   UNK A   0     -11.070  11.810  64.968  1.00  0.00    -0.303 NA 
ENDROOT
BRANCH   2   3
HETATM    3  C   UNK A   0     -10.281  10.810  65.473  1.00  0.00    -0.266 A  
HETATM    4  C   UNK A   0      -9.141   8.782  65.744  1.00  0.00    -0.267 A  
HETATM    5  C   UNK A   0      -9.726   9.717  64.832  1.00  0.00    -0.262 A  
HETATM    6  S   UNK A   0      -9.824  10.806  67.126  1.00  0.00    -0.190 SA 
HETATM    7  C   UNK A   0      -9.212   9.218  67.052  1.00  0.00    -0.138 A  
BRANCH   7   8
HETATM    8  C   UNK A   0      -8.879   8.493  68.266  1.00  0.00    -0.142 C  
HETATM    9  O   UNK A   0      -7.799   7.942  68.450  1.00  0.00    -0.115 OA 
ATOM     10  N   GLU A   1      -9.898   8.420  69.204  1.00  0.00    -0.178 N  
ATOM     11  H   GLU A   1     -10.796   8.861  69.001  1.00  0.00     0.000 HD 
BRANCH  10  12
ATOM     12  CA  GLU A   1      -9.713   7.725  70.481  1.00  0.00    -0.175 C  
ATOM     13  C   GLU A   1     -10.588   6.457  70.514  1.00  0.00    -0.239 C  
ATOM     14  O   GLU A   1     -11.675   6.521  69.707  1.00  0.00    -0.382 OA 
ATOM     15  OXT GLU A   1     -10.419   5.533  71.298  1.00  0.00    -0.225 OA 
BRANCH  12  16
ATOM     16  CB  GLU A   1     -10.089   8.665  71.632  1.00  0.00    -0.365 C  
BRANCH  16  17
ATOM     17  CG  GLU A   1     -11.556   8.540  72.040  1.00  0.00    -0.432 C  
ATOM     18  CD  GLU A   1     -12.416   9.599  71.400  1.00  0.00    -0.373 C  
ATOM     19  OE2 GLU A   1     -12.024  10.707  71.083  1.00  0.00    -0.342 OA 
ATOM     20  OE1 GLU A   1     -13.700   9.204  71.243  1.00  0.00    -0.332 OA 
ENDBRANCH  16  17
ENDBRANCH  12  16
ENDBRANCH  10  12
ENDBRANCH   7   8
ENDBRANCH   2   3
BRANCH   2  21
HETATM   21  C   UNK A   0     -11.932  12.509  65.942  1.00  0.00    -0.409 C  
BRANCH  21  22
HETATM   22  C   UNK A   0     -11.430  13.911  66.216  1.00  0.00    -0.347 A  
HETATM   23  C   UNK A   0     -11.055  15.762  67.745  1.00  0.00    -0.313 A  
HETATM   24  C   UNK A   0     -10.459  16.511  66.730  1.00  0.00    -0.269 A  
HETATM   25  C   UNK A   0     -11.540  14.475  67.497  1.00  0.00    -0.403 A  
HETATM   26  H   UNK A   0     -10.610  18.048  70.239  1.00  0.00     0.000 HD 
HETATM   27  C   UNK A   0     -10.372  15.968  65.449  1.00  0.00    -0.386 A  
HETATM   28  C   UNK A   0      -9.449  19.608  68.596  1.00  0.00    -0.422 C  
HETATM   29  N   UNK A   0      -9.995  17.793  67.023  1.00  0.00    -0.309 NA 
HETATM   30  N   UNK A   0     -10.596  17.628  69.310  1.00  0.00    -0.363 N  
HETATM   31  C   UNK A   0     -10.847  14.675  65.198  1.00  0.00    -0.414 A  
HETATM   32  C   UNK A   0     -11.148  16.381  69.094  1.00  0.00    -0.303 C  
HETATM   33  O   UNK A   0     -11.720  15.751  69.979  1.00  0.00    -0.324 OA 
HETATM   34  C   UNK A   0     -10.059  18.255  68.311  1.00  0.00    -0.386 C  
ENDBRANCH  21  22
ENDBRANCH   2  21
TORSDOF 7
ENDMDL
MODEL       42
REMARK 921   NORMALIZED FREE ENERGY PREDICTED BY IDOCK:   -6.67 KCAL/MOL
REMARK 922        TOTAL FREE ENERGY PREDICTED BY IDOCK:  -10.53 KCAL/MOL
REMARK 923 INTER-LIGAND FREE ENERGY PREDICTED BY IDOCK:   -9.59 KCAL/MOL
REMARK 924 INTRA-LIGAND FREE ENERGY PREDICTED BY IDOCK:   -0.94 KCAL/MOL
REMARK 927      BINDING AFFINITY PREDICTED BY RF-SCORE:    0.00 PKD
ROOT
HETATM    1  C   UNK A   0     -10.111  13.707  65.227  1.00  0.00    -0.275 C  
HETATM    2  N   UNK A   0     -10.626  12.910  66.336  1.00  0.00    -0.269 NA 
ENDROOT
BRANCH   2   3
HETATM    3  C   UNK A   0     -10.267  11.589  66.411  1.00  0.00    -0.224 A  
HETATM    4  C   UNK A   0      -9.573   9.425  65.846  1.00  0.00    -0.338 A  
HETATM    5  C   UNK A   0      -9.560  10.816  65.508  1.00  0.00    -0.269 A  
HETATM    6  S   UNK A   0     -10.677  10.648  67.785  1.00  0.00    -0.278 SA 
HETATM    7  C   UNK A   0     -10.238   9.185  67.032  1.00  0.00    -0.263 A  
BRANCH   7   8
HETATM    8  C   UNK A   0     -10.599   7.908  67.623  1.00  0.00    -0.206 C  
HETATM    9  O   UNK A   0     -10.929   6.927  66.965  1.00  0.00    -0.379 OA 
ATOM     10  N   GLU A   1     -10.595   7.882  69.010  1.00  0.00    -0.333 N  
ATOM     11  H   GLU A   1     -10.349   8.728  69.525  1.00  0.00     0.000 HD 
BRANCH  10  12
ATOM     12  CA  GLU A   1     -10.936   6.665  69.752  1.00  0.00    -0.313 C  
ATOM     13  C   GLU A   1     -11.618   7.039  71.081  1.00  0.00    -0.312 C  
ATOM     14  O   GLU A   1     -11.291   8.274  71.536  1.00  0.00    -0.250 OA 
ATOM     15  OXT GLU A   1     -12.277   6.257  71.753  1.00  0.00    -0.312 OA 
BRANCH  12  16
ATOM     16  CB  GLU A   1      -9.660   5.856  70.015  1.00  0.00    -0.200 C  
BRANCH  16  17
ATOM     17  CG  GLU A   1      -9.759   4.419  69.504  1.00  0.00    -0.280 C  
ATOM     18  CD  GLU A   1      -8.428   3.892  69.031  1.00  0.00    -0.077 C  
ATOM     19  OE2 GLU A   1      -7.537   4.582  68.571  1.00  0.00    -0.064 OA 
ATOM     20  OE1 GLU A   1      -8.332   2.547  69.137  1.00  0.00    -0.053 OA 
ENDBRANCH  16  17
ENDBRANCH  12  16
ENDBRANCH  10  12
ENDBRANCH   7   8
ENDBRANCH   2   3
BRANCH   2  21
HETATM   21  C   UNK A   0     -12.002  13.233  66.763  1.00  0.00    -0.382 C  
BRANCH  21  22
HETATM   22  C   UNK A   0     -12.007  14.075  68.020  1.00  0.00    -0.386 A  
HETATM   23  C   UNK A   0     -12.445  14.323  70.398  1.00  0.00    -0.426 A  
HETATM   24  C   UNK A   0     -11.979  15.638  70.370  1.00  0.00    -0.376 A  
HETATM   25  C   UNK A   0     -12.463  13.545  69.237  1.00  0.00     0.061 A  
HETATM   26  H   UNK A   0     -13.085  14.198  73.747  1.00  0.00     0.000 HD 
HETATM   27  C   UNK A   0     -11.550  16.180  69.160  1.00  0.00    -0.285 A  
HETATM   28  C   UNK A   0     -12.255  16.592  73.991  1.00  0.00    -0.472 C  
HETATM   29  N   UNK A   0     -11.984  16.379  71.552  1.00  0.00    -0.635 NA 
HETATM   30  N   UNK A   0     -12.812  14.567  72.836  1.00  0.00    -0.444 N  
HETATM   31  C   UNK A   0     -11.557  15.401  67.997  1.00  0.00    -0.303 A  
HETATM   32  C   UNK A   0     -12.911  13.784  71.702  1.00  0.00    -0.364 C  
HETATM   33  O   UNK A   0     -13.374  12.648  71.725  1.00  0.00    -0.418 OA 
HETATM   34  C   UNK A   0     -12.366  15.778  72.722  1.00  0.00    -0.463 C  
ENDBRANCH  21  22
ENDBRANCH   2  21
TORSDOF 7
ENDMDL
MODEL       43
REMARK 921   NORMALIZED FREE ENERGY PREDICTED BY IDOCK:   -6.63 KCAL/MOL
REMARK 922        TOTAL FREE ENERGY PREDICTED BY IDOCK:  -10.48 KCAL/MOL
REMARK 923 INTER-LIGAND FREE ENERGY PREDICTED BY IDOCK:   -9.57 KCAL/MOL
REMARK 924 INTRA-LIGAND FREE ENERGY PREDICTED BY IDOCK:   -0.90 KCAL/MOL
REMARK 927      BINDING AFFINITY PREDICTED BY RF-SCORE:    0.00 PKD
ROOT
HETATM    1  C   UNK A   0     -12.877  13.816  65.650  1.00  0.00    -0.408 C  
HETATM    2  N   UNK A   0     -11.715  12.981  65.359  1.00  0.00    -0.345 NA 
ENDROOT
BRANCH   2   3
HETATM    3  C   UNK A   0     -11.349  12.032  66.279  1.00  0.00    -0.357 A  
HETATM    4  C   UNK A   0     -10.700  10.013  67.271  1.00  0.00    -0.309 A  
HETATM    5  C   UNK A   0     -10.718  10.817  66.087  1.00  0.00    -0.187 A  
HETATM    6  S   UNK A   0     -11.642  12.276  67.951  1.00  0.00    -0.354 SA 
HETATM    7  C   UNK A   0     -11.264  10.664  68.350  1.00  0.00    -0.288 A  
BRANCH   7   8
HETATM    8  C   UNK A   0     -11.573  10.133  69.666  1.00  0.00    -0.153 C  
HETATM    9  O   UNK A   0     -12.041  10.809  70.576  1.00  0.00    -0.303 OA 
ATOM     10  N   GLU A   1     -11.254   8.795  69.849  1.00  0.00    -0.433 N  
ATOM     11  H   GLU A   1     -10.833   8.273  69.080  1.00  0.00     0.000 HD 
BRANCH  10  12
ATOM     12  CA  GLU A   1     -11.507   8.116  71.122  1.00  0.00    -0.276 C  
ATOM     13  C   GLU A   1     -10.306   8.311  72.065  1.00  0.00    -0.279 C  
ATOM     14  O   GLU A   1      -9.136   8.543  71.420  1.00  0.00    -0.166 OA 
ATOM     15  OXT GLU A   1     -10.351   8.130  73.274  1.00  0.00    -0.222 OA 
BRANCH  12  16
ATOM     16  CB  GLU A   1     -11.749   6.624  70.864  1.00  0.00    -0.431 C  
BRANCH  16  17
ATOM     17  CG  GLU A   1     -11.245   6.174  69.493  1.00  0.00    -0.482 C  
ATOM     18  CD  GLU A   1      -9.999   5.332  69.595  1.00  0.00    -0.232 C  
ATOM     19  OE2 GLU A   1      -9.172   5.428  70.483  1.00  0.00    -0.141 OA 
ATOM     20  OE1 GLU A   1      -9.868   4.468  68.563  1.00  0.00    -0.150 OA 
ENDBRANCH  16  17
ENDBRANCH  12  16
ENDBRANCH  10  12
ENDBRANCH   7   8
ENDBRANCH   2   3
BRANCH   2  21
HETATM   21  C   UNK A   0     -10.610  13.656  64.651  1.00  0.00    -0.430 C  
BRANCH  21  22
HETATM   22  C   UNK A   0      -9.922  14.669  65.540  1.00  0.00    -0.384 A  
HETATM   23  C   UNK A   0      -9.623  16.958  66.302  1.00  0.00    -0.300 A  
HETATM   24  C   UNK A   0      -8.662  16.549  67.227  1.00  0.00    -0.188 A  
HETATM   25  C   UNK A   0     -10.249  16.032  65.462  1.00  0.00    -0.389 A  
HETATM   26  H   UNK A   0      -9.613  20.262  67.152  1.00  0.00     0.000 HD 
HETATM   27  C   UNK A   0      -8.312  15.201  67.291  1.00  0.00    -0.225 A  
HETATM   28  C   UNK A   0      -7.870  19.792  68.946  1.00  0.00    -0.230 C  
HETATM   29  N   UNK A   0      -8.059  17.509  68.040  1.00  0.00    -0.230 NA 
HETATM   30  N   UNK A   0      -9.363  19.274  67.143  1.00  0.00    -0.308 N  
HETATM   31  C   UNK A   0      -8.943  14.269  66.458  1.00  0.00    -0.161 A  
HETATM   32  C   UNK A   0      -9.957  18.405  66.249  1.00  0.00    -0.366 C  
HETATM   33  O   UNK A   0     -10.761  18.781  65.401  1.00  0.00    -0.556 OA 
HETATM   34  C   UNK A   0      -8.481  18.811  67.971  1.00  0.00    -0.292 C  
ENDBRANCH  21  22
ENDBRANCH   2  21
TORSDOF 7
ENDMDL
MODEL       44
REMARK 921   NORMALIZED FREE ENERGY PREDICTED BY IDOCK:   -6.62 KCAL/MOL
REMARK 922        TOTAL FREE ENERGY PREDICTED BY IDOCK:  -10.46 KCAL/MOL
REMARK 923 INTER-LIGAND FREE ENERGY PREDICTED BY IDOCK:   -9.31 KCAL/MOL
REMARK 924 INTRA-LIGAND FREE ENERGY PREDICTED BY IDOCK:   -1.15 KCAL/MOL
REMARK 927      BINDING AFFINITY PREDICTED BY RF-SCORE:    0.00 PKD
ROOT
HETATM    1  C   UNK A   0     -10.127   8.748  68.596  1.00  0.00    -0.189 C  
HETATM    2  N   UNK A   0     -10.004   9.986  67.832  1.00  0.00    -0.150 NA 
ENDROOT
BRANCH   2   3
HETATM    3  C   UNK A   0      -8.897  10.768  68.034  1.00  0.00    -0.132 A  
HETATM    4  C   UNK A   0      -7.099  11.882  69.040  1.00  0.00    -0.092 A  
HETATM    5  C   UNK A   0      -8.000  10.771  69.087  1.00  0.00    -0.135 A  
HETATM    6  S   UNK A   0      -8.433  11.944  66.875  1.00  0.00    -0.160 SA 
HETATM    7  C   UNK A   0      -7.293  12.661  67.918  1.00  0.00    -0.116 A  
BRANCH   7   8
HETATM    8  C   UNK A   0      -6.695  13.945  67.594  1.00  0.00    -0.175 C  
HETATM    9  O   UNK A   0      -5.485  14.127  67.517  1.00  0.00    -0.338 OA 
ATOM     10  N   GLU A   1      -7.596  14.985  67.421  1.00  0.00    -0.193 N  
ATOM     11  H   GLU A   1      -8.595  14.803  67.527  1.00  0.00     0.000 HD 
BRANCH  10  12
ATOM     12  CA  GLU A   1      -7.146  16.339  67.088  1.00  0.00    -0.209 C  
ATOM     13  C   GLU A   1      -6.922  17.146  68.381  1.00  0.00    -0.195 C  
ATOM     14  O   GLU A   1      -7.654  16.706  69.434  1.00  0.00    -0.201 OA 
ATOM     15  OXT GLU A   1      -6.268  18.178  68.436  1.00  0.00    -0.184 OA 
BRANCH  12  16
ATOM     16  CB  GLU A   1      -8.196  17.023  66.206  1.00  0.00    -0.322 C  
BRANCH  16  17
ATOM     17  CG  GLU A   1      -9.341  17.631  67.016  1.00  0.00    -0.258 C  
ATOM     18  CD  GLU A   1      -9.510  19.104  66.742  1.00  0.00    -0.330 C  
ATOM     19  OE2 GLU A   1      -8.607  19.852  66.412  1.00  0.00    -0.335 OA 
ATOM     20  OE1 GLU A   1     -10.778  19.529  66.938  1.00  0.00    -0.461 OA 
ENDBRANCH  16  17
ENDBRANCH  12  16
ENDBRANCH  10  12
ENDBRANCH   7   8
ENDBRANCH   2   3
BRANCH   2  21
HETATM   21  C   UNK A   0     -11.268  10.705  67.582  1.00  0.00    -0.290 C  
BRANCH  21  22
HETATM   22  C   UNK A   0     -11.695  11.508  68.791  1.00  0.00    -0.397 A  
HETATM   23  C   UNK A   0     -12.080  13.645  69.884  1.00  0.00    -0.406 A  
HETATM   24  C   UNK A   0     -12.526  13.001  71.038  1.00  0.00    -0.296 A  
HETATM   25  C   UNK A   0     -11.665  12.911  68.769  1.00  0.00    -0.363 A  
HETATM   26  H   UNK A   0     -12.594  16.834  70.982  1.00  0.00     0.000 HD 
HETATM   27  C   UNK A   0     -12.533  11.608  71.078  1.00  0.00    -0.436 A  
HETATM   28  C   UNK A   0     -13.488  15.927  73.186  1.00  0.00    -0.650 C  
HETATM   29  N   UNK A   0     -12.925  13.775  72.128  1.00  0.00    -0.351 NA 
HETATM   30  N   UNK A   0     -12.551  15.815  70.982  1.00  0.00    -0.485 N  
HETATM   31  C   UNK A   0     -12.127  10.869  69.961  1.00  0.00    -0.433 A  
HETATM   32  C   UNK A   0     -12.069  15.132  69.884  1.00  0.00    -0.336 C  
HETATM   33  O   UNK A   0     -11.626  15.705  68.893  1.00  0.00    -0.343 OA 
HETATM   34  C   UNK A   0     -12.949  15.139  72.014  1.00  0.00    -0.351 C  
ENDBRANCH  21  22
ENDBRANCH   2  21
TORSDOF 7
ENDMDL
MODEL       45
REMARK 921   NORMALIZED FREE ENERGY PREDICTED BY IDOCK:   -6.62 KCAL/MOL
REMARK 922        TOTAL FREE ENERGY PREDICTED BY IDOCK:  -10.45 KCAL/MOL
REMARK 923 INTER-LIGAND FREE ENERGY PREDICTED BY IDOCK:   -9.80 KCAL/MOL
REMARK 924 INTRA-LIGAND FREE ENERGY PREDICTED BY IDOCK:   -0.65 KCAL/MOL
REMARK 927      BINDING AFFINITY PREDICTED BY RF-SCORE:    0.00 PKD
ROOT
HETATM    1  C   UNK A   0     -11.241   9.511  69.230  1.00  0.00    -0.000 C  
HETATM    2  N   UNK A   0     -12.225  10.316  69.946  1.00  0.00    -0.497 NA 
ENDROOT
BRANCH   2   3
HETATM    3  C   UNK A   0     -12.046  11.674  69.992  1.00  0.00    -0.319 A  
HETATM    4  C   UNK A   0     -12.264  13.942  70.535  1.00  0.00    -0.443 A  
HETATM    5  C   UNK A   0     -12.454  12.585  70.949  1.00  0.00    -0.361 A  
HETATM    6  S   UNK A   0     -11.186  12.486  68.749  1.00  0.00    -0.291 SA 
HETATM    7  C   UNK A   0     -11.659  14.027  69.297  1.00  0.00    -0.309 A  
BRANCH   7   8
HETATM    8  C   UNK A   0     -11.444  15.205  68.475  1.00  0.00    -0.320 C  
HETATM    9  O   UNK A   0     -11.650  16.349  68.866  1.00  0.00    -0.290 OA 
ATOM     10  N   GLU A   1     -11.030  14.947  67.177  1.00  0.00    -0.315 N  
ATOM     11  H   GLU A   1     -10.903  13.980  66.876  1.00  0.00     0.000 HD 
BRANCH  10  12
ATOM     12  CA  GLU A   1     -10.769  16.033  66.227  1.00  0.00    -0.234 C  
ATOM     13  C   GLU A   1     -11.334  15.661  64.844  1.00  0.00    -0.315 C  
ATOM     14  O   GLU A   1     -11.432  14.325  64.633  1.00  0.00    -0.368 OA 
ATOM     15  OXT GLU A   1     -11.539  16.472  63.951  1.00  0.00    -1.175 OA 
BRANCH  12  16
ATOM     16  CB  GLU A   1      -9.259  16.281  66.140  1.00  0.00    -0.376 C  
BRANCH  16  17
ATOM     17  CG  GLU A   1      -8.848  17.626  66.740  1.00  0.00    -0.275 C  
ATOM     18  CD  GLU A   1      -8.058  17.462  68.013  1.00  0.00    -0.227 C  
ATOM     19  OE2 GLU A   1      -8.177  16.527  68.783  1.00  0.00    -0.225 OA 
ATOM     20  OE1 GLU A   1      -7.212  18.493  68.238  1.00  0.00    -0.247 OA 
ENDBRANCH  16  17
ENDBRANCH  12  16
ENDBRANCH  10  12
ENDBRANCH   7   8
ENDBRANCH   2   3
BRANCH   2  21
HETATM   21  C   UNK A   0     -12.788   9.696  71.161  1.00  0.00    -0.316 C  
BRANCH  21  22
HETATM   22  C   UNK A   0     -12.007   8.464  71.564  1.00  0.00    -0.344 A  
HETATM   23  C   UNK A   0     -10.086   7.435  72.640  1.00  0.00    -0.255 A  
HETATM   24  C   UNK A   0     -10.574   6.162  72.347  1.00  0.00    -0.210 A  
HETATM   25  C   UNK A   0     -10.790   8.579  72.254  1.00  0.00    -0.418 A  
HETATM   26  H   UNK A   0      -7.315   6.415  74.349  1.00  0.00     0.000 HD 
HETATM   27  C   UNK A   0     -11.769   6.039  71.638  1.00  0.00    -0.209 A  
HETATM   28  C   UNK A   0      -7.988   3.988  73.985  1.00  0.00    -0.084 C  
HETATM   29  N   UNK A   0      -9.835   5.049  72.747  1.00  0.00    -0.156 NA 
HETATM   30  N   UNK A   0      -8.174   6.370  73.801  1.00  0.00    -0.111 N  
HETATM   31  C   UNK A   0     -12.482   7.182  71.257  1.00  0.00    -0.425 A  
HETATM   32  C   UNK A   0      -8.801   7.527  73.381  1.00  0.00    -0.192 C  
HETATM   33  O   UNK A   0      -8.336   8.643  73.595  1.00  0.00    -0.380 OA 
HETATM   34  C   UNK A   0      -8.696   5.227  73.487  1.00  0.00    -0.114 C  
ENDBRANCH  21  22
ENDBRANCH   2  21
TORSDOF 7
ENDMDL
MODEL       46
REMARK 921   NORMALIZED FREE ENERGY PREDICTED BY IDOCK:   -6.61 KCAL/MOL
REMARK 922        TOTAL FREE ENERGY PREDICTED BY IDOCK:  -10.45 KCAL/MOL
REMARK 923 INTER-LIGAND FREE ENERGY PREDICTED BY IDOCK:   -8.47 KCAL/MOL
REMARK 924 INTRA-LIGAND FREE ENERGY PREDICTED BY IDOCK:   -1.98 KCAL/MOL
REMARK 927      BINDING AFFINITY PREDICTED BY RF-SCORE:    0.00 PKD
ROOT
HETATM    1  C   UNK A   0     -11.858  14.421  67.694  1.00  0.00    -0.378 C  
HETATM    2  N   UNK A   0     -11.396  13.122  68.172  1.00  0.00    -0.273 NA 
ENDROOT
BRANCH   2   3
HETATM    3  C   UNK A   0     -11.960  12.609  69.311  1.00  0.00    -0.246 A  
HETATM    4  C   UNK A   0     -12.667  12.329  71.526  1.00  0.00    -0.339 A  
HETATM    5  C   UNK A   0     -12.296  13.246  70.492  1.00  0.00    -0.389 A  
HETATM    6  S   UNK A   0     -12.380  10.949  69.408  1.00  0.00     0.056 SA 
HETATM    7  C   UNK A   0     -12.663  11.020  71.086  1.00  0.00    -0.419 A  
BRANCH   7   8
HETATM    8  C   UNK A   0     -12.824   9.804  71.863  1.00  0.00    -0.427 C  
HETATM    9  O   UNK A   0     -13.796   9.582  72.578  1.00  0.00    -0.409 OA 
ATOM     10  N   GLU A   1     -11.765   8.912  71.784  1.00  0.00    -0.337 N  
ATOM     11  H   GLU A   1     -10.957   9.146  71.207  1.00  0.00     0.000 HD 
BRANCH  10  12
ATOM     12  CA  GLU A   1     -11.782   7.639  72.511  1.00  0.00    -0.301 C  
ATOM     13  C   GLU A   1     -10.466   7.469  73.293  1.00  0.00    -0.371 C  
ATOM     14  O   GLU A   1      -9.423   8.158  72.767  1.00  0.00    -0.234 OA 
ATOM     15  OXT GLU A   1     -10.318   6.677  74.214  1.00  0.00    -0.361 OA 
BRANCH  12  16
ATOM     16  CB  GLU A   1     -11.966   6.487  71.516  1.00  0.00    -0.383 C  
BRANCH  16  17
ATOM     17  CG  GLU A   1     -11.855   6.942  70.061  1.00  0.00    -0.207 C  
ATOM     18  CD  GLU A   1     -10.808   6.167  69.302  1.00  0.00    -0.351 C  
ATOM     19  OE2 GLU A   1      -9.814   5.676  69.805  1.00  0.00    -0.162 OA 
ATOM     20  OE1 GLU A   1     -11.068   6.099  67.977  1.00  0.00    -0.329 OA 
ENDBRANCH  16  17
ENDBRANCH  12  16
ENDBRANCH  10  12
ENDBRANCH   7   8
ENDBRANCH   2   3
BRANCH   2  21
HETATM   21  C   UNK A   0      -9.956  12.853  67.985  1.00  0.00    -0.236 C  
BRANCH  21  22
HETATM   22  C   UNK A   0      -9.728  11.534  67.279  1.00  0.00    -0.197 A  
HETATM   23  C   UNK A   0      -8.844   9.271  67.259  1.00  0.00    -0.132 A  
HETATM   24  C   UNK A   0      -9.338   9.064  65.972  1.00  0.00    -0.242 A  
HETATM   25  C   UNK A   0      -9.031  10.493  67.911  1.00  0.00    -0.137 A  
HETATM   26  H   UNK A   0      -7.562   6.140  67.702  1.00  0.00     0.000 HD 
HETATM   27  C   UNK A   0     -10.007  10.103  65.326  1.00  0.00    -0.381 A  
HETATM   28  C   UNK A   0      -8.389   5.479  65.387  1.00  0.00    -0.142 C  
HETATM   29  N   UNK A   0      -9.122   7.830  65.358  1.00  0.00    -0.377 NA 
HETATM   30  N   UNK A   0      -8.016   6.935  67.253  1.00  0.00    -0.113 N  
HETATM   31  C   UNK A   0     -10.206  11.325  65.979  1.00  0.00    -0.295 A  
HETATM   32  C   UNK A   0      -8.119   8.146  67.909  1.00  0.00    -0.128 C  
HETATM   33  O   UNK A   0      -7.633   8.338  69.019  1.00  0.00    -0.086 OA 
HETATM   34  C   UNK A   0      -8.506   6.827  66.059  1.00  0.00    -0.142 C  
ENDBRANCH  21  22
ENDBRANCH   2  21
TORSDOF 7
ENDMDL
MODEL       47
REMARK 921   NORMALIZED FREE ENERGY PREDICTED BY IDOCK:   -6.61 KCAL/MOL
REMARK 922        TOTAL FREE ENERGY PREDICTED BY IDOCK:  -10.45 KCAL/MOL
REMARK 923 INTER-LIGAND FREE ENERGY PREDICTED BY IDOCK:   -9.14 KCAL/MOL
REMARK 924 INTRA-LIGAND FREE ENERGY PREDICTED BY IDOCK:   -1.30 KCAL/MOL
REMARK 927      BINDING AFFINITY PREDICTED BY RF-SCORE:    0.00 PKD
ROOT
HETATM    1  C   UNK A   0      -8.427   5.390  65.306  1.00  0.00    -0.149 C  
HETATM    2  N   UNK A   0      -9.376   6.372  65.823  1.00  0.00    -0.377 NA 
ENDROOT
BRANCH   2   3
HETATM    3  C   UNK A   0      -8.881   7.498  66.429  1.00  0.00    -0.156 A  
HETATM    4  C   UNK A   0      -7.665   8.940  67.816  1.00  0.00    -0.101 A  
HETATM    5  C   UNK A   0      -7.726   7.664  67.171  1.00  0.00    -0.112 A  
HETATM    6  S   UNK A   0      -9.712   8.993  66.307  1.00  0.00    -0.281 SA 
HETATM    7  C   UNK A   0      -8.747   9.735  67.498  1.00  0.00    -0.125 A  
BRANCH   7   8
HETATM    8  C   UNK A   0      -9.126  11.017  68.067  1.00  0.00    -0.152 C  
HETATM    9  O   UNK A   0      -8.324  11.797  68.571  1.00  0.00    -0.156 OA 
ATOM     10  N   GLU A   1     -10.486  11.289  68.048  1.00  0.00    -0.181 N  
ATOM     11  H   GLU A   1     -11.127  10.601  67.652  1.00  0.00     0.000 HD 
BRANCH  10  12
ATOM     12  CA  GLU A   1     -11.022  12.544  68.583  1.00  0.00    -0.255 C  
ATOM     13  C   GLU A   1     -11.901  12.251  69.813  1.00  0.00    -0.318 C  
ATOM     14  O   GLU A   1     -12.431  11.003  69.823  1.00  0.00    -0.293 OA 
ATOM     15  OXT GLU A   1     -12.225  13.096  70.637  1.00  0.00    -0.361 OA 
BRANCH  12  16
ATOM     16  CB  GLU A   1     -11.839  13.253  67.497  1.00  0.00    -0.403 C  
BRANCH  16  17
ATOM     17  CG  GLU A   1     -11.808  12.514  66.159  1.00  0.00    -0.459 C  
ATOM     18  CD  GLU A   1     -12.432  13.321  65.051  1.00  0.00    -0.443 C  
ATOM     19  OE2 GLU A   1     -13.320  14.140  65.208  1.00  0.00    -0.715 OA 
ATOM     20  OE1 GLU A   1     -11.927  13.015  63.834  1.00  0.00    -0.418 OA 
ENDBRANCH  16  17
ENDBRANCH  12  16
ENDBRANCH  10  12
ENDBRANCH   7   8
ENDBRANCH   2   3
BRANCH   2  21
HETATM   21  C   UNK A   0     -10.612   5.814  66.405  1.00  0.00    -0.155 C  
BRANCH  21  22
HETATM   22  C   UNK A   0     -10.429   5.471  67.868  1.00  0.00    -0.244 A  
HETATM   23  C   UNK A   0     -10.980   5.824  70.208  1.00  0.00    -0.347 A  
HETATM   24  C   UNK A   0     -10.110   4.803  70.591  1.00  0.00    -0.218 A  
HETATM   25  C   UNK A   0     -11.140   6.162  68.861  1.00  0.00    -0.417 A  
HETATM   26  H   UNK A   0     -12.129   6.563  73.335  1.00  0.00     0.000 HD 
HETATM   27  C   UNK A   0      -9.379   4.132  69.612  1.00  0.00    -0.241 A  
HETATM   28  C   UNK A   0     -10.654   4.729  74.305  1.00  0.00    -0.330 C  
HETATM   29  N   UNK A   0      -9.977   4.505  71.947  1.00  0.00    -0.184 NA 
HETATM   30  N   UNK A   0     -11.589   6.120  72.592  1.00  0.00    -0.461 N  
HETATM   31  C   UNK A   0      -9.544   4.460  68.262  1.00  0.00    -0.199 A  
HETATM   32  C   UNK A   0     -11.729   6.531  71.281  1.00  0.00    -0.331 C  
HETATM   33  O   UNK A   0     -12.454   7.467  70.957  1.00  0.00    -0.314 OA 
HETATM   34  C   UNK A   0     -10.760   5.161  72.861  1.00  0.00    -0.248 C  
ENDBRANCH  21  22
ENDBRANCH   2  21
TORSDOF 7
ENDMDL
MODEL       48
REMARK 921   NORMALIZED FREE ENERGY PREDICTED BY IDOCK:   -6.60 KCAL/MOL
REMARK 922        TOTAL FREE ENERGY PREDICTED BY IDOCK:  -10.44 KCAL/MOL
REMARK 923 INTER-LIGAND FREE ENERGY PREDICTED BY IDOCK:   -9.44 KCAL/MOL
REMARK 924 INTRA-LIGAND FREE ENERGY PREDICTED BY IDOCK:   -0.99 KCAL/MOL
REMARK 927      BINDING AFFINITY PREDICTED BY RF-SCORE:    0.00 PKD
ROOT
HETATM    1  C   UNK A   0      -9.576  11.873  68.454  1.00  0.00    -0.196 C  
HETATM    2  N   UNK A   0     -10.858  12.079  69.123  1.00  0.00    -0.383 NA 
ENDROOT
BRANCH   2   3
HETATM    3  C   UNK A   0     -11.404  11.033  69.820  1.00  0.00    -0.292 A  
HETATM    4  C   UNK A   0     -12.458   9.758  71.478  1.00  0.00    -0.495 A  
HETATM    5  C   UNK A   0     -12.289  11.049  70.883  1.00  0.00    -0.503 A  
HETATM    6  S   UNK A   0     -11.031   9.412  69.400  1.00  0.00    -0.083 SA 
HETATM    7  C   UNK A   0     -11.744   8.781  70.813  1.00  0.00    -0.219 A  
BRANCH   7   8
HETATM    8  C   UNK A   0     -11.532   7.397  71.197  1.00  0.00    -0.279 C  
HETATM    9  O   UNK A   0     -12.098   6.863  72.144  1.00  0.00    -0.291 OA 
ATOM     10  N   GLU A   1     -10.592   6.715  70.438  1.00  0.00    -0.214 N  
ATOM     11  H   GLU A   1     -10.115   7.202  69.679  1.00  0.00     0.000 HD 
BRANCH  10  12
ATOM     12  CA  GLU A   1     -10.270   5.310  70.702  1.00  0.00    -0.257 C  
ATOM     13  C   GLU A   1      -9.101   5.222  71.700  1.00  0.00    -0.138 C  
ATOM     14  O   GLU A   1      -8.298   6.314  71.700  1.00  0.00    -0.126 OA 
ATOM     15  OXT GLU A   1      -8.820   4.214  72.334  1.00  0.00    -0.105 OA 
BRANCH  12  16
ATOM     16  CB  GLU A   1      -9.903   4.615  69.385  1.00  0.00    -0.272 C  
BRANCH  16  17
ATOM     17  CG  GLU A   1      -9.108   5.520  68.444  1.00  0.00    -0.117 C  
ATOM     18  CD  GLU A   1      -9.793   5.697  67.114  1.00  0.00    -0.149 C  
ATOM     19  OE2 GLU A   1     -10.524   4.871  66.599  1.00  0.00    -0.262 OA 
ATOM     20  OE1 GLU A   1      -9.481   6.871  66.519  1.00  0.00    -0.168 OA 
ENDBRANCH  16  17
ENDBRANCH  12  16
ENDBRANCH  10  12
ENDBRANCH   7   8
ENDBRANCH   2   3
BRANCH   2  21
HETATM   21  C   UNK A   0     -11.812  12.949  68.408  1.00  0.00    -0.318 C  
BRANCH  21  22
HETATM   22  C   UNK A   0     -11.365  14.394  68.431  1.00  0.00    -0.312 A  
HETATM   23  C   UNK A   0     -10.770  16.444  67.268  1.00  0.00    -0.257 A  
HETATM   24  C   UNK A   0     -10.567  17.101  68.482  1.00  0.00    -0.361 A  
HETATM   25  C   UNK A   0     -11.163  15.103  67.237  1.00  0.00    -0.324 A  
HETATM   26  H   UNK A   0     -10.132  19.122  65.252  1.00  0.00     0.000 HD 
HETATM   27  C   UNK A   0     -10.739  16.397  69.672  1.00  0.00    -0.337 A  
HETATM   28  C   UNK A   0      -9.736  20.570  67.308  1.00  0.00    -0.600 C  
HETATM   29  N   UNK A   0     -10.170  18.438  68.464  1.00  0.00    -0.381 NA 
HETATM   30  N   UNK A   0     -10.236  18.562  66.098  1.00  0.00    -0.407 N  
HETATM   31  C   UNK A   0     -11.142  15.057  69.646  1.00  0.00    -0.291 A  
HETATM   32  C   UNK A   0     -10.559  17.221  66.019  1.00  0.00    -0.217 C  
HETATM   33  O   UNK A   0     -10.681  16.636  64.947  1.00  0.00    -0.710 OA 
HETATM   34  C   UNK A   0     -10.068  19.096  67.267  1.00  0.00    -0.376 C  
ENDBRANCH  21  22
ENDBRANCH   2  21
TORSDOF 7
ENDMDL
MODEL       49
REMARK 921   NORMALIZED FREE ENERGY PREDICTED BY IDOCK:   -6.58 KCAL/MOL
REMARK 922        TOTAL FREE ENERGY PREDICTED BY IDOCK:  -10.40 KCAL/MOL
REMARK 923 INTER-LIGAND FREE ENERGY PREDICTED BY IDOCK:   -9.30 KCAL/MOL
REMARK 924 INTRA-LIGAND FREE ENERGY PREDICTED BY IDOCK:   -1.10 KCAL/MOL
REMARK 927      BINDING AFFINITY PREDICTED BY RF-SCORE:    0.00 PKD
ROOT
HETATM    1  C   UNK A   0     -10.266  11.026  67.082  1.00  0.00    -0.206 C  
HETATM    2  N   UNK A   0     -11.018  11.685  68.146  1.00  0.00    -0.211 NA 
ENDROOT
BRANCH   2   3
HETATM    3  C   UNK A   0     -11.356  10.952  69.254  1.00  0.00    -0.277 A  
HETATM    4  C   UNK A   0     -12.294  10.285  71.294  1.00  0.00    -0.506 A  
HETATM    5  C   UNK A   0     -12.401  11.129  70.142  1.00  0.00    -0.373 A  
HETATM    6  S   UNK A   0     -10.439   9.574  69.705  1.00  0.00    -0.248 SA 
HETATM    7  C   UNK A   0     -11.202   9.445  71.223  1.00  0.00    -0.367 A  
BRANCH   7   8
HETATM    8  C   UNK A   0     -10.669   8.566  72.249  1.00  0.00    -0.341 C  
HETATM    9  O   UNK A   0     -11.358   8.049  73.122  1.00  0.00    -0.317 OA 
ATOM     10  N   GLU A   1      -9.294   8.383  72.208  1.00  0.00    -0.261 N  
ATOM     11  H   GLU A   1      -8.749   8.858  71.489  1.00  0.00     0.000 HD 
BRANCH  10  12
ATOM     12  CA  GLU A   1      -8.609   7.523  73.177  1.00  0.00    -0.150 C  
ATOM     13  C   GLU A   1      -7.257   8.150  73.565  1.00  0.00    -0.135 C  
ATOM     14  O   GLU A   1      -6.745   8.977  72.620  1.00  0.00    -0.313 OA 
ATOM     15  OXT GLU A   1      -6.617   7.831  74.558  1.00  0.00    -0.093 OA 
BRANCH  12  16
ATOM     16  CB  GLU A   1      -8.398   6.134  72.564  1.00  0.00    -0.115 C  
BRANCH  16  17
ATOM     17  CG  GLU A   1      -8.416   6.155  71.035  1.00  0.00    -0.128 C  
ATOM     18  CD  GLU A   1      -9.619   5.444  70.472  1.00  0.00    -0.175 C  
ATOM     19  OE2 GLU A   1     -10.192   4.519  71.017  1.00  0.00    -0.183 OA 
ATOM     20  OE1 GLU A   1      -9.984   5.919  69.259  1.00  0.00    -0.154 OA 
ENDBRANCH  16  17
ENDBRANCH  12  16
ENDBRANCH  10  12
ENDBRANCH   7   8
ENDBRANCH   2   3
BRANCH   2  21
HETATM   21  C   UNK A   0     -12.014  12.677  67.698  1.00  0.00    -0.247 C  
BRANCH  21  22
HETATM   22  C   UNK A   0     -11.521  14.091  67.917  1.00  0.00    -0.347 A  
HETATM   23  C   UNK A   0     -10.874  16.266  67.044  1.00  0.00    -0.173 A  
HETATM   24  C   UNK A   0     -10.638  16.739  68.335  1.00  0.00    -0.354 A  
HETATM   25  C   UNK A   0     -11.310  14.954  66.830  1.00  0.00    -0.338 A  
HETATM   26  H   UNK A   0     -10.175  19.180  65.415  1.00  0.00     0.000 HD 
HETATM   27  C   UNK A   0     -10.820  15.880  69.417  1.00  0.00    -0.288 A  
HETATM   28  C   UNK A   0      -9.711  20.312  67.647  1.00  0.00    -0.555 C  
HETATM   29  N   UNK A   0     -10.199  18.053  68.499  1.00  0.00    -0.385 NA 
HETATM   30  N   UNK A   0     -10.287  18.510  66.175  1.00  0.00    -0.431 N  
HETATM   31  C   UNK A   0     -11.265  14.569  69.209  1.00  0.00    -0.309 A  
HETATM   32  C   UNK A   0     -10.653  17.205  65.913  1.00  0.00    -0.215 C  
HETATM   33  O   UNK A   0     -10.805  16.779  64.772  1.00  0.00    -0.745 OA 
HETATM   34  C   UNK A   0     -10.090  18.869  67.404  1.00  0.00    -0.361 C  
ENDBRANCH  21  22
ENDBRANCH   2  21
TORSDOF 7
ENDMDL
MODEL       50
REMARK 921   NORMALIZED FREE ENERGY PREDICTED BY IDOCK:   -6.58 KCAL/MOL
REMARK 922        TOTAL FREE ENERGY PREDICTED BY IDOCK:  -10.40 KCAL/MOL
REMARK 923 INTER-LIGAND FREE ENERGY PREDICTED BY IDOCK:  -10.10 KCAL/MOL
REMARK 924 INTRA-LIGAND FREE ENERGY PREDICTED BY IDOCK:   -0.30 KCAL/MOL
REMARK 927      BINDING AFFINITY PREDICTED BY RF-SCORE:    0.00 PKD
ROOT
HETATM    1  C   UNK A   0      -8.450   7.639  66.963  1.00  0.00    -0.125 C  
HETATM    2  N   UNK A   0      -9.851   8.048  66.921  1.00  0.00    -0.224 NA 
ENDROOT
BRANCH   2   3
HETATM    3  C   UNK A   0     -10.192   9.258  67.468  1.00  0.00    -0.242 A  
HETATM    4  C   UNK A   0     -11.088  10.905  68.871  1.00  0.00    -0.307 A  
HETATM    5  C   UNK A   0     -10.626   9.556  68.747  1.00  0.00    -0.240 A  
HETATM    6  S   UNK A   0     -10.090  10.697  66.539  1.00  0.00    -0.229 SA 
HETATM    7  C   UNK A   0     -10.935  11.617  67.698  1.00  0.00    -0.239 A  
BRANCH   7   8
HETATM    8  C   UNK A   0     -11.422  12.947  67.377  1.00  0.00    -0.336 C  
HETATM    9  O   UNK A   0     -12.154  13.596  68.117  1.00  0.00    -0.359 OA 
ATOM     10  N   GLU A   1     -11.039  13.429  66.134  1.00  0.00    -0.287 N  
ATOM     11  H   GLU A   1     -10.458  12.846  65.531  1.00  0.00     0.000 HD 
BRANCH  10  12
ATOM     12  CA  GLU A   1     -11.450  14.756  65.668  1.00  0.00    -0.327 C  
ATOM     13  C   GLU A   1     -12.178  14.632  64.318  1.00  0.00    -0.408 C  
ATOM     14  O   GLU A   1     -11.833  13.529  63.609  1.00  0.00    -0.418 OA 
ATOM     15  OXT GLU A   1     -12.891  15.507  63.844  1.00  0.00    -0.605 OA 
BRANCH  12  16
ATOM     16  CB  GLU A   1     -10.213  15.652  65.529  1.00  0.00    -0.414 C  
BRANCH  16  17
ATOM     17  CG  GLU A   1      -9.865  16.381  66.827  1.00  0.00    -0.265 C  
ATOM     18  CD  GLU A   1     -10.326  17.816  66.813  1.00  0.00    -0.343 C  
ATOM     19  OE2 GLU A   1     -10.433  18.496  65.809  1.00  0.00    -0.598 OA 
ATOM     20  OE1 GLU A   1     -10.578  18.295  68.052  1.00  0.00    -0.383 OA 
ENDBRANCH  16  17
ENDBRANCH  12  16
ENDBRANCH  10  12
ENDBRANCH   7   8
ENDBRANCH   2   3
BRANCH   2  21
HETATM   21  C   UNK A   0     -10.834   6.961  67.091  1.00  0.00    -0.377 C  
BRANCH  21  22
HETATM   22  C   UNK A   0     -10.600   6.200  68.378  1.00  0.00    -0.324 A  
HETATM   23  C   UNK A   0     -11.094   5.812  70.726  1.00  0.00    -0.272 A  
HETATM   24  C   UNK A   0     -10.186   4.754  70.766  1.00  0.00    -0.176 A  
HETATM   25  C   UNK A   0     -11.302   6.533  69.546  1.00  0.00    -0.419 A  
HETATM   26  H   UNK A   0     -12.175   5.533  73.950  1.00  0.00     0.000 HD 
HETATM   27  C   UNK A   0      -9.464   4.435  69.617  1.00  0.00    -0.252 A  
HETATM   28  C   UNK A   0     -10.622   3.545  74.294  1.00  0.00    -0.256 C  
HETATM   29  N   UNK A   0     -10.007   4.067  71.967  1.00  0.00    -0.175 NA 
HETATM   30  N   UNK A   0     -11.644   5.353  73.098  1.00  0.00    -0.531 N  
HETATM   31  C   UNK A   0      -9.676   5.149  68.432  1.00  0.00    -0.200 A  
HETATM   32  C   UNK A   0     -11.832   6.135  71.975  1.00  0.00    -0.280 C  
HETATM   33  O   UNK A   0     -12.592   7.099  71.963  1.00  0.00    -0.290 OA 
HETATM   34  C   UNK A   0     -10.781   4.388  73.049  1.00  0.00    -0.207 C  
ENDBRANCH  21  22
ENDBRANCH   2  21
TORSDOF 7
ENDMDL
MODEL       51
REMARK 921   NORMALIZED FREE ENERGY PREDICTED BY IDOCK:   -6.56 KCAL/MOL
REMARK 922        TOTAL FREE ENERGY PREDICTED BY IDOCK:  -10.38 KCAL/MOL
REMARK 923 INTER-LIGAND FREE ENERGY PREDICTED BY IDOCK:   -9.41 KCAL/MOL
REMARK 924 INTRA-LIGAND FREE ENERGY PREDICTED BY IDOCK:   -0.97 KCAL/MOL
REMARK 927      BINDING AFFINITY PREDICTED BY RF-SCORE:    0.00 PKD
ROOT
HETATM    1  C   UNK A   0      -8.724   6.876  72.349  1.00  0.00    -0.126 C  
HETATM    2  N   UNK A   0      -9.704   7.010  71.275  1.00  0.00    -0.171 NA 
ENDROOT
BRANCH   2   3
HETATM    3  C   UNK A   0     -10.438   8.165  71.205  1.00  0.00    -0.209 A  
HETATM    4  C   UNK A   0     -12.180   9.722  71.373  1.00  0.00    -0.486 A  
HETATM    5  C   UNK A   0     -11.596   8.515  71.876  1.00  0.00    -0.410 A  
HETATM    6  S   UNK A   0      -9.944   9.455  70.188  1.00  0.00    -0.246 SA 
HETATM    7  C   UNK A   0     -11.417  10.291  70.374  1.00  0.00    -0.335 A  
BRANCH   7   8
HETATM    8  C   UNK A   0     -11.745  11.416  69.516  1.00  0.00    -0.348 C  
HETATM    9  O   UNK A   0     -12.431  11.318  68.504  1.00  0.00    -0.434 OA 
ATOM     10  N   GLU A   1     -11.181  12.626  69.893  1.00  0.00    -0.477 N  
ATOM     11  H   GLU A   1     -10.587  12.663  70.721  1.00  0.00     0.000 HD 
BRANCH  10  12
ATOM     12  CA  GLU A   1     -11.421  13.853  69.128  1.00  0.00    -0.299 C  
ATOM     13  C   GLU A   1     -10.276  14.072  68.123  1.00  0.00    -0.243 C  
ATOM     14  O   GLU A   1      -9.108  13.488  68.487  1.00  0.00    -0.174 OA 
ATOM     15  OXT GLU A   1     -10.350  14.822  67.158  1.00  0.00    -0.252 OA 
BRANCH  12  16
ATOM     16  CB  GLU A   1     -11.523  15.042  70.091  1.00  0.00    -0.314 C  
BRANCH  16  17
ATOM     17  CG  GLU A   1     -12.965  15.356  70.489  1.00  0.00    -0.379 C  
ATOM     18  CD  GLU A   1     -13.345  14.715  71.799  1.00  0.00    -0.360 C  
ATOM     19  OE2 GLU A   1     -12.869  13.678  72.223  1.00  0.00    -0.295 OA 
ATOM     20  OE1 GLU A   1     -14.312  15.398  72.452  1.00  0.00    -0.543 OA 
ENDBRANCH  16  17
ENDBRANCH  12  16
ENDBRANCH  10  12
ENDBRANCH   7   8
ENDBRANCH   2   3
BRANCH   2  21
HETATM   21  C   UNK A   0     -10.411   5.769  70.905  1.00  0.00    -0.252 C  
BRANCH  21  22
HETATM   22  C   UNK A   0     -10.400   5.554  69.407  1.00  0.00    -0.348 A  
HETATM   23  C   UNK A   0      -9.787   4.228  67.464  1.00  0.00    -0.162 A  
HETATM   24  C   UNK A   0     -10.415   5.138  66.615  1.00  0.00    -0.275 A  
HETATM   25  C   UNK A   0      -9.774   4.429  68.848  1.00  0.00    -0.211 A  
HETATM   26  H   UNK A   0      -8.838   2.016  65.046  1.00  0.00     0.000 HD 
HETATM   27  C   UNK A   0     -11.016   6.272  67.160  1.00  0.00    -0.453 A  
HETATM   28  C   UNK A   0      -9.939   3.482  63.280  1.00  0.00    -0.156 C  
HETATM   29  N   UNK A   0     -10.397   4.900  65.241  1.00  0.00    -0.439 NA 
HETATM   30  N   UNK A   0      -9.236   2.848  65.482  1.00  0.00    -0.212 N  
HETATM   31  C   UNK A   0     -11.014   6.473  68.546  1.00  0.00    -0.360 A  
HETATM   32  C   UNK A   0      -9.141   3.040  66.846  1.00  0.00    -0.167 C  
HETATM   33  O   UNK A   0      -8.538   2.263  67.581  1.00  0.00    -0.083 OA 
HETATM   34  C   UNK A   0      -9.840   3.742  64.765  1.00  0.00    -0.191 C  
ENDBRANCH  21  22
ENDBRANCH   2  21
TORSDOF 7
ENDMDL
MODEL       52
REMARK 921   NORMALIZED FREE ENERGY PREDICTED BY IDOCK:   -6.56 KCAL/MOL
REMARK 922        TOTAL FREE ENERGY PREDICTED BY IDOCK:  -10.38 KCAL/MOL
REMARK 923 INTER-LIGAND FREE ENERGY PREDICTED BY IDOCK:   -9.84 KCAL/MOL
REMARK 924 INTRA-LIGAND FREE ENERGY PREDICTED BY IDOCK:   -0.54 KCAL/MOL
REMARK 927      BINDING AFFINITY PREDICTED BY RF-SCORE:    0.00 PKD
ROOT
HETATM    1  C   UNK A   0     -12.030   6.998  70.522  1.00  0.00    -0.266 C  
HETATM    2  N   UNK A   0     -11.080   8.053  70.859  1.00  0.00    -0.251 NA 
ENDROOT
BRANCH   2   3
HETATM    3  C   UNK A   0     -11.534   9.345  70.915  1.00  0.00    -0.316 A  
HETATM    4  C   UNK A   0     -12.866  11.232  71.300  1.00  0.00    -0.491 A  
HETATM    5  C   UNK A   0     -12.548   9.890  71.681  1.00  0.00    -0.519 A  
HETATM    6  S   UNK A   0     -10.810  10.569  69.957  1.00  0.00    -0.210 SA 
HETATM    7  C   UNK A   0     -12.042  11.696  70.294  1.00  0.00    -0.358 A  
BRANCH   7   8
HETATM    8  C   UNK A   0     -12.147  12.931  69.537  1.00  0.00    -0.214 C  
HETATM    9  O   UNK A   0     -12.446  14.009  70.039  1.00  0.00    -0.335 OA 
ATOM     10  N   GLU A   1     -11.930  12.803  68.173  1.00  0.00    -0.308 N  
ATOM     11  H   GLU A   1     -11.718  11.883  67.785  1.00  0.00     0.000 HD 
BRANCH  10  12
ATOM     12  CA  GLU A   1     -11.999  13.960  67.276  1.00  0.00    -0.411 C  
ATOM     13  C   GLU A   1     -12.605  13.537  65.925  1.00  0.00    -0.396 C  
ATOM     14  O   GLU A   1     -12.440  12.222  65.639  1.00  0.00    -0.591 OA 
ATOM     15  OXT GLU A   1     -13.064  14.323  65.107  1.00  0.00    -0.704 OA 
BRANCH  12  16
ATOM     16  CB  GLU A   1     -10.591  14.532  67.075  1.00  0.00    -0.278 C  
BRANCH  16  17
ATOM     17  CG  GLU A   1     -10.416  15.908  67.717  1.00  0.00    -0.287 C  
ATOM     18  CD  GLU A   1     -10.237  16.995  66.689  1.00  0.00    -0.310 C  
ATOM     19  OE2 GLU A   1      -9.737  16.831  65.591  1.00  0.00    -0.539 OA 
ATOM     20  OE1 GLU A   1     -10.660  18.203  67.128  1.00  0.00    -0.383 OA 
ENDBRANCH  16  17
ENDBRANCH  12  16
ENDBRANCH  10  12
ENDBRANCH   7   8
ENDBRANCH   2   3
BRANCH   2  21
HETATM   21  C   UNK A   0      -9.715   7.869  70.328  1.00  0.00    -0.183 C  
BRANCH  21  22
HETATM   22  C   UNK A   0      -9.735   7.187  68.977  1.00  0.00    -0.150 A  
HETATM   23  C   UNK A   0      -9.636   5.170  67.624  1.00  0.00    -0.164 A  
HETATM   24  C   UNK A   0      -9.811   5.916  66.458  1.00  0.00    -0.152 A  
HETATM   25  C   UNK A   0      -9.595   5.794  68.874  1.00  0.00    -0.163 A  
HETATM   26  H   UNK A   0      -9.571   2.104  66.130  1.00  0.00     0.000 HD 
HETATM   27  C   UNK A   0      -9.923   7.303  66.549  1.00  0.00    -0.182 A  
HETATM   28  C   UNK A   0      -9.919   3.206  63.862  1.00  0.00    -0.168 C  
HETATM   29  N   UNK A   0      -9.840   5.251  65.232  1.00  0.00    -0.360 NA 
HETATM   30  N   UNK A   0      -9.615   3.117  66.237  1.00  0.00    -0.401 N  
HETATM   31  C   UNK A   0      -9.892   7.930  67.800  1.00  0.00    -0.204 A  
HETATM   32  C   UNK A   0      -9.502   3.696  67.486  1.00  0.00    -0.191 C  
HETATM   33  O   UNK A   0      -9.292   3.039  68.501  1.00  0.00    -0.171 OA 
HETATM   34  C   UNK A   0      -9.779   3.883  65.206  1.00  0.00    -0.187 C  
ENDBRANCH  21  22
ENDBRANCH   2  21
TORSDOF 7
ENDMDL
MODEL       53
REMARK 921   NORMALIZED FREE ENERGY PREDICTED BY IDOCK:   -6.55 KCAL/MOL
REMARK 922        TOTAL FREE ENERGY PREDICTED BY IDOCK:  -10.37 KCAL/MOL
REMARK 923 INTER-LIGAND FREE ENERGY PREDICTED BY IDOCK:   -9.11 KCAL/MOL
REMARK 924 INTRA-LIGAND FREE ENERGY PREDICTED BY IDOCK:   -1.25 KCAL/MOL
REMARK 927      BINDING AFFINITY PREDICTED BY RF-SCORE:    0.00 PKD
ROOT
HETATM    1  C   UNK A   0      -9.948   7.544  71.953  1.00  0.00    -0.171 C  
HETATM    2  N   UNK A   0     -10.581   8.030  70.731  1.00  0.00    -0.211 NA 
ENDROOT
BRANCH   2   3
HETATM    3  C   UNK A   0     -11.103   9.297  70.728  1.00  0.00    -0.285 A  
HETATM    4  C   UNK A   0     -12.539  11.125  71.014  1.00  0.00    -0.503 A  
HETATM    5  C   UNK A   0     -12.161   9.816  71.452  1.00  0.00    -0.486 A  
HETATM    6  S   UNK A   0     -10.421  10.522  69.740  1.00  0.00    -0.145 SA 
HETATM    7  C   UNK A   0     -11.717  11.594  70.009  1.00  0.00    -0.321 A  
BRANCH   7   8
HETATM    8  C   UNK A   0     -11.868  12.793  69.203  1.00  0.00    -0.301 C  
HETATM    9  O   UNK A   0     -12.343  13.840  69.630  1.00  0.00    -0.316 OA 
ATOM     10  N   GLU A   1     -11.477  12.663  67.878  1.00  0.00    -0.288 N  
ATOM     11  H   GLU A   1     -11.120  11.766  67.549  1.00  0.00     0.000 HD 
BRANCH  10  12
ATOM     12  CA  GLU A   1     -11.568  13.786  66.941  1.00  0.00    -0.370 C  
ATOM     13  C   GLU A   1     -12.329  13.348  65.676  1.00  0.00    -0.470 C  
ATOM     14  O   GLU A   1     -12.270  12.015  65.435  1.00  0.00    -0.458 OA 
ATOM     15  OXT GLU A   1     -12.820  14.129  64.872  1.00  0.00    -0.687 OA 
BRANCH  12  16
ATOM     16  CB  GLU A   1     -10.156  14.260  66.578  1.00  0.00    -0.283 C  
BRANCH  16  17
ATOM     17  CG  GLU A   1      -9.849  15.660  67.112  1.00  0.00    -0.229 C  
ATOM     18  CD  GLU A   1     -10.388  16.741  66.210  1.00  0.00    -0.310 C  
ATOM     19  OE2 GLU A   1     -10.531  16.628  65.007  1.00  0.00    -0.664 OA 
ATOM     20  OE1 GLU A   1     -10.668  17.884  66.877  1.00  0.00    -0.296 OA 
ENDBRANCH  16  17
ENDBRANCH  12  16
ENDBRANCH  10  12
ENDBRANCH   7   8
ENDBRANCH   2   3
BRANCH   2  21
HETATM   21  C   UNK A   0     -11.331   7.019  69.960  1.00  0.00    -0.249 C  
BRANCH  21  22
HETATM   22  C   UNK A   0     -10.573   6.596  68.721  1.00  0.00    -0.271 A  
HETATM   23  C   UNK A   0      -9.575   7.124  66.568  1.00  0.00    -0.203 A  
HETATM   24  C   UNK A   0      -9.127   5.811  66.427  1.00  0.00    -0.146 A  
HETATM   25  C   UNK A   0     -10.294   7.519  67.700  1.00  0.00    -0.295 A  
HETATM   26  H   UNK A   0      -8.219   8.320  63.675  1.00  0.00     0.000 HD 
HETATM   27  C   UNK A   0      -9.424   4.882  67.424  1.00  0.00    -0.156 A  
HETATM   28  C   UNK A   0      -7.251   6.018  63.182  1.00  0.00    -0.055 C  
HETATM   29  N   UNK A   0      -8.419   5.461  65.278  1.00  0.00    -0.145 NA 
HETATM   30  N   UNK A   0      -8.486   7.665  64.409  1.00  0.00    -0.372 N  
HETATM   31  C   UNK A   0     -10.135   5.275  68.563  1.00  0.00    -0.232 A  
HETATM   32  C   UNK A   0      -9.255   8.082  65.478  1.00  0.00     0.158 C  
HETATM   33  O   UNK A   0      -9.693   9.226  65.567  1.00  0.00    -0.277 OA 
HETATM   34  C   UNK A   0      -8.109   6.427  64.357  1.00  0.00    -0.076 C  
ENDBRANCH  21  22
ENDBRANCH   2  21
TORSDOF 7
ENDMDL
MODEL       54
REMARK 921   NORMALIZED FREE ENERGY PREDICTED BY IDOCK:   -6.55 KCAL/MOL
REMARK 922        TOTAL FREE ENERGY PREDICTED BY IDOCK:  -10.37 KCAL/MOL
REMARK 923 INTER-LIGAND FREE ENERGY PREDICTED BY IDOCK:   -9.27 KCAL/MOL
REMARK 924 INTRA-LIGAND FREE ENERGY PREDICTED BY IDOCK:   -1.09 KCAL/MOL
REMARK 927      BINDING AFFINITY PREDICTED BY RF-SCORE:    0.00 PKD
ROOT
HETATM    1  C   UNK A   0     -11.393  15.268  71.238  1.00  0.00    -0.365 C  
HETATM    2  N   UNK A   0     -11.026  14.432  70.099  1.00  0.00    -0.471 NA 
ENDROOT
BRANCH   2   3
HETATM    3  C   UNK A   0      -9.908  14.766  69.380  1.00  0.00    -0.062 A  
HETATM    4  C   UNK A   0      -7.729  14.802  68.523  1.00  0.00    -0.120 A  
HETATM    5  C   UNK A   0      -8.764  14.027  69.138  1.00  0.00     0.288 A  
HETATM    6  S   UNK A   0      -9.793  16.288  68.598  1.00  0.00    -0.240 SA 
HETATM    7  C   UNK A   0      -8.135  16.094  68.258  1.00  0.00    -0.153 A  
BRANCH   7   8
HETATM    8  C   UNK A   0      -7.337  17.215  67.793  1.00  0.00    -0.169 C  
HETATM    9  O   UNK A   0      -6.308  17.088  67.137  1.00  0.00    -0.145 OA 
ATOM     10  N   GLU A   1      -7.794  18.464  68.187  1.00  0.00    -0.280 N  
ATOM     11  H   GLU A   1      -8.634  18.530  68.762  1.00  0.00     0.000 HD 
BRANCH  10  12
ATOM     12  CA  GLU A   1      -7.097  19.692  67.795  1.00  0.00    -0.256 C  
ATOM     13  C   GLU A   1      -6.440  20.336  69.031  1.00  0.00    -0.282 C  
ATOM     14  O   GLU A   1      -7.043  20.013  70.201  1.00  0.00    -0.131 OA 
ATOM     15  OXT GLU A   1      -5.554  21.178  68.971  1.00  0.00    -0.349 OA 
BRANCH  12  16
ATOM     16  CB  GLU A   1      -8.096  20.662  67.154  1.00  0.00    -0.308 C  
BRANCH  16  17
ATOM     17  CG  GLU A   1      -8.857  20.037  65.985  1.00  0.00    -0.254 C  
ATOM     18  CD  GLU A   1     -10.295  19.749  66.333  1.00  0.00    -0.508 C  
ATOM     19  OE2 GLU A   1     -10.696  19.492  67.454  1.00  0.00    -0.468 OA 
ATOM     20  OE1 GLU A   1     -11.107  19.769  65.252  1.00  0.00    -0.395 OA 
ENDBRANCH  16  17
ENDBRANCH  12  16
ENDBRANCH  10  12
ENDBRANCH   7   8
ENDBRANCH   2   3
BRANCH   2  21
HETATM   21  C   UNK A   0     -12.157  13.888  69.322  1.00  0.00    -0.339 C  
BRANCH  21  22
HETATM   22  C   UNK A   0     -11.675  13.053  68.156  1.00  0.00    -0.391 A  
HETATM   23  C   UNK A   0     -11.222  12.796  65.782  1.00  0.00    -0.341 A  
HETATM   24  C   UNK A   0     -10.738  11.504  65.990  1.00  0.00    -0.281 A  
HETATM   25  C   UNK A   0     -11.689  13.567  66.850  1.00  0.00    -0.424 A  
HETATM   26  H   UNK A   0     -10.628  12.907  62.424  1.00  0.00     0.000 HD 
HETATM   27  C   UNK A   0     -10.746  10.976  67.280  1.00  0.00    -0.312 A  
HETATM   28  C   UNK A   0      -9.659  10.555  62.521  1.00  0.00    -0.241 C  
HETATM   29  N   UNK A   0     -10.288  10.769  64.893  1.00  0.00    -0.315 NA 
HETATM   30  N   UNK A   0     -10.682  12.547  63.376  1.00  0.00    -0.547 N  
HETATM   31  C   UNK A   0     -11.204  11.748  68.354  1.00  0.00    -0.307 A  
HETATM   32  C   UNK A   0     -11.215  13.319  64.390  1.00  0.00    -0.381 C  
HETATM   33  O   UNK A   0     -11.690  14.433  64.190  1.00  0.00    -0.332 OA 
HETATM   34  C   UNK A   0     -10.252  11.357  63.657  1.00  0.00    -0.397 C  
ENDBRANCH  21  22
ENDBRANCH   2  21
TORSDOF 7
ENDMDL
MODEL       55
REMARK 921   NORMALIZED FREE ENERGY PREDICTED BY IDOCK:   -6.55 KCAL/MOL
REMARK 922        TOTAL FREE ENERGY PREDICTED BY IDOCK:  -10.36 KCAL/MOL
REMARK 923 INTER-LIGAND FREE ENERGY PREDICTED BY IDOCK:   -9.85 KCAL/MOL
REMARK 924 INTRA-LIGAND FREE ENERGY PREDICTED BY IDOCK:   -0.51 KCAL/MOL
REMARK 927      BINDING AFFINITY PREDICTED BY RF-SCORE:    0.00 PKD
ROOT
HETATM    1  C   UNK A   0      -9.284  12.959  67.298  1.00  0.00    -0.208 C  
HETATM    2  N   UNK A   0     -10.412  13.834  66.992  1.00  0.00    -0.272 NA 
ENDROOT
BRANCH   2   3
HETATM    3  C   UNK A   0     -10.303  15.167  67.294  1.00  0.00    -0.261 A  
HETATM    4  C   UNK A   0     -10.776  17.340  68.027  1.00  0.00    -0.367 A  
HETATM    5  C   UNK A   0     -11.069  15.943  68.143  1.00  0.00    -0.338 A  
HETATM    6  S   UNK A   0      -9.060  16.122  66.597  1.00  0.00    -0.279 SA 
HETATM    7  C   UNK A   0      -9.750  17.583  67.136  1.00  0.00    -0.279 A  
BRANCH   7   8
HETATM    8  C   UNK A   0      -9.275  18.859  66.632  1.00  0.00    -0.330 C  
HETATM    9  O   UNK A   0      -9.993  19.670  66.056  1.00  0.00    -0.420 OA 
ATOM     10  N   GLU A   1      -7.917  19.088  66.801  1.00  0.00    -0.250 N  
ATOM     11  H   GLU A   1      -7.343  18.375  67.253  1.00  0.00     0.000 HD 
BRANCH  10  12
ATOM     12  CA  GLU A   1      -7.288  20.331  66.346  1.00  0.00    -0.261 C  
ATOM     13  C   GLU A   1      -6.633  20.110  64.970  1.00  0.00    -0.285 C  
ATOM     14  O   GLU A   1      -6.289  18.821  64.728  1.00  0.00    -0.481 OA 
ATOM     15  OXT GLU A   1      -6.310  21.017  64.215  1.00  0.00    -0.312 OA 
BRANCH  12  16
ATOM     16  CB  GLU A   1      -6.241  20.777  67.372  1.00  0.00    -0.333 C  
BRANCH  16  17
ATOM     17  CG  GLU A   1      -5.602  19.602  68.111  1.00  0.00    -0.221 C  
ATOM     18  CD  GLU A   1      -5.918  19.618  69.585  1.00  0.00    -0.281 C  
ATOM     19  OE2 GLU A   1      -6.134  20.626  70.233  1.00  0.00    -0.480 OA 
ATOM     20  OE1 GLU A   1      -5.902  18.383  70.135  1.00  0.00    -0.239 OA 
ENDBRANCH  16  17
ENDBRANCH  12  16
ENDBRANCH  10  12
ENDBRANCH   7   8
ENDBRANCH   2   3
BRANCH   2  21
HETATM   21  C   UNK A   0     -11.748  13.235  67.181  1.00  0.00    -0.376 C  
BRANCH  21  22
HETATM   22  C   UNK A   0     -11.780  12.328  68.392  1.00  0.00    -0.390 A  
HETATM   23  C   UNK A   0     -11.332  10.182  69.441  1.00  0.00    -0.233 A  
HETATM   24  C   UNK A   0     -11.809  10.654  70.664  1.00  0.00    -0.363 A  
HETATM   25  C   UNK A   0     -11.318  11.006  68.311  1.00  0.00    -0.366 A  
HETATM   26  H   UNK A   0     -10.431   7.078  70.534  1.00  0.00     0.000 HD 
HETATM   27  C   UNK A   0     -12.296  11.958  70.745  1.00  0.00    -0.416 A  
HETATM   28  C   UNK A   0     -11.199   7.688  72.883  1.00  0.00    -0.426 C  
HETATM   29  N   UNK A   0     -11.809   9.794  71.762  1.00  0.00    -0.347 NA 
HETATM   30  N   UNK A   0     -10.809   8.026  70.543  1.00  0.00    -0.238 N  
HETATM   31  C   UNK A   0     -12.274  12.789  69.619  1.00  0.00    -0.188 A  
HETATM   32  C   UNK A   0     -10.838   8.781  69.387  1.00  0.00    -0.110 C  
HETATM   33  O   UNK A   0     -10.469   8.341  68.303  1.00  0.00    -0.205 OA 
HETATM   34  C   UNK A   0     -11.269   8.542  71.638  1.00  0.00    -0.292 C  
ENDBRANCH  21  22
ENDBRANCH   2  21
TORSDOF 7
ENDMDL
MODEL       56
REMARK 921   NORMALIZED FREE ENERGY PREDICTED BY IDOCK:   -6.54 KCAL/MOL
REMARK 922        TOTAL FREE ENERGY PREDICTED BY IDOCK:  -10.35 KCAL/MOL
REMARK 923 INTER-LIGAND FREE ENERGY PREDICTED BY IDOCK:   -9.58 KCAL/MOL
REMARK 924 INTRA-LIGAND FREE ENERGY PREDICTED BY IDOCK:   -0.77 KCAL/MOL
REMARK 927      BINDING AFFINITY PREDICTED BY RF-SCORE:    0.00 PKD
ROOT
HETATM    1  C   UNK A   0     -13.807   9.205  71.427  1.00  0.00    -0.227 C  
HETATM    2  N   UNK A   0     -12.481   9.765  71.185  1.00  0.00    -0.331 NA 
ENDROOT
BRANCH   2   3
HETATM    3  C   UNK A   0     -12.382  11.100  70.891  1.00  0.00    -0.399 A  
HETATM    4  C   UNK A   0     -12.780  13.407  70.805  1.00  0.00    -0.301 A  
HETATM    5  C   UNK A   0     -12.936  12.189  71.541  1.00  0.00    -0.398 A  
HETATM    6  S   UNK A   0     -11.447  11.635  69.556  1.00  0.00    -0.301 SA 
HETATM    7  C   UNK A   0     -12.058  13.223  69.643  1.00  0.00    -0.270 A  
BRANCH   7   8
HETATM    8  C   UNK A   0     -11.827  14.167  68.564  1.00  0.00    -0.355 C  
HETATM    9  O   UNK A   0     -11.771  15.381  68.727  1.00  0.00    -0.341 OA 
ATOM     10  N   GLU A   1     -11.719  13.601  67.302  1.00  0.00    -0.358 N  
ATOM     11  H   GLU A   1     -11.806  12.590  67.199  1.00  0.00     0.000 HD 
BRANCH  10  12
ATOM     12  CA  GLU A   1     -11.483  14.424  66.112  1.00  0.00    -0.357 C  
ATOM     13  C   GLU A   1     -12.521  14.082  65.028  1.00  0.00    -0.425 C  
ATOM     14  O   GLU A   1     -13.031  12.830  65.133  1.00  0.00    -0.768 OA 
ATOM     15  OXT GLU A   1     -12.767  14.801  64.068  1.00  0.00    -0.786 OA 
BRANCH  12  16
ATOM     16  CB  GLU A   1     -10.063  14.171  65.593  1.00  0.00    -0.350 C  
BRANCH  16  17
ATOM     17  CG  GLU A   1      -9.185  13.442  66.609  1.00  0.00    -0.223 C  
ATOM     18  CD  GLU A   1      -8.251  14.380  67.329  1.00  0.00    -0.203 C  
ATOM     19  OE2 GLU A   1      -7.808  15.411  66.856  1.00  0.00    -0.217 OA 
ATOM     20  OE1 GLU A   1      -7.917  13.938  68.563  1.00  0.00    -0.137 OA 
ENDBRANCH  16  17
ENDBRANCH  12  16
ENDBRANCH  10  12
ENDBRANCH   7   8
ENDBRANCH   2   3
BRANCH   2  21
HETATM   21  C   UNK A   0     -11.535   8.876  70.482  1.00  0.00    -0.200 C  
BRANCH  21  22
HETATM   22  C   UNK A   0     -11.060   7.754  71.381  1.00  0.00    -0.268 A  
HETATM   23  C   UNK A   0     -10.208   5.498  71.678  1.00  0.00    -0.265 A  
HETATM   24  C   UNK A   0     -10.141   5.680  73.059  1.00  0.00    -0.181 A  
HETATM   25  C   UNK A   0     -10.665   6.521  70.841  1.00  0.00    -0.289 A  
HETATM   26  H   UNK A   0      -8.919   2.339  71.628  1.00  0.00     0.000 HD 
HETATM   27  C   UNK A   0     -10.558   6.893  73.605  1.00  0.00    -0.371 A  
HETATM   28  C   UNK A   0      -8.654   2.412  74.159  1.00  0.00    -0.070 C  
HETATM   29  N   UNK A   0      -9.684   4.629  73.855  1.00  0.00    -0.131 NA 
HETATM   30  N   UNK A   0      -9.265   3.228  71.989  1.00  0.00    -0.107 N  
HETATM   31  C   UNK A   0     -11.007   7.923  72.770  1.00  0.00    -0.456 A  
HETATM   32  C   UNK A   0      -9.772   4.185  71.133  1.00  0.00    -0.188 C  
HETATM   33  O   UNK A   0      -9.880   3.997  69.925  1.00  0.00    -0.209 OA 
HETATM   34  C   UNK A   0      -9.236   3.479  73.260  1.00  0.00    -0.101 C  
ENDBRANCH  21  22
ENDBRANCH   2  21
TORSDOF 7
ENDMDL
MODEL       57
REMARK 921   NORMALIZED FREE ENERGY PREDICTED BY IDOCK:   -6.53 KCAL/MOL
REMARK 922        TOTAL FREE ENERGY PREDICTED BY IDOCK:  -10.34 KCAL/MOL
REMARK 923 INTER-LIGAND FREE ENERGY PREDICTED BY IDOCK:   -9.16 KCAL/MOL
REMARK 924 INTRA-LIGAND FREE ENERGY PREDICTED BY IDOCK:   -1.17 KCAL/MOL
REMARK 927      BINDING AFFINITY PREDICTED BY RF-SCORE:    0.00 PKD
ROOT
HETATM    1  C   UNK A   0      -8.385  10.168  64.477  1.00  0.00    -0.167 C  
HETATM    2  N   UNK A   0      -9.387  10.259  65.535  1.00  0.00    -0.184 NA 
ENDROOT
BRANCH   2   3
HETATM    3  C   UNK A   0      -9.433   9.263  66.475  1.00  0.00    -0.202 A  
HETATM    4  C   UNK A   0     -10.174   7.517  67.848  1.00  0.00    -0.245 A  
HETATM    5  C   UNK A   0     -10.337   8.226  66.615  1.00  0.00    -0.293 A  
HETATM    6  S   UNK A   0      -8.239   9.162  67.702  1.00  0.00    -0.108 SA 
HETATM    7  C   UNK A   0      -9.110   7.994  68.586  1.00  0.00    -0.140 A  
BRANCH   7   8
HETATM    8  C   UNK A   0      -8.723   7.650  69.942  1.00  0.00    -0.139 C  
HETATM    9  O   UNK A   0      -7.561   7.645  70.334  1.00  0.00    -0.084 OA 
ATOM     10  N   GLU A   1      -9.768   7.271  70.772  1.00  0.00    -0.172 N  
ATOM     11  H   GLU A   1     -10.718   7.252  70.401  1.00  0.00     0.000 HD 
BRANCH  10  12
ATOM     12  CA  GLU A   1      -9.537   6.896  72.170  1.00  0.00    -0.144 C  
ATOM     13  C   GLU A   1      -9.613   5.366  72.319  1.00  0.00    -0.155 C  
ATOM     14  O   GLU A   1     -10.367   4.760  71.368  1.00  0.00    -0.190 OA 
ATOM     15  OXT GLU A   1      -9.168   4.751  73.279  1.00  0.00    -0.115 OA 
BRANCH  12  16
ATOM     16  CB  GLU A   1     -10.587   7.573  73.059  1.00  0.00    -0.422 C  
BRANCH  16  17
ATOM     17  CG  GLU A   1     -11.389   8.641  72.314  1.00  0.00    -0.411 C  
ATOM     18  CD  GLU A   1     -12.770   8.161  71.947  1.00  0.00    -0.332 C  
ATOM     19  OE2 GLU A   1     -13.060   6.999  71.728  1.00  0.00    -0.361 OA 
ATOM     20  OE1 GLU A   1     -13.664   9.170  71.847  1.00  0.00    -0.396 OA 
ENDBRANCH  16  17
ENDBRANCH  12  16
ENDBRANCH  10  12
ENDBRANCH   7   8
ENDBRANCH   2   3
BRANCH   2  21
HETATM   21  C   UNK A   0     -10.687  10.829  65.130  1.00  0.00    -0.089 C  
BRANCH  21  22
HETATM   22  C   UNK A   0     -11.155  11.886  66.106  1.00  0.00    -0.374 A  
HETATM   23  C   UNK A   0     -11.676  12.590  68.373  1.00  0.00    -0.375 A  
HETATM   24  C   UNK A   0     -11.992  13.874  67.927  1.00  0.00    -0.358 A  
HETATM   25  C   UNK A   0     -11.263  11.601  67.476  1.00  0.00    -0.355 A  
HETATM   26  H   UNK A   0     -12.175  13.189  71.695  1.00  0.00     0.000 HD 
HETATM   27  C   UNK A   0     -11.913  14.157  66.564  1.00  0.00    -0.466 A  
HETATM   28  C   UNK A   0     -12.767  15.608  71.165  1.00  0.00    -0.525 C  
HETATM   29  N   UNK A   0     -12.405  14.827  68.857  1.00  0.00    -0.587 NA 
HETATM   30  N   UNK A   0     -12.136  13.345  70.688  1.00  0.00    -0.483 N  
HETATM   31  C   UNK A   0     -11.491  13.172  65.663  1.00  0.00    -0.351 A  
HETATM   32  C   UNK A   0     -11.789  12.320  69.830  1.00  0.00    -0.311 C  
HETATM   33  O   UNK A   0     -11.567  11.179  70.224  1.00  0.00    -0.307 OA 
HETATM   34  C   UNK A   0     -12.412  14.509  70.190  1.00  0.00    -0.321 C  
ENDBRANCH  21  22
ENDBRANCH   2  21
TORSDOF 7
ENDMDL
MODEL       58
REMARK 921   NORMALIZED FREE ENERGY PREDICTED BY IDOCK:   -6.53 KCAL/MOL
REMARK 922        TOTAL FREE ENERGY PREDICTED BY IDOCK:  -10.33 KCAL/MOL
REMARK 923 INTER-LIGAND FREE ENERGY PREDICTED BY IDOCK:   -8.49 KCAL/MOL
REMARK 924 INTRA-LIGAND FREE ENERGY PREDICTED BY IDOCK:   -1.84 KCAL/MOL
REMARK 927      BINDING AFFINITY PREDICTED BY RF-SCORE:    0.00 PKD
ROOT
HETATM    1  C   UNK A   0     -11.616   6.503  70.655  1.00  0.00    -0.381 C  
HETATM    2  N   UNK A   0     -11.076   7.674  69.971  1.00  0.00    -0.377 NA 
ENDROOT
BRANCH   2   3
HETATM    3  C   UNK A   0     -10.146   7.479  68.983  1.00  0.00    -0.192 A  
HETATM    4  C   UNK A   0      -8.118   7.265  67.832  1.00  0.00    -0.119 A  
HETATM    5  C   UNK A   0      -8.800   7.179  69.087  1.00  0.00    -0.135 A  
HETATM    6  S   UNK A   0     -10.593   7.573  67.330  1.00  0.00    -0.307 SA 
HETATM    7  C   UNK A   0      -8.976   7.568  66.794  1.00  0.00    -0.144 A  
BRANCH   7   8
HETATM    8  C   UNK A   0      -8.649   7.893  65.417  1.00  0.00    -0.095 C  
HETATM    9  O   UNK A   0      -8.021   7.145  64.675  1.00  0.00    -0.122 OA 
ATOM     10  N   GLU A   1      -9.060   9.150  64.997  1.00  0.00    -0.372 N  
ATOM     11  H   GLU A   1      -9.549   9.759  65.653  1.00  0.00     0.000 HD 
BRANCH  10  12
ATOM     12  CA  GLU A   1      -8.805   9.622  63.633  1.00  0.00    -0.232 C  
ATOM     13  C   GLU A   1      -7.358  10.138  63.522  1.00  0.00    -0.127 C  
ATOM     14  O   GLU A   1      -6.835  10.558  64.701  1.00  0.00    -0.061 OA 
ATOM     15  OXT GLU A   1      -6.773  10.303  62.461  1.00  0.00    -0.123 OA 
BRANCH  12  16
ATOM     16  CB  GLU A   1      -9.799  10.736  63.286  1.00  0.00    -0.394 C  
BRANCH  16  17
ATOM     17  CG  GLU A   1     -10.432  11.368  64.526  1.00  0.00    -0.381 C  
ATOM     18  CD  GLU A   1     -11.657  12.178  64.187  1.00  0.00    -0.390 C  
ATOM     19  OE2 GLU A   1     -11.837  12.746  63.125  1.00  0.00    -0.493 OA 
ATOM     20  OE1 GLU A   1     -12.537  12.246  65.211  1.00  0.00    -0.583 OA 
ENDBRANCH  16  17
ENDBRANCH  12  16
ENDBRANCH  10  12
ENDBRANCH   7   8
ENDBRANCH   2   3
BRANCH   2  21
HETATM   21  C   UNK A   0     -10.883   8.869  70.815  1.00  0.00    -0.241 C  
BRANCH  21  22
HETATM   22  C   UNK A   0     -10.878  10.135  69.987  1.00  0.00    -0.361 A  
HETATM   23  C   UNK A   0      -9.732  11.706  68.529  1.00  0.00    -0.187 A  
HETATM   24  C   UNK A   0     -10.887  12.479  68.414  1.00  0.00    -0.243 A  
HETATM   25  C   UNK A   0      -9.720  10.546  69.309  1.00  0.00    -0.215 A  
HETATM   26  H   UNK A   0      -7.793  13.572  66.431  1.00  0.00     0.000 HD 
HETATM   27  C   UNK A   0     -12.034  12.093  69.107  1.00  0.00    -0.311 A  
HETATM   28  C   UNK A   0      -9.758  15.135  66.012  1.00  0.00    -0.361 C  
HETATM   29  N   UNK A   0     -10.850  13.632  67.630  1.00  0.00    -0.254 NA 
HETATM   30  N   UNK A   0      -8.599  13.274  66.980  1.00  0.00    -0.335 N  
HETATM   31  C   UNK A   0     -12.030  10.927  69.881  1.00  0.00    -0.430 A  
HETATM   32  C   UNK A   0      -8.523  12.158  67.791  1.00  0.00    -0.160 C  
HETATM   33  O   UNK A   0      -7.487  11.515  67.932  1.00  0.00    -0.094 OA 
HETATM   34  C   UNK A   0      -9.713  13.934  66.928  1.00  0.00    -0.268 C  
ENDBRANCH  21  22
ENDBRANCH   2  21
TORSDOF 7
ENDMDL
MODEL       59
REMARK 921   NORMALIZED FREE ENERGY PREDICTED BY IDOCK:   -6.50 KCAL/MOL
REMARK 922        TOTAL FREE ENERGY PREDICTED BY IDOCK:  -10.29 KCAL/MOL
REMARK 923 INTER-LIGAND FREE ENERGY PREDICTED BY IDOCK:   -9.72 KCAL/MOL
REMARK 924 INTRA-LIGAND FREE ENERGY PREDICTED BY IDOCK:   -0.58 KCAL/MOL
REMARK 927      BINDING AFFINITY PREDICTED BY RF-SCORE:    0.00 PKD
ROOT
HETATM    1  C   UNK A   0     -10.912   8.183  69.582  1.00  0.00    -0.088 C  
HETATM    2  N   UNK A   0     -11.838   9.010  70.349  1.00  0.00    -0.468 NA 
ENDROOT
BRANCH   2   3
HETATM    3  C   UNK A   0     -11.802  10.369  70.167  1.00  0.00    -0.297 A  
HETATM    4  C   UNK A   0     -12.187  12.667  70.398  1.00  0.00    -0.368 A  
HETATM    5  C   UNK A   0     -12.169  11.384  71.032  1.00  0.00    -0.391 A  
HETATM    6  S   UNK A   0     -11.217  11.039  68.701  1.00  0.00    -0.290 SA 
HETATM    7  C   UNK A   0     -11.774  12.603  69.083  1.00  0.00    -0.321 A  
BRANCH   7   8
HETATM    8  C   UNK A   0     -11.804  13.647  68.073  1.00  0.00    -0.362 C  
HETATM    9  O   UNK A   0     -12.101  14.812  68.314  1.00  0.00    -0.258 OA 
ATOM     10  N   GLU A   1     -11.518  13.224  66.783  1.00  0.00    -0.333 N  
ATOM     11  H   GLU A   1     -11.311  12.239  66.615  1.00  0.00     0.000 HD 
BRANCH  10  12
ATOM     12  CA  GLU A   1     -11.508  14.161  65.656  1.00  0.00    -0.325 C  
ATOM     13  C   GLU A   1     -12.332  13.583  64.491  1.00  0.00    -0.355 C  
ATOM     14  O   GLU A   1     -12.414  12.230  64.497  1.00  0.00    -0.439 OA 
ATOM     15  OXT GLU A   1     -12.753  14.251  63.556  1.00  0.00    -0.767 OA 
BRANCH  12  16
ATOM     16  CB  GLU A   1     -10.061  14.413  65.217  1.00  0.00    -0.387 C  
BRANCH  16  17
ATOM     17  CG  GLU A   1      -9.418  15.587  65.953  1.00  0.00    -0.377 C  
ATOM     18  CD  GLU A   1     -10.194  16.866  65.769  1.00  0.00    -0.268 C  
ATOM     19  OE2 GLU A   1     -10.867  17.130  64.790  1.00  0.00    -0.834 OA 
ATOM     20  OE1 GLU A   1     -10.038  17.724  66.803  1.00  0.00    -0.317 OA 
ENDBRANCH  16  17
ENDBRANCH  12  16
ENDBRANCH  10  12
ENDBRANCH   7   8
ENDBRANCH   2   3
BRANCH   2  21
HETATM   21  C   UNK A   0     -12.110   8.549  71.725  1.00  0.00    -0.333 C  
BRANCH  21  22
HETATM   22  C   UNK A   0     -10.931   7.789  72.294  1.00  0.00    -0.345 A  
HETATM   23  C   UNK A   0      -9.924   5.717  73.068  1.00  0.00    -0.191 A  
HETATM   24  C   UNK A   0      -8.718   6.370  73.322  1.00  0.00    -0.124 A  
HETATM   25  C   UNK A   0     -11.024   6.414  72.561  1.00  0.00    -0.283 A  
HETATM   26  H   UNK A   0      -8.874   2.590  73.940  1.00  0.00     0.000 HD 
HETATM   27  C   UNK A   0      -8.626   7.741  73.086  1.00  0.00    -0.230 A  
HETATM   28  C   UNK A   0      -6.558   3.514  74.452  1.00  0.00    -0.039 C  
HETATM   29  N   UNK A   0      -7.649   5.635  73.833  1.00  0.00    -0.096 NA 
HETATM   30  N   UNK A   0      -8.859   3.598  73.786  1.00  0.00    -0.088 N  
HETATM   31  C   UNK A   0      -9.722   8.442  72.569  1.00  0.00    -0.359 A  
HETATM   32  C   UNK A   0      -9.991   4.259  73.349  1.00  0.00    -0.133 C  
HETATM   33  O   UNK A   0     -11.064   3.687  73.181  1.00  0.00    -0.162 OA 
HETATM   34  C   UNK A   0      -7.778   4.281  73.995  1.00  0.00    -0.084 C  
ENDBRANCH  21  22
ENDBRANCH   2  21
TORSDOF 7
ENDMDL
MODEL       60
REMARK 921   NORMALIZED FREE ENERGY PREDICTED BY IDOCK:   -6.50 KCAL/MOL
REMARK 922        TOTAL FREE ENERGY PREDICTED BY IDOCK:  -10.28 KCAL/MOL
REMARK 923 INTER-LIGAND FREE ENERGY PREDICTED BY IDOCK:   -9.27 KCAL/MOL
REMARK 924 INTRA-LIGAND FREE ENERGY PREDICTED BY IDOCK:   -1.01 KCAL/MOL
REMARK 927      BINDING AFFINITY PREDICTED BY RF-SCORE:    0.00 PKD
ROOT
HETATM    1  C   UNK A   0     -12.436  13.966  65.975  1.00  0.00    -0.461 C  
HETATM    2  N   UNK A   0     -11.513  14.101  67.097  1.00  0.00    -0.335 NA 
ENDROOT
BRANCH   2   3
HETATM    3  C   UNK A   0     -11.051  12.961  67.701  1.00  0.00    -0.264 A  
HETATM    4  C   UNK A   0     -10.107  10.849  68.068  1.00  0.00    -0.197 A  
HETATM    5  C   UNK A   0     -10.176  12.003  67.223  1.00  0.00    -0.221 A  
HETATM    6  S   UNK A   0     -11.540  12.557  69.295  1.00  0.00    -0.318 SA 
HETATM    7  C   UNK A   0     -10.886  10.986  69.199  1.00  0.00    -0.237 A  
BRANCH   7   8
HETATM    8  C   UNK A   0     -11.203   9.988  70.205  1.00  0.00    -0.313 C  
HETATM    9  O   UNK A   0     -12.327   9.827  70.668  1.00  0.00    -0.253 OA 
ATOM     10  N   GLU A   1     -10.122   9.245  70.655  1.00  0.00    -0.254 N  
ATOM     11  H   GLU A   1      -9.194   9.431  70.272  1.00  0.00     0.000 HD 
BRANCH  10  12
ATOM     12  CA  GLU A   1     -10.282   8.198  71.668  1.00  0.00    -0.206 C  
ATOM     13  C   GLU A   1      -9.162   8.313  72.719  1.00  0.00    -0.266 C  
ATOM     14  O   GLU A   1      -8.037   8.912  72.256  1.00  0.00    -0.376 OA 
ATOM     15  OXT GLU A   1      -9.207   7.790  73.824  1.00  0.00    -0.269 OA 
BRANCH  12  16
ATOM     16  CB  GLU A   1     -10.241   6.823  70.990  1.00  0.00    -0.217 C  
BRANCH  16  17
ATOM     17  CG  GLU A   1     -11.298   5.864  71.538  1.00  0.00    -0.256 C  
ATOM     18  CD  GLU A   1     -10.724   4.903  72.547  1.00  0.00    -0.196 C  
ATOM     19  OE2 GLU A   1      -9.570   4.514  72.550  1.00  0.00    -0.133 OA 
ATOM     20  OE1 GLU A   1     -11.642   4.478  73.444  1.00  0.00    -0.300 OA 
ENDBRANCH  16  17
ENDBRANCH  12  16
ENDBRANCH  10  12
ENDBRANCH   7   8
ENDBRANCH   2   3
BRANCH   2  21
HETATM   21  C   UNK A   0     -11.762  15.251  67.989  1.00  0.00    -0.251 C  
BRANCH  21  22
HETATM   22  C   UNK A   0     -10.611  16.233  67.959  1.00  0.00    -0.308 A  
HETATM   23  C   UNK A   0      -9.618  18.307  67.171  1.00  0.00    -0.281 A  
HETATM   24  C   UNK A   0      -8.475  18.078  67.937  1.00  0.00    -0.252 A  
HETATM   25  C   UNK A   0     -10.679  17.396  67.176  1.00  0.00    -0.188 A  
HETATM   26  H   UNK A   0      -8.663  21.335  65.924  1.00  0.00     0.000 HD 
HETATM   27  C   UNK A   0      -8.388  16.912  68.696  1.00  0.00    -0.261 A  
HETATM   28  C   UNK A   0      -6.494  21.192  67.248  1.00  0.00    -0.428 C  
HETATM   29  N   UNK A   0      -7.440  19.012  67.896  1.00  0.00    -0.246 NA 
HETATM   30  N   UNK A   0      -8.626  20.456  66.438  1.00  0.00    -0.551 N  
HETATM   31  C   UNK A   0      -9.452  16.001  68.711  1.00  0.00    -0.227 A  
HETATM   32  C   UNK A   0      -9.667  19.552  66.360  1.00  0.00    -0.401 C  
HETATM   33  O   UNK A   0     -10.645  19.734  65.641  1.00  0.00    -0.507 OA 
HETATM   34  C   UNK A   0      -7.601  20.166  67.176  1.00  0.00    -0.299 C  
ENDBRANCH  21  22
ENDBRANCH   2  21
TORSDOF 7
ENDMDL
MODEL       61
REMARK 921   NORMALIZED FREE ENERGY PREDICTED BY IDOCK:   -6.47 KCAL/MOL
REMARK 922        TOTAL FREE ENERGY PREDICTED BY IDOCK:  -10.25 KCAL/MOL
REMARK 923 INTER-LIGAND FREE ENERGY PREDICTED BY IDOCK:   -9.33 KCAL/MOL
REMARK 924 INTRA-LIGAND FREE ENERGY PREDICTED BY IDOCK:   -0.92 KCAL/MOL
REMARK 927      BINDING AFFINITY PREDICTED BY RF-SCORE:    0.00 PKD
ROOT
HETATM    1  C   UNK A   0     -13.017  13.916  65.359  1.00  0.00    -0.326 C  
HETATM    2  N   UNK A   0     -11.843  13.073  65.564  1.00  0.00    -0.371 NA 
ENDROOT
BRANCH   2   3
HETATM    3  C   UNK A   0     -11.701  12.437  66.771  1.00  0.00    -0.362 A  
HETATM    4  C   UNK A   0     -11.595  11.999  69.069  1.00  0.00    -0.370 A  
HETATM    5  C   UNK A   0     -12.118  12.832  68.029  1.00  0.00    -0.174 A  
HETATM    6  S   UNK A   0     -10.928  10.909  66.868  1.00  0.00    -0.165 SA 
HETATM    7  C   UNK A   0     -10.843  10.955  68.569  1.00  0.00    -0.220 A  
BRANCH   7   8
HETATM    8  C   UNK A   0     -10.025  10.000  69.297  1.00  0.00    -0.213 C  
HETATM    9  O   UNK A   0      -8.849  10.196  69.583  1.00  0.00    -0.195 OA 
ATOM     10  N   GLU A   1     -10.657   8.806  69.611  1.00  0.00    -0.221 N  
ATOM     11  H   GLU A   1     -11.626   8.664  69.326  1.00  0.00     0.000 HD 
BRANCH  10  12
ATOM     12  CA  GLU A   1      -9.964   7.744  70.346  1.00  0.00    -0.188 C  
ATOM     13  C   GLU A   1     -10.238   6.384  69.678  1.00  0.00    -0.189 C  
ATOM     14  O   GLU A   1     -11.397   6.343  68.975  1.00  0.00    -0.355 OA 
ATOM     15  OXT GLU A   1      -9.565   5.381  69.872  1.00  0.00    -0.149 OA 
BRANCH  12  16
ATOM     16  CB  GLU A   1     -10.446   7.733  71.801  1.00  0.00    -0.259 C  
BRANCH  16  17
ATOM     17  CG  GLU A   1     -11.463   8.837  72.093  1.00  0.00    -0.421 C  
ATOM     18  CD  GLU A   1     -12.875   8.313  72.126  1.00  0.00    -0.315 C  
ATOM     19  OE2 GLU A   1     -13.270   7.353  71.490  1.00  0.00    -0.363 OA 
ATOM     20  OE1 GLU A   1     -13.686   9.050  72.919  1.00  0.00    -0.365 OA 
ENDBRANCH  16  17
ENDBRANCH  12  16
ENDBRANCH  10  12
ENDBRANCH   7   8
ENDBRANCH   2   3
BRANCH   2  21
HETATM   21  C   UNK A   0     -10.598  13.557  64.937  1.00  0.00    -0.397 C  
BRANCH  21  22
HETATM   22  C   UNK A   0      -9.916  14.600  65.797  1.00  0.00    -0.365 A  
HETATM   23  C   UNK A   0      -9.609  16.914  66.472  1.00  0.00    -0.295 A  
HETATM   24  C   UNK A   0      -8.668  16.535  67.429  1.00  0.00    -0.182 A  
HETATM   25  C   UNK A   0     -10.229  15.961  65.659  1.00  0.00    -0.406 A  
HETATM   26  H   UNK A   0      -9.585  20.250  67.188  1.00  0.00     0.000 HD 
HETATM   27  C   UNK A   0      -8.332  15.188  67.553  1.00  0.00    -0.188 A  
HETATM   28  C   UNK A   0      -7.877  19.838  69.030  1.00  0.00    -0.194 C  
HETATM   29  N   UNK A   0      -8.071  17.522  68.214  1.00  0.00    -0.259 NA 
HETATM   30  N   UNK A   0      -9.343  19.260  67.223  1.00  0.00    -0.301 N  
HETATM   31  C   UNK A   0      -8.957  14.229  66.748  1.00  0.00    -0.249 A  
HETATM   32  C   UNK A   0      -9.930  18.361  66.355  1.00  0.00    -0.386 C  
HETATM   33  O   UNK A   0     -10.715  18.709  65.478  1.00  0.00    -0.577 OA 
HETATM   34  C   UNK A   0      -8.480  18.823  68.085  1.00  0.00    -0.306 C  
ENDBRANCH  21  22
ENDBRANCH   2  21
TORSDOF 7
ENDMDL
MODEL       62
REMARK 921   NORMALIZED FREE ENERGY PREDICTED BY IDOCK:   -6.45 KCAL/MOL
REMARK 922        TOTAL FREE ENERGY PREDICTED BY IDOCK:  -10.22 KCAL/MOL
REMARK 923 INTER-LIGAND FREE ENERGY PREDICTED BY IDOCK:   -8.89 KCAL/MOL
REMARK 924 INTRA-LIGAND FREE ENERGY PREDICTED BY IDOCK:   -1.33 KCAL/MOL
REMARK 927      BINDING AFFINITY PREDICTED BY RF-SCORE:    0.00 PKD
ROOT
HETATM    1  C   UNK A   0     -11.532  14.529  69.687  1.00  0.00    -0.288 C  
HETATM    2  N   UNK A   0     -10.825  13.834  68.616  1.00  0.00    -0.256 NA 
ENDROOT
BRANCH   2   3
HETATM    3  C   UNK A   0      -9.631  14.350  68.183  1.00  0.00    -0.218 A  
HETATM    4  C   UNK A   0      -7.343  14.771  67.916  1.00  0.00    -0.162 A  
HETATM    5  C   UNK A   0      -8.353  13.835  68.307  1.00  0.00    -0.161 A  
HETATM    6  S   UNK A   0      -9.578  15.838  67.332  1.00  0.00    -0.218 SA 
HETATM    7  C   UNK A   0      -7.882  15.952  67.446  1.00  0.00    -0.168 A  
BRANCH   7   8
HETATM    8  C   UNK A   0      -7.197  17.188  67.109  1.00  0.00    -0.173 C  
HETATM    9  O   UNK A   0      -6.329  17.267  66.247  1.00  0.00    -0.219 OA 
ATOM     10  N   GLU A   1      -7.560  18.287  67.874  1.00  0.00    -0.237 N  
ATOM     11  H   GLU A   1      -8.261  18.176  68.607  1.00  0.00     0.000 HD 
BRANCH  10  12
ATOM     12  CA  GLU A   1      -6.958  19.605  67.652  1.00  0.00    -0.240 C  
ATOM     13  C   GLU A   1      -6.375  20.141  68.972  1.00  0.00    -0.325 C  
ATOM     14  O   GLU A   1      -6.967  19.629  70.080  1.00  0.00    -0.195 OA 
ATOM     15  OXT GLU A   1      -5.559  21.050  69.038  1.00  0.00    -0.357 OA 
BRANCH  12  16
ATOM     16  CB  GLU A   1      -8.023  20.565  67.108  1.00  0.00    -0.361 C  
BRANCH  16  17
ATOM     17  CG  GLU A   1      -8.837  19.957  65.966  1.00  0.00    -0.287 C  
ATOM     18  CD  GLU A   1     -10.254  19.654  66.379  1.00  0.00    -0.488 C  
ATOM     19  OE2 GLU A   1     -10.598  19.373  67.513  1.00  0.00    -0.433 OA 
ATOM     20  OE1 GLU A   1     -11.119  19.689  65.340  1.00  0.00    -0.412 OA 
ENDBRANCH  16  17
ENDBRANCH  12  16
ENDBRANCH  10  12
ENDBRANCH   7   8
ENDBRANCH   2   3
BRANCH   2  21
HETATM   21  C   UNK A   0     -11.682  13.228  67.579  1.00  0.00    -0.366 C  
BRANCH  21  22
HETATM   22  C   UNK A   0     -11.130  11.898  67.114  1.00  0.00    -0.347 A  
HETATM   23  C   UNK A   0     -10.564   9.575  67.547  1.00  0.00    -0.338 A  
HETATM   24  C   UNK A   0     -10.135   9.409  66.231  1.00  0.00    -0.258 A  
HETATM   25  C   UNK A   0     -11.057  10.806  67.991  1.00  0.00    -0.359 A  
HETATM   26  H   UNK A   0     -10.037   6.355  68.546  1.00  0.00     0.000 HD 
HETATM   27  C   UNK A   0     -10.179  10.498  65.360  1.00  0.00    -0.340 A  
HETATM   28  C   UNK A   0      -9.232   5.765  66.205  1.00  0.00    -0.169 C  
HETATM   29  N   UNK A   0      -9.646   8.165  65.834  1.00  0.00    -0.446 NA 
HETATM   30  N   UNK A   0     -10.055   7.184  67.952  1.00  0.00    -0.164 N  
HETATM   31  C   UNK A   0     -10.680  11.729  65.798  1.00  0.00    -0.328 A  
HETATM   32  C   UNK A   0     -10.485   8.397  68.452  1.00  0.00    -0.164 C  
HETATM   33  O   UNK A   0     -10.810   8.549  69.626  1.00  0.00    -0.225 OA 
HETATM   34  C   UNK A   0      -9.675   7.117  66.715  1.00  0.00    -0.192 C  
ENDBRANCH  21  22
ENDBRANCH   2  21
TORSDOF 7
ENDMDL
MODEL       63
REMARK 921   NORMALIZED FREE ENERGY PREDICTED BY IDOCK:   -6.45 KCAL/MOL
REMARK 922        TOTAL FREE ENERGY PREDICTED BY IDOCK:  -10.22 KCAL/MOL
REMARK 923 INTER-LIGAND FREE ENERGY PREDICTED BY IDOCK:  -10.05 KCAL/MOL
REMARK 924 INTRA-LIGAND FREE ENERGY PREDICTED BY IDOCK:   -0.17 KCAL/MOL
REMARK 927      BINDING AFFINITY PREDICTED BY RF-SCORE:    0.00 PKD
ROOT
HETATM    1  C   UNK A   0     -10.511   7.472  73.403  1.00  0.00    -0.348 C  
HETATM    2  N   UNK A   0     -10.910   7.507  72.000  1.00  0.00    -0.226 NA 
ENDROOT
BRANCH   2   3
HETATM    3  C   UNK A   0     -11.393   8.684  71.489  1.00  0.00    -0.289 A  
HETATM    4  C   UNK A   0     -12.830  10.392  70.781  1.00  0.00    -0.450 A  
HETATM    5  C   UNK A   0     -12.636   9.269  71.647  1.00  0.00    -0.446 A  
HETATM    6  S   UNK A   0     -10.401   9.684  70.510  1.00  0.00    -0.286 SA 
HETATM    7  C   UNK A   0     -11.705  10.671  70.031  1.00  0.00    -0.324 A  
BRANCH   7   8
HETATM    8  C   UNK A   0     -11.558  11.617  68.940  1.00  0.00    -0.314 C  
HETATM    9  O   UNK A   0     -11.916  11.386  67.790  1.00  0.00    -0.637 OA 
ATOM     10  N   GLU A   1     -10.928  12.807  69.276  1.00  0.00    -0.443 N  
ATOM     11  H   GLU A   1     -10.611  12.950  70.236  1.00  0.00     0.000 HD 
BRANCH  10  12
ATOM     12  CA  GLU A   1     -10.707  13.862  68.284  1.00  0.00    -0.251 C  
ATOM     13  C   GLU A   1     -10.360  15.183  68.996  1.00  0.00    -0.244 C  
ATOM     14  O   GLU A   1     -10.839  15.264  70.262  1.00  0.00    -0.280 OA 
ATOM     15  OXT GLU A   1      -9.834  16.139  68.441  1.00  0.00    -0.215 OA 
BRANCH  12  16
ATOM     16  CB  GLU A   1     -11.970  14.030  67.431  1.00  0.00    -0.439 C  
BRANCH  16  17
ATOM     17  CG  GLU A   1     -11.687  14.690  66.082  1.00  0.00    -0.316 C  
ATOM     18  CD  GLU A   1     -12.464  14.048  64.961  1.00  0.00    -0.425 C  
ATOM     19  OE2 GLU A   1     -12.812  12.882  64.943  1.00  0.00    -0.701 OA 
ATOM     20  OE1 GLU A   1     -12.710  14.902  63.941  1.00  0.00    -0.789 OA 
ENDBRANCH  16  17
ENDBRANCH  12  16
ENDBRANCH  10  12
ENDBRANCH   7   8
ENDBRANCH   2   3
BRANCH   2  21
HETATM   21  C   UNK A   0     -11.539   6.273  71.489  1.00  0.00    -0.287 C  
BRANCH  21  22
HETATM   22  C   UNK A   0     -10.944   5.859  70.161  1.00  0.00    -0.412 A  
HETATM   23  C   UNK A   0      -9.384   4.517  68.868  1.00  0.00    -0.209 A  
HETATM   24  C   UNK A   0      -9.864   5.064  67.677  1.00  0.00    -0.161 A  
HETATM   25  C   UNK A   0      -9.914   4.908  70.101  1.00  0.00    -0.325 A  
HETATM   26  H   UNK A   0      -7.144   2.372  67.447  1.00  0.00     0.000 HD 
HETATM   27  C   UNK A   0     -10.868   6.029  67.730  1.00  0.00    -0.380 A  
HETATM   28  C   UNK A   0      -7.853   3.168  65.135  1.00  0.00    -0.082 C  
HETATM   29  N   UNK A   0      -9.301   4.647  66.471  1.00  0.00    -0.138 NA 
HETATM   30  N   UNK A   0      -7.854   3.098  67.531  1.00  0.00    -0.076 N  
HETATM   31  C   UNK A   0     -11.408   6.417  68.962  1.00  0.00    -0.332 A  
HETATM   32  C   UNK A   0      -8.300   3.504  68.774  1.00  0.00    -0.072 C  
HETATM   33  O   UNK A   0      -7.835   3.058  69.819  1.00  0.00    -0.043 OA 
HETATM   34  C   UNK A   0      -8.355   3.657  66.475  1.00  0.00    -0.104 C  
ENDBRANCH  21  22
ENDBRANCH   2  21
TORSDOF 7
ENDMDL
MODEL       64
REMARK 921   NORMALIZED FREE ENERGY PREDICTED BY IDOCK:   -6.44 KCAL/MOL
REMARK 922        TOTAL FREE ENERGY PREDICTED BY IDOCK:  -10.21 KCAL/MOL
REMARK 923 INTER-LIGAND FREE ENERGY PREDICTED BY IDOCK:   -9.39 KCAL/MOL
REMARK 924 INTRA-LIGAND FREE ENERGY PREDICTED BY IDOCK:   -0.82 KCAL/MOL
REMARK 927      BINDING AFFINITY PREDICTED BY RF-SCORE:    0.00 PKD
ROOT
HETATM    1  C   UNK A   0     -11.242  10.480  67.273  1.00  0.00    -0.125 C  
HETATM    2  N   UNK A   0     -11.295  11.823  67.842  1.00  0.00    -0.268 NA 
ENDROOT
BRANCH   2   3
HETATM    3  C   UNK A   0     -10.367  12.743  67.427  1.00  0.00    -0.222 A  
HETATM    4  C   UNK A   0      -8.420  14.033  67.251  1.00  0.00    -0.220 A  
HETATM    5  C   UNK A   0      -9.009  12.801  67.681  1.00  0.00    -0.191 A  
HETATM    6  S   UNK A   0     -10.826  14.056  66.424  1.00  0.00    -0.302 SA 
HETATM    7  C   UNK A   0      -9.335  14.855  66.625  1.00  0.00    -0.268 A  
BRANCH   7   8
HETATM    8  C   UNK A   0      -9.168  16.233  66.197  1.00  0.00    -0.341 C  
HETATM    9  O   UNK A   0      -9.930  16.797  65.419  1.00  0.00    -0.572 OA 
ATOM     10  N   GLU A   1      -8.041  16.870  66.696  1.00  0.00    -0.234 N  
ATOM     11  H   GLU A   1      -7.411  16.358  67.314  1.00  0.00     0.000 HD 
BRANCH  10  12
ATOM     12  CA  GLU A   1      -7.737  18.262  66.356  1.00  0.00    -0.257 C  
ATOM     13  C   GLU A   1      -6.401  18.332  65.593  1.00  0.00    -0.265 C  
ATOM     14  O   GLU A   1      -5.565  17.297  65.857  1.00  0.00    -0.268 OA 
ATOM     15  OXT GLU A   1      -6.047  19.294  64.925  1.00  0.00    -0.246 OA 
BRANCH  12  16
ATOM     16  CB  GLU A   1      -7.663  19.096  67.641  1.00  0.00    -0.271 C  
BRANCH  16  17
ATOM     17  CG  GLU A   1      -8.900  19.971  67.847  1.00  0.00    -0.337 C  
ATOM     18  CD  GLU A   1      -9.887  19.343  68.798  1.00  0.00    -0.456 C  
ATOM     19  OE2 GLU A   1     -10.026  18.144  68.955  1.00  0.00    -0.371 OA 
ATOM     20  OE1 GLU A   1     -10.642  20.259  69.445  1.00  0.00    -0.047 OA 
ENDBRANCH  16  17
ENDBRANCH  12  16
ENDBRANCH  10  12
ENDBRANCH   7   8
ENDBRANCH   2   3
BRANCH   2  21
HETATM   21  C   UNK A   0     -11.686  11.894  69.264  1.00  0.00    -0.328 C  
BRANCH  21  22
HETATM   22  C   UNK A   0     -11.375  10.601  69.987  1.00  0.00    -0.400 A  
HETATM   23  C   UNK A   0     -12.111   8.594  71.143  1.00  0.00    -0.297 A  
HETATM   24  C   UNK A   0     -10.790   8.173  71.301  1.00  0.00    -0.237 A  
HETATM   25  C   UNK A   0     -12.407   9.796  70.495  1.00  0.00    -0.173 A  
HETATM   26  H   UNK A   0     -13.573   5.870  72.587  1.00  0.00     0.000 HD 
HETATM   27  C   UNK A   0      -9.758   8.980  70.824  1.00  0.00    -0.306 A  
HETATM   28  C   UNK A   0     -11.274   4.847  72.974  1.00  0.00    -0.367 C  
HETATM   29  N   UNK A   0     -10.542   6.968  71.959  1.00  0.00    -0.209 NA 
HETATM   30  N   UNK A   0     -12.848   6.505  72.254  1.00  0.00    -0.544 N  
HETATM   31  C   UNK A   0     -10.051  10.181  70.166  1.00  0.00    -0.197 A  
HETATM   32  C   UNK A   0     -13.183   7.716  71.681  1.00  0.00    -0.352 C  
HETATM   33  O   UNK A   0     -14.344   8.105  71.595  1.00  0.00    -0.426 OA 
HETATM   34  C   UNK A   0     -11.595   6.190  72.360  1.00  0.00    -0.292 C  
ENDBRANCH  21  22
ENDBRANCH   2  21
TORSDOF 7
ENDMDL
MODEL       65
REMARK 921   NORMALIZED FREE ENERGY PREDICTED BY IDOCK:   -6.43 KCAL/MOL
REMARK 922        TOTAL FREE ENERGY PREDICTED BY IDOCK:  -10.20 KCAL/MOL
REMARK 923 INTER-LIGAND FREE ENERGY PREDICTED BY IDOCK:   -9.20 KCAL/MOL
REMARK 924 INTRA-LIGAND FREE ENERGY PREDICTED BY IDOCK:   -1.00 KCAL/MOL
REMARK 927      BINDING AFFINITY PREDICTED BY RF-SCORE:    0.00 PKD
ROOT
HETATM    1  C   UNK A   0      -9.246  10.075  63.345  1.00  0.00    -0.281 C  
HETATM    2  N   UNK A   0      -9.680  10.099  64.738  1.00  0.00    -0.315 NA 
ENDROOT
BRANCH   2   3
HETATM    3  C   UNK A   0     -10.390  11.186  65.180  1.00  0.00    -0.293 A  
HETATM    4  C   UNK A   0     -11.966  12.910  65.346  1.00  0.00    -0.470 A  
HETATM    5  C   UNK A   0     -11.658  11.612  64.827  1.00  0.00    -0.170 A  
HETATM    6  S   UNK A   0      -9.730  12.242  66.359  1.00  0.00    -0.236 SA 
HETATM    7  C   UNK A   0     -10.948  13.411  66.132  1.00  0.00    -0.276 A  
BRANCH   7   8
HETATM    8  C   UNK A   0     -10.815  14.741  66.699  1.00  0.00    -0.319 C  
HETATM    9  O   UNK A   0     -11.530  15.168  67.599  1.00  0.00    -0.332 OA 
ATOM     10  N   GLU A   1      -9.839  15.534  66.112  1.00  0.00    -0.291 N  
ATOM     11  H   GLU A   1      -9.287  15.158  65.341  1.00  0.00     0.000 HD 
BRANCH  10  12
ATOM     12  CA  GLU A   1      -9.584  16.901  66.576  1.00  0.00    -0.278 C  
ATOM     13  C   GLU A   1     -10.570  17.872  65.902  1.00  0.00    -0.215 C  
ATOM     14  O   GLU A   1     -11.045  17.431  64.711  1.00  0.00    -0.973 OA 
ATOM     15  OXT GLU A   1     -10.801  19.002  66.311  1.00  0.00    -0.343 OA 
BRANCH  12  16
ATOM     16  CB  GLU A   1      -8.138  17.289  66.244  1.00  0.00    -0.315 C  
BRANCH  16  17
ATOM     17  CG  GLU A   1      -7.328  17.659  67.486  1.00  0.00    -0.202 C  
ATOM     18  CD  GLU A   1      -7.505  19.106  67.869  1.00  0.00    -0.259 C  
ATOM     19  OE2 GLU A   1      -7.752  20.003  67.083  1.00  0.00    -0.267 OA 
ATOM     20  OE1 GLU A   1      -7.324  19.322  69.192  1.00  0.00    -0.346 OA 
ENDBRANCH  16  17
ENDBRANCH  12  16
ENDBRANCH  10  12
ENDBRANCH   7   8
ENDBRANCH   2   3
BRANCH   2  21
HETATM   21  C   UNK A   0      -8.737   9.505  65.706  1.00  0.00    -0.147 C  
BRANCH  21  22
HETATM   22  C   UNK A   0      -9.463   8.693  66.757  1.00  0.00    -0.250 A  
HETATM   23  C   UNK A   0     -10.059   8.285  69.077  1.00  0.00    -0.208 A  
HETATM   24  C   UNK A   0     -10.849   7.197  68.707  1.00  0.00    -0.120 A  
HETATM   25  C   UNK A   0      -9.368   9.029  68.116  1.00  0.00    -0.151 A  
HETATM   26  H   UNK A   0     -10.735   8.151  72.419  1.00  0.00     0.000 HD 
HETATM   27  C   UNK A   0     -10.926   6.840  67.362  1.00  0.00    -0.407 A  
HETATM   28  C   UNK A   0     -12.271   6.160  72.024  1.00  0.00    -0.192 C  
HETATM   29  N   UNK A   0     -11.516   6.480  69.701  1.00  0.00    -0.582 NA 
HETATM   30  N   UNK A   0     -10.738   7.904  71.429  1.00  0.00    -0.222 N  
HETATM   31  C   UNK A   0     -10.244   7.588  66.395  1.00  0.00    -0.022 A  
HETATM   32  C   UNK A   0      -9.986   8.624  70.523  1.00  0.00    -0.189 C  
HETATM   33  O   UNK A   0      -9.249   9.546  70.862  1.00  0.00    -0.217 OA 
HETATM   34  C   UNK A   0     -11.447   6.908  71.001  1.00  0.00    -0.314 C  
ENDBRANCH  21  22
ENDBRANCH   2  21
TORSDOF 7
ENDMDL
MODEL       66
REMARK 921   NORMALIZED FREE ENERGY PREDICTED BY IDOCK:   -6.42 KCAL/MOL
REMARK 922        TOTAL FREE ENERGY PREDICTED BY IDOCK:  -10.17 KCAL/MOL
REMARK 923 INTER-LIGAND FREE ENERGY PREDICTED BY IDOCK:   -9.01 KCAL/MOL
REMARK 924 INTRA-LIGAND FREE ENERGY PREDICTED BY IDOCK:   -1.17 KCAL/MOL
REMARK 927      BINDING AFFINITY PREDICTED BY RF-SCORE:    0.00 PKD
ROOT
HETATM    1  C   UNK A   0      -9.738  10.983  66.580  1.00  0.00    -0.198 C  
HETATM    2  N   UNK A   0     -10.717  11.744  67.348  1.00  0.00    -0.226 NA 
ENDROOT
BRANCH   2   3
HETATM    3  C   UNK A   0     -11.141  11.236  68.548  1.00  0.00    -0.235 A  
HETATM    4  C   UNK A   0     -12.100  11.025  70.674  1.00  0.00    -0.471 A  
HETATM    5  C   UNK A   0     -12.093  11.723  69.425  1.00  0.00    -0.301 A  
HETATM    6  S   UNK A   0     -10.488   9.771  69.157  1.00  0.00    -0.225 SA 
HETATM    7  C   UNK A   0     -11.195   9.983  70.693  1.00  0.00    -0.350 A  
BRANCH   7   8
HETATM    8  C   UNK A   0     -10.796   9.151  71.814  1.00  0.00    -0.345 C  
HETATM    9  O   UNK A   0     -11.537   8.881  72.753  1.00  0.00    -0.015 OA 
ATOM     10  N   GLU A   1      -9.481   8.712  71.780  1.00  0.00    -0.260 N  
ATOM     11  H   GLU A   1      -8.883   8.986  71.001  1.00  0.00     0.000 HD 
BRANCH  10  12
ATOM     12  CA  GLU A   1      -8.931   7.862  72.841  1.00  0.00    -0.213 C  
ATOM     13  C   GLU A   1      -7.438   8.180  73.042  1.00  0.00    -0.129 C  
ATOM     14  O   GLU A   1      -6.836   8.702  71.945  1.00  0.00    -0.086 OA 
ATOM     15  OXT GLU A   1      -6.802   7.863  74.038  1.00  0.00    -0.097 OA 
BRANCH  12  16
ATOM     16  CB  GLU A   1      -9.117   6.389  72.460  1.00  0.00    -0.136 C  
BRANCH  16  17
ATOM     17  CG  GLU A   1      -9.831   5.585  73.546  1.00  0.00    -0.173 C  
ATOM     18  CD  GLU A   1     -11.184   5.097  73.095  1.00  0.00    -0.330 C  
ATOM     19  OE2 GLU A   1     -11.885   5.665  72.279  1.00  0.00    -0.226 OA 
ATOM     20  OE1 GLU A   1     -11.566   3.963  73.726  1.00  0.00    -0.117 OA 
ENDBRANCH  16  17
ENDBRANCH  12  16
ENDBRANCH  10  12
ENDBRANCH   7   8
ENDBRANCH   2   3
BRANCH   2  21
HETATM   21  C   UNK A   0     -11.736  12.455  66.550  1.00  0.00    -0.379 C  
BRANCH  21  22
HETATM   22  C   UNK A   0     -11.367  13.909  66.353  1.00  0.00    -0.335 A  
HETATM   23  C   UNK A   0     -10.758  16.079  67.262  1.00  0.00    -0.295 A  
HETATM   24  C   UNK A   0     -10.643  16.611  65.977  1.00  0.00    -0.233 A  
HETATM   25  C   UNK A   0     -11.118  14.742  67.454  1.00  0.00    -0.327 A  
HETATM   26  H   UNK A   0      -9.820  18.895  68.945  1.00  0.00     0.000 HD 
HETATM   27  C   UNK A   0     -10.915  15.797  64.879  1.00  0.00    -0.443 A  
HETATM   28  C   UNK A   0      -9.497  20.107  66.729  1.00  0.00    -0.533 C  
HETATM   29  N   UNK A   0     -10.286  17.952  65.834  1.00  0.00    -0.578 NA 
HETATM   30  N   UNK A   0     -10.060  18.276  68.171  1.00  0.00    -0.359 N  
HETATM   31  C   UNK A   0     -11.267  14.455  65.067  1.00  0.00    -0.376 A  
HETATM   32  C   UNK A   0     -10.478  16.981  68.409  1.00  0.00    -0.370 C  
HETATM   33  O   UNK A   0     -10.630  16.537  69.543  1.00  0.00    -0.304 OA 
HETATM   34  C   UNK A   0      -9.978  18.690  66.946  1.00  0.00    -0.345 C  
ENDBRANCH  21  22
ENDBRANCH   2  21
TORSDOF 7
ENDMDL
MODEL       67
REMARK 921   NORMALIZED FREE ENERGY PREDICTED BY IDOCK:   -6.41 KCAL/MOL
REMARK 922        TOTAL FREE ENERGY PREDICTED BY IDOCK:  -10.16 KCAL/MOL
REMARK 923 INTER-LIGAND FREE ENERGY PREDICTED BY IDOCK:   -9.14 KCAL/MOL
REMARK 924 INTRA-LIGAND FREE ENERGY PREDICTED BY IDOCK:   -1.02 KCAL/MOL
REMARK 927      BINDING AFFINITY PREDICTED BY RF-SCORE:    0.00 PKD
ROOT
HETATM    1  C   UNK A   0     -13.038  10.693  71.713  1.00  0.00    -0.466 C  
HETATM    2  N   UNK A   0     -12.018   9.733  71.302  1.00  0.00    -0.357 NA 
ENDROOT
BRANCH   2   3
HETATM    3  C   UNK A   0     -11.101  10.120  70.360  1.00  0.00    -0.324 A  
HETATM    4  C   UNK A   0      -9.096  10.464  69.200  1.00  0.00    -0.197 A  
HETATM    5  C   UNK A   0      -9.814   9.661  70.142  1.00  0.00    -0.310 A  
HETATM    6  S   UNK A   0     -11.488  11.331  69.208  1.00  0.00    -0.332 SA 
HETATM    7  C   UNK A   0      -9.875  11.478  68.679  1.00  0.00    -0.177 A  
BRANCH   7   8
HETATM    8  C   UNK A   0      -9.471  12.583  67.829  1.00  0.00    -0.197 C  
HETATM    9  O   UNK A   0      -8.330  12.727  67.402  1.00  0.00    -0.170 OA 
ATOM     10  N   GLU A   1     -10.466  13.512  67.562  1.00  0.00    -0.236 N  
ATOM     11  H   GLU A   1     -11.395  13.378  67.963  1.00  0.00     0.000 HD 
BRANCH  10  12
ATOM     12  CA  GLU A   1     -10.212  14.683  66.717  1.00  0.00    -0.268 C  
ATOM     13  C   GLU A   1     -10.647  15.962  67.455  1.00  0.00    -0.315 C  
ATOM     14  O   GLU A   1     -11.607  15.755  68.391  1.00  0.00    -0.373 OA 
ATOM     15  OXT GLU A   1     -10.284  17.088  67.141  1.00  0.00    -0.293 OA 
BRANCH  12  16
ATOM     16  CB  GLU A   1     -10.984  14.536  65.400  1.00  0.00    -0.346 C  
BRANCH  16  17
ATOM     17  CG  GLU A   1     -12.155  13.560  65.508  1.00  0.00    -0.454 C  
ATOM     18  CD  GLU A   1     -12.640  13.104  64.156  1.00  0.00    -0.184 C  
ATOM     19  OE2 GLU A   1     -12.565  13.766  63.137  1.00  0.00    -0.793 OA 
ATOM     20  OE1 GLU A   1     -13.212  11.879  64.194  1.00  0.00    -0.645 OA 
ENDBRANCH  16  17
ENDBRANCH  12  16
ENDBRANCH  10  12
ENDBRANCH   7   8
ENDBRANCH   2   3
BRANCH   2  21
HETATM   21  C   UNK A   0     -12.463   8.327  71.233  1.00  0.00    -0.245 C  
BRANCH  21  22
HETATM   22  C   UNK A   0     -11.455   7.397  71.875  1.00  0.00    -0.300 A  
HETATM   23  C   UNK A   0     -10.007   5.448  71.768  1.00  0.00    -0.235 A  
HETATM   24  C   UNK A   0      -9.549   5.689  73.064  1.00  0.00    -0.150 A  
HETATM   25  C   UNK A   0     -10.953   6.290  71.175  1.00  0.00    -0.336 A  
HETATM   26  H   UNK A   0      -8.042   2.729  71.149  1.00  0.00     0.000 HD 
HETATM   27  C   UNK A   0     -10.064   6.771  73.776  1.00  0.00    -0.349 A  
HETATM   28  C   UNK A   0      -7.007   2.955  73.464  1.00  0.00    -0.039 C  
HETATM   29  N   UNK A   0      -8.609   4.820  73.617  1.00  0.00    -0.105 NA 
HETATM   30  N   UNK A   0      -8.468   3.510  71.647  1.00  0.00    -0.075 N  
HETATM   31  C   UNK A   0     -11.004   7.622  73.182  1.00  0.00    -0.411 A  
HETATM   32  C   UNK A   0      -9.449   4.275  71.047  1.00  0.00    -0.166 C  
HETATM   33  O   UNK A   0      -9.887   4.024  69.928  1.00  0.00    -0.209 OA 
HETATM   34  C   UNK A   0      -8.098   3.804  72.853  1.00  0.00    -0.086 C  
ENDBRANCH  21  22
ENDBRANCH   2  21
TORSDOF 7
ENDMDL
MODEL       68
REMARK 921   NORMALIZED FREE ENERGY PREDICTED BY IDOCK:   -6.41 KCAL/MOL
REMARK 922        TOTAL FREE ENERGY PREDICTED BY IDOCK:  -10.16 KCAL/MOL
REMARK 923 INTER-LIGAND FREE ENERGY PREDICTED BY IDOCK:   -9.11 KCAL/MOL
REMARK 924 INTRA-LIGAND FREE ENERGY PREDICTED BY IDOCK:   -1.05 KCAL/MOL
REMARK 927      BINDING AFFINITY PREDICTED BY RF-SCORE:    0.00 PKD
ROOT
HETATM    1  C   UNK A   0     -12.022  14.499  67.813  1.00  0.00    -0.310 C  
HETATM    2  N   UNK A   0     -11.651  13.694  66.653  1.00  0.00    -0.346 NA 
ENDROOT
BRANCH   2   3
HETATM    3  C   UNK A   0     -11.061  12.476  66.868  1.00  0.00    -0.278 A  
HETATM    4  C   UNK A   0     -10.119  10.357  66.536  1.00  0.00    -0.285 A  
HETATM    5  C   UNK A   0     -10.410  11.643  65.977  1.00  0.00    -0.283 A  
HETATM    6  S   UNK A   0     -11.041  11.778  68.435  1.00  0.00    -0.261 SA 
HETATM    7  C   UNK A   0     -10.501  10.268  67.859  1.00  0.00    -0.212 A  
BRANCH   7   8
HETATM    8  C   UNK A   0     -10.521   9.097  68.718  1.00  0.00    -0.212 C  
HETATM    9  O   UNK A   0      -9.975   8.037  68.429  1.00  0.00    -0.173 OA 
ATOM     10  N   GLU A   1     -11.251   9.239  69.888  1.00  0.00    -0.390 N  
ATOM     11  H   GLU A   1     -11.721  10.124  70.079  1.00  0.00     0.000 HD 
BRANCH  10  12
ATOM     12  CA  GLU A   1     -11.363   8.145  70.858  1.00  0.00    -0.268 C  
ATOM     13  C   GLU A   1     -12.833   7.972  71.280  1.00  0.00    -0.199 C  
ATOM     14  O   GLU A   1     -13.577   9.098  71.149  1.00  0.00    -0.268 OA 
ATOM     15  OXT GLU A   1     -13.273   6.968  71.825  1.00  0.00    -0.358 OA 
BRANCH  12  16
ATOM     16  CB  GLU A   1     -10.488   8.455  72.078  1.00  0.00    -0.384 C  
BRANCH  16  17
ATOM     17  CG  GLU A   1      -9.126   7.765  72.017  1.00  0.00    -0.180 C  
ATOM     18  CD  GLU A   1      -8.032   8.706  71.581  1.00  0.00    -0.119 C  
ATOM     19  OE2 GLU A   1      -8.198   9.665  70.850  1.00  0.00    -0.290 OA 
ATOM     20  OE1 GLU A   1      -6.818   8.352  72.060  1.00  0.00    -0.078 OA 
ENDBRANCH  16  17
ENDBRANCH  12  16
ENDBRANCH  10  12
ENDBRANCH   7   8
ENDBRANCH   2   3
BRANCH   2  21
HETATM   21  C   UNK A   0     -11.163  14.453  65.485  1.00  0.00    -0.330 C  
BRANCH  21  22
HETATM   22  C   UNK A   0     -10.193  15.539  65.899  1.00  0.00    -0.367 A  
HETATM   23  C   UNK A   0      -9.639  17.891  66.167  1.00  0.00    -0.192 A  
HETATM   24  C   UNK A   0      -8.396  17.560  66.707  1.00  0.00    -0.251 A  
HETATM   25  C   UNK A   0     -10.533  16.894  65.762  1.00  0.00    -0.279 A  
HETATM   26  H   UNK A   0      -9.325  21.273  66.483  1.00  0.00     0.000 HD 
HETATM   27  C   UNK A   0      -8.041  16.217  66.820  1.00  0.00    -0.299 A  
HETATM   28  C   UNK A   0      -7.028  20.958  67.533  1.00  0.00    -0.406 C  
HETATM   29  N   UNK A   0      -7.535  18.588  67.091  1.00  0.00    -0.219 NA 
HETATM   30  N   UNK A   0      -9.091  20.281  66.518  1.00  0.00    -0.555 N  
HETATM   31  C   UNK A   0      -8.936  15.216  66.426  1.00  0.00    -0.314 A  
HETATM   32  C   UNK A   0      -9.977  19.333  66.044  1.00  0.00    -0.337 C  
HETATM   33  O   UNK A   0     -11.045  19.633  65.519  1.00  0.00    -0.372 OA 
HETATM   34  C   UNK A   0      -7.958  19.888  67.007  1.00  0.00    -0.301 C  
ENDBRANCH  21  22
ENDBRANCH   2  21
TORSDOF 7
ENDMDL
MODEL       69
REMARK 921   NORMALIZED FREE ENERGY PREDICTED BY IDOCK:   -6.41 KCAL/MOL
REMARK 922        TOTAL FREE ENERGY PREDICTED BY IDOCK:  -10.16 KCAL/MOL
REMARK 923 INTER-LIGAND FREE ENERGY PREDICTED BY IDOCK:   -9.22 KCAL/MOL
REMARK 924 INTRA-LIGAND FREE ENERGY PREDICTED BY IDOCK:   -0.94 KCAL/MOL
REMARK 927      BINDING AFFINITY PREDICTED BY RF-SCORE:    0.00 PKD
ROOT
HETATM    1  C   UNK A   0      -9.297   6.671  71.591  1.00  0.00    -0.149 C  
HETATM    2  N   UNK A   0      -9.764   7.180  70.305  1.00  0.00    -0.176 NA 
ENDROOT
BRANCH   2   3
HETATM    3  C   UNK A   0      -9.079   8.217  69.728  1.00  0.00    -0.147 A  
HETATM    4  C   UNK A   0      -7.847  10.184  69.416  1.00  0.00    -0.150 A  
HETATM    5  C   UNK A   0      -8.188   9.109  70.297  1.00  0.00    -0.170 A  
HETATM    6  S   UNK A   0      -9.247   8.553  68.055  1.00  0.00    -0.136 SA 
HETATM    7  C   UNK A   0      -8.440  10.048  68.176  1.00  0.00    -0.114 A  
BRANCH   7   8
HETATM    8  C   UNK A   0      -8.467  10.998  67.078  1.00  0.00    -0.141 C  
HETATM    9  O   UNK A   0      -7.853  10.837  66.029  1.00  0.00    -0.156 OA 
ATOM     10  N   GLU A   1      -9.208  12.147  67.314  1.00  0.00    -0.180 N  
ATOM     11  H   GLU A   1      -9.676  12.263  68.213  1.00  0.00     0.000 HD 
BRANCH  10  12
ATOM     12  CA  GLU A   1      -9.332  13.198  66.301  1.00  0.00    -0.127 C  
ATOM     13  C   GLU A   1      -9.180  14.580  66.963  1.00  0.00    -0.240 C  
ATOM     14  O   GLU A   1      -9.507  14.596  68.278  1.00  0.00    -0.198 OA 
ATOM     15  OXT GLU A   1      -8.934  15.608  66.346  1.00  0.00    -0.275 OA 
BRANCH  12  16
ATOM     16  CB  GLU A   1     -10.697  13.082  65.612  1.00  0.00    -0.293 C  
BRANCH  16  17
ATOM     17  CG  GLU A   1     -10.831  14.015  64.409  1.00  0.00    -0.265 C  
ATOM     18  CD  GLU A   1     -12.056  14.888  64.501  1.00  0.00    -0.407 C  
ATOM     19  OE2 GLU A   1     -13.084  14.576  65.076  1.00  0.00    -0.530 OA 
ATOM     20  OE1 GLU A   1     -11.914  16.059  63.840  1.00  0.00    -0.855 OA 
ENDBRANCH  16  17
ENDBRANCH  12  16
ENDBRANCH  10  12
ENDBRANCH   7   8
ENDBRANCH   2   3
BRANCH   2  21
HETATM   21  C   UNK A   0     -11.229   7.189  70.121  1.00  0.00    -0.262 C  
BRANCH  21  22
HETATM   22  C   UNK A   0     -11.854   8.425  70.730  1.00  0.00    -0.178 A  
HETATM   23  C   UNK A   0     -12.246  10.823  70.716  1.00  0.00    -0.480 A  
HETATM   24  C   UNK A   0     -13.053  10.722  71.849  1.00  0.00    -0.451 A  
HETATM   25  C   UNK A   0     -11.647   9.690  70.159  1.00  0.00    -0.193 A  
HETATM   26  H   UNK A   0     -12.633  14.181  70.251  1.00  0.00     0.000 HD 
HETATM   27  C   UNK A   0     -13.241   9.472  72.439  1.00  0.00    -0.451 A  
HETATM   28  C   UNK A   0     -14.176  14.279  72.274  1.00  0.00    -0.587 C  
HETATM   29  N   UNK A   0     -13.625  11.880  72.375  1.00  0.00    -0.470 NA 
HETATM   30  N   UNK A   0     -12.718  13.255  70.670  1.00  0.00    -0.210 N  
HETATM   31  C   UNK A   0     -12.651   8.333  71.878  1.00  0.00    -0.379 A  
HETATM   32  C   UNK A   0     -12.053  12.174  70.126  1.00  0.00    -0.290 C  
HETATM   33  O   UNK A   0     -11.301  12.280  69.162  1.00  0.00    -0.248 OA 
HETATM   34  C   UNK A   0     -13.450  13.073  71.723  1.00  0.00    -0.314 C  
ENDBRANCH  21  22
ENDBRANCH   2  21
TORSDOF 7
ENDMDL
MODEL       70
REMARK 921   NORMALIZED FREE ENERGY PREDICTED BY IDOCK:   -6.40 KCAL/MOL
REMARK 922        TOTAL FREE ENERGY PREDICTED BY IDOCK:  -10.15 KCAL/MOL
REMARK 923 INTER-LIGAND FREE ENERGY PREDICTED BY IDOCK:   -8.82 KCAL/MOL
REMARK 924 INTRA-LIGAND FREE ENERGY PREDICTED BY IDOCK:   -1.33 KCAL/MOL
REMARK 927      BINDING AFFINITY PREDICTED BY RF-SCORE:    0.00 PKD
ROOT
HETATM    1  C   UNK A   0     -10.584  11.185  63.999  1.00  0.00    -0.368 C  
HETATM    2  N   UNK A   0     -10.886  11.622  65.358  1.00  0.00    -0.289 NA 
ENDROOT
BRANCH   2   3
HETATM    3  C   UNK A   0     -10.762  10.713  66.377  1.00  0.00    -0.129 A  
HETATM    4  C   UNK A   0     -10.750   9.718  68.497  1.00  0.00    -0.252 A  
HETATM    5  C   UNK A   0     -11.279  10.751  67.659  1.00  0.00    -0.370 A  
HETATM    6  S   UNK A   0      -9.877   9.262  66.151  1.00  0.00    -0.276 SA 
HETATM    7  C   UNK A   0      -9.891   8.883  67.812  1.00  0.00    -0.166 A  
BRANCH   7   8
HETATM    8  C   UNK A   0      -9.042   7.829  68.339  1.00  0.00    -0.131 C  
HETATM    9  O   UNK A   0      -7.929   8.030  68.813  1.00  0.00    -0.115 OA 
ATOM     10  N   GLU A   1      -9.560   6.547  68.227  1.00  0.00    -0.131 N  
ATOM     11  H   GLU A   1     -10.474   6.414  67.795  1.00  0.00     0.000 HD 
BRANCH  10  12
ATOM     12  CA  GLU A   1      -8.822   5.379  68.716  1.00  0.00    -0.103 C  
ATOM     13  C   GLU A   1      -8.342   4.530  67.524  1.00  0.00    -0.100 C  
ATOM     14  O   GLU A   1      -9.096   4.679  66.407  1.00  0.00    -0.115 OA 
ATOM     15  OXT GLU A   1      -7.460   3.685  67.600  1.00  0.00    -0.065 OA 
BRANCH  12  16
ATOM     16  CB  GLU A   1      -9.730   4.550  69.632  1.00  0.00    -0.288 C  
BRANCH  16  17
ATOM     17  CG  GLU A   1      -9.854   5.146  71.034  1.00  0.00    -0.261 C  
ATOM     18  CD  GLU A   1     -11.158   5.877  71.227  1.00  0.00    -0.241 C  
ATOM     19  OE2 GLU A   1     -11.778   6.428  70.335  1.00  0.00    -0.396 OA 
ATOM     20  OE1 GLU A   1     -11.561   5.893  72.517  1.00  0.00    -0.302 OA 
ENDBRANCH  16  17
ENDBRANCH  12  16
ENDBRANCH  10  12
ENDBRANCH   7   8
ENDBRANCH   2   3
BRANCH   2  21
HETATM   21  C   UNK A   0     -11.997  12.586  65.482  1.00  0.00    -0.442 C  
BRANCH  21  22
HETATM   22  C   UNK A   0     -11.498  13.953  65.896  1.00  0.00    -0.328 A  
HETATM   23  C   UNK A   0     -11.202  15.676  67.585  1.00  0.00    -0.274 A  
HETATM   24  C   UNK A   0     -10.532  16.489  66.671  1.00  0.00    -0.266 A  
HETATM   25  C   UNK A   0     -11.685  14.420  67.206  1.00  0.00    -0.429 A  
HETATM   26  H   UNK A   0     -10.895  17.756  70.272  1.00  0.00     0.000 HD 
HETATM   27  C   UNK A   0     -10.366  16.045  65.360  1.00  0.00    -0.386 A  
HETATM   28  C   UNK A   0      -9.609  19.416  68.834  1.00  0.00    -0.477 C  
HETATM   29  N   UNK A   0     -10.073  17.737  67.092  1.00  0.00    -0.324 NA 
HETATM   30  N   UNK A   0     -10.825  17.408  69.316  1.00  0.00    -0.296 N  
HETATM   31  C   UNK A   0     -10.840  14.784  64.979  1.00  0.00    -0.440 A  
HETATM   32  C   UNK A   0     -11.377  16.190  68.968  1.00  0.00    -0.340 C  
HETATM   33  O   UNK A   0     -12.013  15.505  69.763  1.00  0.00    -0.333 OA 
HETATM   34  C   UNK A   0     -10.215  18.100  68.405  1.00  0.00    -0.387 C  
ENDBRANCH  21  22
ENDBRANCH   2  21
TORSDOF 7
ENDMDL
MODEL       71
REMARK 921   NORMALIZED FREE ENERGY PREDICTED BY IDOCK:   -6.40 KCAL/MOL
REMARK 922        TOTAL FREE ENERGY PREDICTED BY IDOCK:  -10.14 KCAL/MOL
REMARK 923 INTER-LIGAND FREE ENERGY PREDICTED BY IDOCK:  -10.15 KCAL/MOL
REMARK 924 INTRA-LIGAND FREE ENERGY PREDICTED BY IDOCK:    0.00 KCAL/MOL
REMARK 927      BINDING AFFINITY PREDICTED BY RF-SCORE:    0.00 PKD
ROOT
HETATM    1  C   UNK A   0     -11.902  14.274  67.547  1.00  0.00    -0.395 C  
HETATM    2  N   UNK A   0     -11.313  15.325  68.371  1.00  0.00    -0.313 NA 
ENDROOT
BRANCH   2   3
HETATM    3  C   UNK A   0      -9.956  15.505  68.323  1.00  0.00    -0.213 A  
HETATM    4  C   UNK A   0      -7.656  15.287  68.707  1.00  0.00    -0.139 A  
HETATM    5  C   UNK A   0      -8.939  14.654  68.717  1.00  0.00    -0.173 A  
HETATM    6  S   UNK A   0      -9.287  16.950  67.684  1.00  0.00    -0.235 SA 
HETATM    7  C   UNK A   0      -7.721  16.587  68.247  1.00  0.00    -0.176 A  
BRANCH   7   8
HETATM    8  C   UNK A   0      -6.677  17.596  68.238  1.00  0.00    -0.200 C  
HETATM    9  O   UNK A   0      -5.482  17.333  68.153  1.00  0.00    -0.122 OA 
ATOM     10  N   GLU A   1      -7.122  18.902  68.384  1.00  0.00    -0.259 N  
ATOM     11  H   GLU A   1      -8.121  19.080  68.489  1.00  0.00     0.000 HD 
BRANCH  10  12
ATOM     12  CA  GLU A   1      -6.188  20.032  68.393  1.00  0.00    -0.272 C  
ATOM     13  C   GLU A   1      -6.047  20.580  69.824  1.00  0.00    -0.263 C  
ATOM     14  O   GLU A   1      -7.121  20.333  70.614  1.00  0.00    -0.041 OA 
ATOM     15  OXT GLU A   1      -5.128  21.301  70.191  1.00  0.00    -0.533 OA 
BRANCH  12  16
ATOM     16  CB  GLU A   1      -6.703  21.125  67.449  1.00  0.00    -0.429 C  
BRANCH  16  17
ATOM     17  CG  GLU A   1      -5.929  21.178  66.132  1.00  0.00    -0.320 C  
ATOM     18  CD  GLU A   1      -6.597  20.372  65.048  1.00  0.00    -0.294 C  
ATOM     19  OE2 GLU A   1      -7.284  19.387  65.244  1.00  0.00    -0.427 OA 
ATOM     20  OE1 GLU A   1      -6.323  20.838  63.808  1.00  0.00    -0.286 OA 
ENDBRANCH  16  17
ENDBRANCH  12  16
ENDBRANCH  10  12
ENDBRANCH   7   8
ENDBRANCH   2   3
BRANCH   2  21
HETATM   21  C   UNK A   0     -11.948  15.528  69.688  1.00  0.00    -0.359 C  
BRANCH  21  22
HETATM   22  C   UNK A   0     -12.322  14.209  70.330  1.00  0.00    -0.421 A  
HETATM   23  C   UNK A   0     -12.218  11.781  70.391  1.00  0.00    -0.416 A  
HETATM   24  C   UNK A   0     -12.992  11.754  71.551  1.00  0.00    -0.341 A  
HETATM   25  C   UNK A   0     -11.884  12.994  69.780  1.00  0.00    -0.381 A  
HETATM   26  H   UNK A   0     -11.711   8.415  70.172  1.00  0.00     0.000 HD 
HETATM   27  C   UNK A   0     -13.454  12.955  72.087  1.00  0.00    -0.619 A  
HETATM   28  C   UNK A   0     -13.064   8.076  72.301  1.00  0.00    -0.149 C  
HETATM   29  N   UNK A   0     -13.305  10.521  72.123  1.00  0.00    -0.569 NA 
HETATM   30  N   UNK A   0     -12.056   9.312  70.512  1.00  0.00    -0.478 N  
HETATM   31  C   UNK A   0     -13.115  14.172  71.484  1.00  0.00    -0.424 A  
HETATM   32  C   UNK A   0     -11.759  10.480  69.838  1.00  0.00    -0.294 C  
HETATM   33  O   UNK A   0     -11.124  10.492  68.788  1.00  0.00    -0.234 OA 
HETATM   34  C   UNK A   0     -12.780   9.376  71.584  1.00  0.00    -0.374 C  
ENDBRANCH  21  22
ENDBRANCH   2  21
TORSDOF 7
ENDMDL
MODEL       72
REMARK 921   NORMALIZED FREE ENERGY PREDICTED BY IDOCK:   -6.39 KCAL/MOL
REMARK 922        TOTAL FREE ENERGY PREDICTED BY IDOCK:  -10.14 KCAL/MOL
REMARK 923 INTER-LIGAND FREE ENERGY PREDICTED BY IDOCK:   -9.23 KCAL/MOL
REMARK 924 INTRA-LIGAND FREE ENERGY PREDICTED BY IDOCK:   -0.91 KCAL/MOL
REMARK 927      BINDING AFFINITY PREDICTED BY RF-SCORE:    0.00 PKD
ROOT
HETATM    1  C   UNK A   0     -11.358  14.816  65.518  1.00  0.00    -0.343 C  
HETATM    2  N   UNK A   0     -10.901  14.482  66.864  1.00  0.00    -0.299 NA 
ENDROOT
BRANCH   2   3
HETATM    3  C   UNK A   0     -10.825  13.160  67.216  1.00  0.00    -0.257 A  
HETATM    4  C   UNK A   0     -11.391  10.945  67.726  1.00  0.00    -0.366 A  
HETATM    5  C   UNK A   0     -11.744  12.144  67.028  1.00  0.00    -0.373 A  
HETATM    6  S   UNK A   0      -9.427  12.541  67.994  1.00  0.00    -0.211 SA 
HETATM    7  C   UNK A   0     -10.179  11.062  68.378  1.00  0.00    -0.185 A  
BRANCH   7   8
HETATM    8  C   UNK A   0      -9.562  10.136  69.311  1.00  0.00    -0.225 C  
HETATM    9  O   UNK A   0      -8.363  10.132  69.567  1.00  0.00    -0.154 OA 
ATOM     10  N   GLU A   1     -10.424   9.203  69.870  1.00  0.00    -0.214 N  
ATOM     11  H   GLU A   1     -11.409   9.214  69.606  1.00  0.00     0.000 HD 
BRANCH  10  12
ATOM     12  CA  GLU A   1      -9.950   8.203  70.830  1.00  0.00    -0.187 C  
ATOM     13  C   GLU A   1     -10.426   6.803  70.402  1.00  0.00    -0.206 C  
ATOM     14  O   GLU A   1     -11.548   6.815  69.640  1.00  0.00    -0.266 OA 
ATOM     15  OXT GLU A   1      -9.941   5.760  70.821  1.00  0.00    -0.179 OA 
BRANCH  12  16
ATOM     16  CB  GLU A   1     -10.482   8.546  72.227  1.00  0.00    -0.402 C  
BRANCH  16  17
ATOM     17  CG  GLU A   1     -11.952   8.166  72.406  1.00  0.00    -0.431 C  
ATOM     18  CD  GLU A   1     -12.881   9.201  71.827  1.00  0.00    -0.377 C  
ATOM     19  OE2 GLU A   1     -12.625  10.388  71.741  1.00  0.00    -0.408 OA 
ATOM     20  OE1 GLU A   1     -14.066   8.678  71.436  1.00  0.00    -0.370 OA 
ENDBRANCH  16  17
ENDBRANCH  12  16
ENDBRANCH  10  12
ENDBRANCH   7   8
ENDBRANCH   2   3
BRANCH   2  21
HETATM   21  C   UNK A   0     -11.330  15.412  67.927  1.00  0.00    -0.325 C  
BRANCH  21  22
HETATM   22  C   UNK A   0     -10.382  16.586  68.049  1.00  0.00    -0.294 A  
HETATM   23  C   UNK A   0      -8.204  17.496  68.631  1.00  0.00    -0.265 A  
HETATM   24  C   UNK A   0      -8.607  18.772  68.237  1.00  0.00    -0.327 A  
HETATM   25  C   UNK A   0      -9.080  16.409  68.541  1.00  0.00    -0.223 A  
HETATM   26  H   UNK A   0      -4.997  18.322  69.448  1.00  0.00     0.000 HD 
HETATM   27  C   UNK A   0      -9.907  18.961  67.773  1.00  0.00    -0.389 A  
HETATM   28  C   UNK A   0      -5.449  20.733  68.766  1.00  0.00    -0.375 C  
HETATM   29  N   UNK A   0      -7.701  19.827  68.349  1.00  0.00    -0.322 NA 
HETATM   30  N   UNK A   0      -5.966  18.423  69.146  1.00  0.00    -0.219 N  
HETATM   31  C   UNK A   0     -10.784  17.874  67.673  1.00  0.00    -0.343 A  
HETATM   32  C   UNK A   0      -6.816  17.336  69.138  1.00  0.00    -0.234 C  
HETATM   33  O   UNK A   0      -6.472  16.227  69.538  1.00  0.00    -0.186 OA 
HETATM   34  C   UNK A   0      -6.420  19.574  68.762  1.00  0.00    -0.272 C  
ENDBRANCH  21  22
ENDBRANCH   2  21
TORSDOF 7
ENDMDL
MODEL       73
REMARK 921   NORMALIZED FREE ENERGY PREDICTED BY IDOCK:   -6.38 KCAL/MOL
REMARK 922        TOTAL FREE ENERGY PREDICTED BY IDOCK:  -10.11 KCAL/MOL
REMARK 923 INTER-LIGAND FREE ENERGY PREDICTED BY IDOCK:   -8.93 KCAL/MOL
REMARK 924 INTRA-LIGAND FREE ENERGY PREDICTED BY IDOCK:   -1.18 KCAL/MOL
REMARK 927      BINDING AFFINITY PREDICTED BY RF-SCORE:    0.00 PKD
ROOT
HETATM    1  C   UNK A   0      -8.685   9.571  63.503  1.00  0.00    -0.220 C  
HETATM    2  N   UNK A   0      -9.282  10.067  64.739  1.00  0.00    -0.228 NA 
ENDROOT
BRANCH   2   3
HETATM    3  C   UNK A   0     -10.016  11.224  64.689  1.00  0.00    -0.281 A  
HETATM    4  C   UNK A   0     -11.298  13.028  63.923  1.00  0.00    -0.460 A  
HETATM    5  C   UNK A   0     -10.890  11.671  63.716  1.00  0.00    -0.493 A  
HETATM    6  S   UNK A   0      -9.943  12.361  65.971  1.00  0.00    -0.255 SA 
HETATM    7  C   UNK A   0     -10.770  13.557  65.084  1.00  0.00    -0.341 A  
BRANCH   7   8
HETATM    8  C   UNK A   0     -10.818  14.930  65.555  1.00  0.00    -0.356 C  
HETATM    9  O   UNK A   0     -10.873  15.901  64.807  1.00  0.00    -0.533 OA 
ATOM     10  N   GLU A   1     -10.747  15.081  66.932  1.00  0.00    -0.302 N  
ATOM     11  H   GLU A   1     -10.666  14.252  67.521  1.00  0.00     0.000 HD 
BRANCH  10  12
ATOM     12  CA  GLU A   1     -10.786  16.405  67.560  1.00  0.00    -0.298 C  
ATOM     13  C   GLU A   1      -9.362  16.832  67.962  1.00  0.00    -0.229 C  
ATOM     14  O   GLU A   1      -8.518  15.793  68.174  1.00  0.00    -0.158 OA 
ATOM     15  OXT GLU A   1      -9.043  17.986  68.217  1.00  0.00    -0.265 OA 
BRANCH  12  16
ATOM     16  CB  GLU A   1     -11.699  16.358  68.790  1.00  0.00    -0.037 C  
BRANCH  16  17
ATOM     17  CG  GLU A   1     -11.608  15.030  69.541  1.00  0.00    -0.337 C  
ATOM     18  CD  GLU A   1     -12.737  14.856  70.525  1.00  0.00    -0.347 C  
ATOM     19  OE2 GLU A   1     -13.307  15.772  71.089  1.00  0.00    -0.564 OA 
ATOM     20  OE1 GLU A   1     -13.035  13.557  70.752  1.00  0.00    -0.215 OA 
ENDBRANCH  16  17
ENDBRANCH  12  16
ENDBRANCH  10  12
ENDBRANCH   7   8
ENDBRANCH   2   3
BRANCH   2  21
HETATM   21  C   UNK A   0      -8.476   9.863  65.958  1.00  0.00    -0.129 C  
BRANCH  21  22
HETATM   22  C   UNK A   0      -9.198   8.986  66.958  1.00  0.00    -0.169 A  
HETATM   23  C   UNK A   0      -9.760   8.413  69.252  1.00  0.00    -0.177 A  
HETATM   24  C   UNK A   0     -10.578   7.370  68.816  1.00  0.00    -0.168 A  
HETATM   25  C   UNK A   0      -9.073   9.215  68.337  1.00  0.00    -0.132 A  
HETATM   26  H   UNK A   0     -10.379   8.037  72.586  1.00  0.00     0.000 HD 
HETATM   27  C   UNK A   0     -10.686   7.119  67.449  1.00  0.00    -0.368 A  
HETATM   28  C   UNK A   0     -11.960   6.109  72.071  1.00  0.00    -0.310 C  
HETATM   29  N   UNK A   0     -11.240   6.592  69.765  1.00  0.00    -0.396 NA 
HETATM   30  N   UNK A   0     -10.404   7.866  71.581  1.00  0.00    -0.200 N  
HETATM   31  C   UNK A   0     -10.007   7.926  66.528  1.00  0.00    -0.267 A  
HETATM   32  C   UNK A   0      -9.655   8.640  70.717  1.00  0.00    -0.188 C  
HETATM   33  O   UNK A   0      -8.895   9.519  71.112  1.00  0.00    -0.249 OA 
HETATM   34  C   UNK A   0     -11.140   6.918  71.092  1.00  0.00    -0.260 C  
ENDBRANCH  21  22
ENDBRANCH   2  21
TORSDOF 7
ENDMDL
MODEL       74
REMARK 921   NORMALIZED FREE ENERGY PREDICTED BY IDOCK:   -6.36 KCAL/MOL
REMARK 922        TOTAL FREE ENERGY PREDICTED BY IDOCK:  -10.09 KCAL/MOL
REMARK 923 INTER-LIGAND FREE ENERGY PREDICTED BY IDOCK:   -9.50 KCAL/MOL
REMARK 924 INTRA-LIGAND FREE ENERGY PREDICTED BY IDOCK:   -0.60 KCAL/MOL
REMARK 927      BINDING AFFINITY PREDICTED BY RF-SCORE:    0.00 PKD
ROOT
HETATM    1  C   UNK A   0     -11.402   5.482  72.545  1.00  0.00    -0.265 C  
HETATM    2  N   UNK A   0     -10.415   6.534  72.325  1.00  0.00    -0.199 NA 
ENDROOT
BRANCH   2   3
HETATM    3  C   UNK A   0     -10.856   7.765  71.912  1.00  0.00    -0.235 A  
HETATM    4  C   UNK A   0     -12.227   9.530  71.214  1.00  0.00    -0.433 A  
HETATM    5  C   UNK A   0     -12.134   8.294  71.929  1.00  0.00    -0.382 A  
HETATM    6  S   UNK A   0      -9.758   8.920  71.279  1.00  0.00    -0.303 SA 
HETATM    7  C   UNK A   0     -11.004   9.940  70.723  1.00  0.00    -0.337 A  
BRANCH   7   8
HETATM    8  C   UNK A   0     -10.714  11.043  69.823  1.00  0.00    -0.078 C  
HETATM    9  O   UNK A   0      -9.787  11.035  69.021  1.00  0.00    -0.200 OA 
ATOM     10  N   GLU A   1     -11.540  12.149  69.965  1.00  0.00    -0.515 N  
ATOM     11  H   GLU A   1     -12.279  12.133  70.668  1.00  0.00     0.000 HD 
BRANCH  10  12
ATOM     12  CA  GLU A   1     -11.374  13.339  69.127  1.00  0.00    -0.282 C  
ATOM     13  C   GLU A   1     -11.953  14.570  69.849  1.00  0.00    -0.328 C  
ATOM     14  O   GLU A   1     -12.918  14.269  70.754  1.00  0.00    -0.344 OA 
ATOM     15  OXT GLU A   1     -11.691  15.725  69.545  1.00  0.00    -0.340 OA 
BRANCH  12  16
ATOM     16  CB  GLU A   1     -12.084  13.121  67.786  1.00  0.00    -0.262 C  
BRANCH  16  17
ATOM     17  CG  GLU A   1     -11.213  13.502  66.589  1.00  0.00    -0.328 C  
ATOM     18  CD  GLU A   1     -12.000  14.212  65.518  1.00  0.00    -0.391 C  
ATOM     19  OE2 GLU A   1     -13.187  14.041  65.306  1.00  0.00    -0.782 OA 
ATOM     20  OE1 GLU A   1     -11.237  15.047  64.777  1.00  0.00    -0.390 OA 
ENDBRANCH  16  17
ENDBRANCH  12  16
ENDBRANCH  10  12
ENDBRANCH   7   8
ENDBRANCH   2   3
BRANCH   2  21
HETATM   21  C   UNK A   0      -9.125   6.087  71.764  1.00  0.00    -0.145 C  
BRANCH  21  22
HETATM   22  C   UNK A   0      -9.316   5.378  70.440  1.00  0.00    -0.203 A  
HETATM   23  C   UNK A   0     -10.040   5.389  68.120  1.00  0.00    -0.220 A  
HETATM   24  C   UNK A   0      -9.634   4.064  67.963  1.00  0.00    -0.136 A  
HETATM   25  C   UNK A   0      -9.887   6.045  69.345  1.00  0.00    -0.203 A  
HETATM   26  H   UNK A   0     -11.063   5.877  64.902  1.00  0.00     0.000 HD 
HETATM   27  C   UNK A   0      -9.091   3.386  69.054  1.00  0.00    -0.205 A  
HETATM   28  C   UNK A   0     -10.376   3.494  64.327  1.00  0.00    -0.191 C  
HETATM   29  N   UNK A   0      -9.811   3.448  66.724  1.00  0.00    -0.373 NA 
HETATM   30  N   UNK A   0     -10.702   5.408  65.733  1.00  0.00    -0.562 N  
HETATM   31  C   UNK A   0      -8.927   4.042  70.279  1.00  0.00    -0.158 A  
HETATM   32  C   UNK A   0     -10.632   6.073  66.941  1.00  0.00    -0.315 C  
HETATM   33  O   UNK A   0     -11.042   7.221  67.086  1.00  0.00    -0.295 OA 
HETATM   34  C   UNK A   0     -10.301   4.178  65.673  1.00  0.00    -0.097 C  
ENDBRANCH  21  22
ENDBRANCH   2  21
TORSDOF 7
ENDMDL
MODEL       75
REMARK 921   NORMALIZED FREE ENERGY PREDICTED BY IDOCK:   -6.36 KCAL/MOL
REMARK 922        TOTAL FREE ENERGY PREDICTED BY IDOCK:  -10.09 KCAL/MOL
REMARK 923 INTER-LIGAND FREE ENERGY PREDICTED BY IDOCK:   -8.51 KCAL/MOL
REMARK 924 INTRA-LIGAND FREE ENERGY PREDICTED BY IDOCK:   -1.58 KCAL/MOL
REMARK 927      BINDING AFFINITY PREDICTED BY RF-SCORE:    0.00 PKD
ROOT
HETATM    1  C   UNK A   0      -6.487   8.260  65.553  1.00  0.00    -0.049 C  
HETATM    2  N   UNK A   0      -7.698   8.859  66.105  1.00  0.00    -0.097 NA 
ENDROOT
BRANCH   2   3
HETATM    3  C   UNK A   0      -8.635   8.033  66.669  1.00  0.00    -0.136 A  
HETATM    4  C   UNK A   0     -10.547   6.725  67.010  1.00  0.00    -0.405 A  
HETATM    5  C   UNK A   0      -9.638   7.297  66.064  1.00  0.00     0.084 A  
HETATM    6  S   UNK A   0      -8.663   7.769  68.363  1.00  0.00    -0.126 SA 
HETATM    7  C   UNK A   0     -10.177   6.990  68.313  1.00  0.00    -0.182 A  
BRANCH   7   8
HETATM    8  C   UNK A   0     -10.915   6.724  69.535  1.00  0.00    -0.279 C  
HETATM    9  O   UNK A   0     -11.156   5.595  69.948  1.00  0.00    -0.321 OA 
ATOM     10  N   GLU A   1     -11.383   7.851  70.195  1.00  0.00    -0.447 N  
ATOM     11  H   GLU A   1     -11.194   8.773  69.804  1.00  0.00     0.000 HD 
BRANCH  10  12
ATOM     12  CA  GLU A   1     -12.144   7.744  71.444  1.00  0.00    -0.311 C  
ATOM     13  C   GLU A   1     -13.033   8.989  71.619  1.00  0.00    -0.361 C  
ATOM     14  O   GLU A   1     -12.572  10.087  70.972  1.00  0.00    -0.326 OA 
ATOM     15  OXT GLU A   1     -13.986   9.044  72.385  1.00  0.00    -0.465 OA 
BRANCH  12  16
ATOM     16  CB  GLU A   1     -11.172   7.610  72.622  1.00  0.00    -0.419 C  
BRANCH  16  17
ATOM     17  CG  GLU A   1     -10.035   8.631  72.567  1.00  0.00    -0.257 C  
ATOM     18  CD  GLU A   1      -8.734   8.007  72.133  1.00  0.00    -0.157 C  
ATOM     19  OE2 GLU A   1      -8.425   6.846  72.331  1.00  0.00    -0.115 OA 
ATOM     20  OE1 GLU A   1      -7.911   8.890  71.522  1.00  0.00    -0.232 OA 
ENDBRANCH  16  17
ENDBRANCH  12  16
ENDBRANCH  10  12
ENDBRANCH   7   8
ENDBRANCH   2   3
BRANCH   2  21
HETATM   21  C   UNK A   0      -8.223  10.024  65.366  1.00  0.00    -0.149 C  
BRANCH  21  22
HETATM   22  C   UNK A   0      -8.721  11.098  66.309  1.00  0.00    -0.183 A  
HETATM   23  C   UNK A   0     -10.454  12.640  67.032  1.00  0.00    -0.244 A  
HETATM   24  C   UNK A   0      -9.659  13.073  68.093  1.00  0.00    -0.227 A  
HETATM   25  C   UNK A   0      -9.994  11.664  66.144  1.00  0.00    -0.252 A  
HETATM   26  H   UNK A   0     -13.180  14.555  67.770  1.00  0.00     0.000 HD 
HETATM   27  C   UNK A   0      -8.382  12.536  68.247  1.00  0.00    -0.167 A  
HETATM   28  C   UNK A   0     -11.966  15.492  69.802  1.00  0.00    -0.384 C  
HETATM   29  N   UNK A   0     -10.157  14.054  68.951  1.00  0.00    -0.383 NA 
HETATM   30  N   UNK A   0     -12.241  14.161  67.828  1.00  0.00    -0.569 N  
HETATM   31  C   UNK A   0      -7.921  11.551  67.366  1.00  0.00    -0.143 A  
HETATM   32  C   UNK A   0     -11.803  13.249  66.888  1.00  0.00    -0.392 C  
HETATM   33  O   UNK A   0     -12.487  12.914  65.926  1.00  0.00    -0.527 OA 
HETATM   34  C   UNK A   0     -11.438  14.508  68.784  1.00  0.00    -0.294 C  
ENDBRANCH  21  22
ENDBRANCH   2  21
TORSDOF 7
ENDMDL
MODEL       76
REMARK 921   NORMALIZED FREE ENERGY PREDICTED BY IDOCK:   -6.36 KCAL/MOL
REMARK 922        TOTAL FREE ENERGY PREDICTED BY IDOCK:  -10.09 KCAL/MOL
REMARK 923 INTER-LIGAND FREE ENERGY PREDICTED BY IDOCK:   -8.63 KCAL/MOL
REMARK 924 INTRA-LIGAND FREE ENERGY PREDICTED BY IDOCK:   -1.46 KCAL/MOL
REMARK 927      BINDING AFFINITY PREDICTED BY RF-SCORE:    0.00 PKD
ROOT
HETATM    1  C   UNK A   0      -6.019   6.371  66.714  1.00  0.00    -0.025 C  
HETATM    2  N   UNK A   0      -7.251   6.741  67.405  1.00  0.00    -0.087 NA 
ENDROOT
BRANCH   2   3
HETATM    3  C   UNK A   0      -7.710   8.026  67.274  1.00  0.00    -0.101 A  
HETATM    4  C   UNK A   0      -8.059  10.319  67.596  1.00  0.00    -0.106 A  
HETATM    5  C   UNK A   0      -7.174   9.206  67.757  1.00  0.00    -0.080 A  
HETATM    6  S   UNK A   0      -9.139   8.358  66.387  1.00  0.00    -0.199 SA 
HETATM    7  C   UNK A   0      -9.221   9.968  66.938  1.00  0.00    -0.147 A  
BRANCH   7   8
HETATM    8  C   UNK A   0     -10.416  10.765  66.726  1.00  0.00    -0.251 C  
HETATM    9  O   UNK A   0     -11.472  10.573  67.321  1.00  0.00    -0.366 OA 
ATOM     10  N   GLU A   1     -10.302  11.747  65.753  1.00  0.00    -0.244 N  
ATOM     11  H   GLU A   1      -9.419  11.855  65.254  1.00  0.00     0.000 HD 
BRANCH  10  12
ATOM     12  CA  GLU A   1     -11.423  12.634  65.427  1.00  0.00    -0.338 C  
ATOM     13  C   GLU A   1     -11.559  12.760  63.898  1.00  0.00    -0.452 C  
ATOM     14  O   GLU A   1     -10.405  12.532  63.225  1.00  0.00    -0.344 OA 
ATOM     15  OXT GLU A   1     -12.565  13.171  63.335  1.00  0.00    -0.722 OA 
BRANCH  12  16
ATOM     16  CB  GLU A   1     -11.183  14.010  66.059  1.00  0.00    -0.310 C  
BRANCH  16  17
ATOM     17  CG  GLU A   1     -11.854  14.157  67.424  1.00  0.00    -0.447 C  
ATOM     18  CD  GLU A   1     -10.869  14.033  68.557  1.00  0.00    -0.254 C  
ATOM     19  OE2 GLU A   1      -9.846  13.375  68.513  1.00  0.00    -0.230 OA 
ATOM     20  OE1 GLU A   1     -11.257  14.709  69.663  1.00  0.00    -0.260 OA 
ENDBRANCH  16  17
ENDBRANCH  12  16
ENDBRANCH  10  12
ENDBRANCH   7   8
ENDBRANCH   2   3
BRANCH   2  21
HETATM   21  C   UNK A   0      -7.449   6.113  68.726  1.00  0.00    -0.087 C  
BRANCH  21  22
HETATM   22  C   UNK A   0      -8.848   6.358  69.249  1.00  0.00    -0.128 A  
HETATM   23  C   UNK A   0     -10.367   7.465  70.789  1.00  0.00    -0.208 A  
HETATM   24  C   UNK A   0     -11.463   6.839  70.195  1.00  0.00    -0.349 A  
HETATM   25  C   UNK A   0      -9.069   7.230  70.326  1.00  0.00    -0.152 A  
HETATM   26  H   UNK A   0     -12.138   9.313  73.045  1.00  0.00     0.000 HD 
HETATM   27  C   UNK A   0     -11.249   5.950  69.143  1.00  0.00    -0.217 A  
HETATM   28  C   UNK A   0     -14.307   8.346  72.128  1.00  0.00    -0.520 C  
HETATM   29  N   UNK A   0     -12.739   7.100  70.694  1.00  0.00    -0.597 NA 
HETATM   30  N   UNK A   0     -11.935   8.646  72.301  1.00  0.00    -0.375 N  
HETATM   31  C   UNK A   0      -9.952   5.719  68.670  1.00  0.00    -0.201 A  
HETATM   32  C   UNK A   0     -10.632   8.392  71.921  1.00  0.00    -0.300 C  
HETATM   33  O   UNK A   0      -9.670   8.904  72.485  1.00  0.00    -0.206 OA 
HETATM   34  C   UNK A   0     -12.896   8.022  71.695  1.00  0.00    -0.329 C  
ENDBRANCH  21  22
ENDBRANCH   2  21
TORSDOF 7
ENDMDL
MODEL       77
REMARK 921   NORMALIZED FREE ENERGY PREDICTED BY IDOCK:   -6.35 KCAL/MOL
REMARK 922        TOTAL FREE ENERGY PREDICTED BY IDOCK:  -10.08 KCAL/MOL
REMARK 923 INTER-LIGAND FREE ENERGY PREDICTED BY IDOCK:   -9.53 KCAL/MOL
REMARK 924 INTRA-LIGAND FREE ENERGY PREDICTED BY IDOCK:   -0.55 KCAL/MOL
REMARK 927      BINDING AFFINITY PREDICTED BY RF-SCORE:    0.00 PKD
ROOT
HETATM    1  C   UNK A   0     -10.075   6.645  72.655  1.00  0.00    -0.174 C  
HETATM    2  N   UNK A   0     -10.670   6.574  71.324  1.00  0.00    -0.231 NA 
ENDROOT
BRANCH   2   3
HETATM    3  C   UNK A   0      -9.924   6.997  70.255  1.00  0.00    -0.179 A  
HETATM    4  C   UNK A   0      -8.342   8.104  68.929  1.00  0.00    -0.125 A  
HETATM    5  C   UNK A   0      -8.694   7.629  70.233  1.00  0.00    -0.144 A  
HETATM    6  S   UNK A   0     -10.476   6.747  68.650  1.00  0.00    -0.222 SA 
HETATM    7  C   UNK A   0      -9.286   7.765  67.981  1.00  0.00    -0.138 A  
BRANCH   7   8
HETATM    8  C   UNK A   0      -9.369   8.193  66.595  1.00  0.00    -0.197 C  
HETATM    9  O   UNK A   0      -9.125   7.459  65.644  1.00  0.00    -0.040 OA 
ATOM     10  N   GLU A   1      -9.703   9.527  66.412  1.00  0.00    -0.212 N  
ATOM     11  H   GLU A   1      -9.865  10.117  67.229  1.00  0.00     0.000 HD 
BRANCH  10  12
ATOM     12  CA  GLU A   1      -9.828  10.107  65.072  1.00  0.00    -0.322 C  
ATOM     13  C   GLU A   1      -8.429  10.331  64.469  1.00  0.00    -0.179 C  
ATOM     14  O   GLU A   1      -7.452  10.484  65.396  1.00  0.00    -0.145 OA 
ATOM     15  OXT GLU A   1      -8.221  10.508  63.276  1.00  0.00    -0.159 OA 
BRANCH  12  16
ATOM     16  CB  GLU A   1     -10.592  11.434  65.161  1.00  0.00    -0.352 C  
BRANCH  16  17
ATOM     17  CG  GLU A   1     -10.986  11.979  63.789  1.00  0.00    -0.492 C  
ATOM     18  CD  GLU A   1     -12.365  12.589  63.795  1.00  0.00    -0.502 C  
ATOM     19  OE2 GLU A   1     -13.269  12.241  64.532  1.00  0.00    -0.799 OA 
ATOM     20  OE1 GLU A   1     -12.513  13.554  62.860  1.00  0.00    -0.601 OA 
ENDBRANCH  16  17
ENDBRANCH  12  16
ENDBRANCH  10  12
ENDBRANCH   7   8
ENDBRANCH   2   3
BRANCH   2  21
HETATM   21  C   UNK A   0     -12.116   6.864  71.261  1.00  0.00    -0.373 C  
BRANCH  21  22
HETATM   22  C   UNK A   0     -12.387   8.348  71.369  1.00  0.00    -0.328 A  
HETATM   23  C   UNK A   0     -12.053  10.623  70.581  1.00  0.00    -0.461 A  
HETATM   24  C   UNK A   0     -12.926  11.113  71.553  1.00  0.00    -0.437 A  
HETATM   25  C   UNK A   0     -11.780   9.255  70.486  1.00  0.00    -0.225 A  
HETATM   26  H   UNK A   0     -11.403  13.619  69.083  1.00  0.00     0.000 HD 
HETATM   27  C   UNK A   0     -13.511  10.221  72.451  1.00  0.00    -0.094 A  
HETATM   28  C   UNK A   0     -12.976  14.773  70.718  1.00  0.00    -0.407 C  
HETATM   29  N   UNK A   0     -13.164  12.486  71.613  1.00  0.00    -0.365 NA 
HETATM   30  N   UNK A   0     -11.783  12.938  69.740  1.00  0.00    -0.440 N  
HETATM   31  C   UNK A   0     -13.249   8.850  72.353  1.00  0.00    -0.482 A  
HETATM   32  C   UNK A   0     -11.433  11.605  69.653  1.00  0.00    -0.288 C  
HETATM   33  O   UNK A   0     -10.622  11.190  68.831  1.00  0.00    -0.191 OA 
HETATM   34  C   UNK A   0     -12.604  13.309  70.672  1.00  0.00    -0.231 C  
ENDBRANCH  21  22
ENDBRANCH   2  21
TORSDOF 7
ENDMDL
MODEL       78
REMARK 921   NORMALIZED FREE ENERGY PREDICTED BY IDOCK:   -6.33 KCAL/MOL
REMARK 922        TOTAL FREE ENERGY PREDICTED BY IDOCK:  -10.06 KCAL/MOL
REMARK 923 INTER-LIGAND FREE ENERGY PREDICTED BY IDOCK:   -8.69 KCAL/MOL
REMARK 924 INTRA-LIGAND FREE ENERGY PREDICTED BY IDOCK:   -1.37 KCAL/MOL
REMARK 927      BINDING AFFINITY PREDICTED BY RF-SCORE:    0.00 PKD
ROOT
HETATM    1  C   UNK A   0     -12.532  11.985  63.893  1.00  0.00    -0.436 C  
HETATM    2  N   UNK A   0     -11.553  12.093  64.970  1.00  0.00    -0.328 NA 
ENDROOT
BRANCH   2   3
HETATM    3  C   UNK A   0     -10.524  11.187  65.008  1.00  0.00    -0.293 A  
HETATM    4  C   UNK A   0      -8.855   9.671  64.375  1.00  0.00    -0.263 A  
HETATM    5  C   UNK A   0      -9.656  10.798  64.004  1.00  0.00    -0.339 A  
HETATM    6  S   UNK A   0     -10.140  10.360  66.460  1.00  0.00    -0.232 SA 
HETATM    7  C   UNK A   0      -9.092   9.270  65.675  1.00  0.00    -0.216 A  
BRANCH   7   8
HETATM    8  C   UNK A   0      -8.604   8.087  66.360  1.00  0.00    -0.145 C  
HETATM    9  O   UNK A   0      -7.429   7.733  66.345  1.00  0.00    -0.081 OA 
ATOM     10  N   GLU A   1      -9.577   7.338  67.005  1.00  0.00    -0.156 N  
ATOM     11  H   GLU A   1     -10.549   7.644  66.966  1.00  0.00     0.000 HD 
BRANCH  10  12
ATOM     12  CA  GLU A   1      -9.239   6.117  67.741  1.00  0.00    -0.111 C  
ATOM     13  C   GLU A   1      -9.797   4.889  66.998  1.00  0.00    -0.193 C  
ATOM     14  O   GLU A   1     -10.867   5.164  66.213  1.00  0.00    -0.296 OA 
ATOM     15  OXT GLU A   1      -9.420   3.742  67.197  1.00  0.00    -0.186 OA 
BRANCH  12  16
ATOM     16  CB  GLU A   1      -9.824   6.197  69.156  1.00  0.00    -0.176 C  
BRANCH  16  17
ATOM     17  CG  GLU A   1      -9.105   7.221  70.034  1.00  0.00    -0.148 C  
ATOM     18  CD  GLU A   1      -9.967   8.421  70.329  1.00  0.00    -0.186 C  
ATOM     19  OE2 GLU A   1     -10.840   8.842  69.591  1.00  0.00    -0.233 OA 
ATOM     20  OE1 GLU A   1      -9.647   9.019  71.499  1.00  0.00    -0.282 OA 
ENDBRANCH  16  17
ENDBRANCH  12  16
ENDBRANCH  10  12
ENDBRANCH   7   8
ENDBRANCH   2   3
BRANCH   2  21
HETATM   21  C   UNK A   0     -12.093  12.514  66.278  1.00  0.00    -0.243 C  
BRANCH  21  22
HETATM   22  C   UNK A   0     -11.435  13.788  66.761  1.00  0.00    -0.367 A  
HETATM   23  C   UNK A   0     -10.808  16.111  66.412  1.00  0.00    -0.131 A  
HETATM   24  C   UNK A   0     -10.239  16.173  67.684  1.00  0.00    -0.265 A  
HETATM   25  C   UNK A   0     -11.400  14.932  65.948  1.00  0.00    -0.306 A  
HETATM   26  H   UNK A   0     -10.237  19.364  65.560  1.00  0.00     0.000 HD 
HETATM   27  C   UNK A   0     -10.244  15.033  68.487  1.00  0.00    -0.227 A  
HETATM   28  C   UNK A   0      -9.169  19.769  67.835  1.00  0.00    -0.427 C  
HETATM   29  N   UNK A   0      -9.654  17.368  68.102  1.00  0.00    -0.276 NA 
HETATM   30  N   UNK A   0     -10.232  18.500  66.101  1.00  0.00    -0.407 N  
HETATM   31  C   UNK A   0     -10.844  13.854  68.030  1.00  0.00    -0.259 A  
HETATM   32  C   UNK A   0     -10.767  17.340  65.577  1.00  0.00    -0.100 C  
HETATM   33  O   UNK A   0     -11.216  17.278  64.436  1.00  0.00    -1.082 OA 
HETATM   34  C   UNK A   0      -9.725  18.472  67.293  1.00  0.00    -0.300 C  
ENDBRANCH  21  22
ENDBRANCH   2  21
TORSDOF 7
ENDMDL
MODEL       79
REMARK 921   NORMALIZED FREE ENERGY PREDICTED BY IDOCK:   -6.33 KCAL/MOL
REMARK 922        TOTAL FREE ENERGY PREDICTED BY IDOCK:  -10.05 KCAL/MOL
REMARK 923 INTER-LIGAND FREE ENERGY PREDICTED BY IDOCK:   -9.13 KCAL/MOL
REMARK 924 INTRA-LIGAND FREE ENERGY PREDICTED BY IDOCK:   -0.93 KCAL/MOL
REMARK 927      BINDING AFFINITY PREDICTED BY RF-SCORE:    0.00 PKD
ROOT
HETATM    1  C   UNK A   0      -8.346  11.003  67.800  1.00  0.00    -0.118 C  
HETATM    2  N   UNK A   0      -9.712  11.347  67.420  1.00  0.00    -0.180 NA 
ENDROOT
BRANCH   2   3
HETATM    3  C   UNK A   0     -10.290  12.450  67.994  1.00  0.00    -0.216 A  
HETATM    4  C   UNK A   0     -11.861  14.000  68.776  1.00  0.00    -0.396 A  
HETATM    5  C   UNK A   0     -11.588  12.638  68.431  1.00  0.00    -0.370 A  
HETATM    6  S   UNK A   0      -9.368  13.866  68.288  1.00  0.00    -0.204 SA 
HETATM    7  C   UNK A   0     -10.745  14.802  68.651  1.00  0.00    -0.253 A  
BRANCH   7   8
HETATM    8  C   UNK A   0     -10.654  16.247  68.753  1.00  0.00    -0.298 C  
HETATM    9  O   UNK A   0     -11.061  16.885  69.718  1.00  0.00    -0.147 OA 
ATOM     10  N   GLU A   1     -10.110  16.881  67.644  1.00  0.00    -0.269 N  
ATOM     11  H   GLU A   1      -9.814  16.320  66.845  1.00  0.00     0.000 HD 
BRANCH  10  12
ATOM     12  CA  GLU A   1      -9.950  18.337  67.598  1.00  0.00    -0.338 C  
ATOM     13  C   GLU A   1     -10.482  18.876  66.257  1.00  0.00    -0.445 C  
ATOM     14  O   GLU A   1     -10.460  17.965  65.253  1.00  0.00    -0.585 OA 
ATOM     15  OXT GLU A   1     -10.762  20.051  66.057  1.00  0.00    -0.407 OA 
BRANCH  12  16
ATOM     16  CB  GLU A   1      -8.469  18.692  67.768  1.00  0.00    -0.293 C  
BRANCH  16  17
ATOM     17  CG  GLU A   1      -7.551  17.478  67.624  1.00  0.00    -0.203 C  
ATOM     18  CD  GLU A   1      -6.727  17.537  66.363  1.00  0.00    -0.262 C  
ATOM     19  OE2 GLU A   1      -7.074  18.091  65.337  1.00  0.00    -0.496 OA 
ATOM     20  OE1 GLU A   1      -5.556  16.868  66.474  1.00  0.00    -0.314 OA 
ENDBRANCH  16  17
ENDBRANCH  12  16
ENDBRANCH  10  12
ENDBRANCH   7   8
ENDBRANCH   2   3
BRANCH   2  21
HETATM   21  C   UNK A   0     -10.609  10.201  67.174  1.00  0.00    -0.246 C  
BRANCH  21  22
HETATM   22  C   UNK A   0     -10.486   9.159  68.265  1.00  0.00    -0.254 A  
HETATM   23  C   UNK A   0     -10.894   8.427  70.547  1.00  0.00    -0.250 A  
HETATM   24  C   UNK A   0     -10.287   7.198  70.285  1.00  0.00    -0.201 A  
HETATM   25  C   UNK A   0     -10.994   9.403  69.551  1.00  0.00    -0.193 A  
HETATM   26  H   UNK A   0     -11.776   7.758  73.774  1.00  0.00     0.000 HD 
HETATM   27  C   UNK A   0      -9.756   6.959  69.019  1.00  0.00    -0.150 A  
HETATM   28  C   UNK A   0     -10.766   5.431  73.563  1.00  0.00    -0.331 C  
HETATM   29  N   UNK A   0     -10.205   6.257  71.311  1.00  0.00    -0.196 NA 
HETATM   30  N   UNK A   0     -11.371   7.636  72.846  1.00  0.00    -0.534 N  
HETATM   31  C   UNK A   0      -9.862   7.930  68.016  1.00  0.00    -0.195 A  
HETATM   32  C   UNK A   0     -11.432   8.654  71.913  1.00  0.00    -0.348 C  
HETATM   33  O   UNK A   0     -11.918   9.752  72.167  1.00  0.00    -0.193 OA 
HETATM   34  C   UNK A   0     -10.791   6.525  72.520  1.00  0.00    -0.239 C  
ENDBRANCH  21  22
ENDBRANCH   2  21
TORSDOF 7
ENDMDL
MODEL       80
REMARK 921   NORMALIZED FREE ENERGY PREDICTED BY IDOCK:   -6.32 KCAL/MOL
REMARK 922        TOTAL FREE ENERGY PREDICTED BY IDOCK:  -10.04 KCAL/MOL
REMARK 923 INTER-LIGAND FREE ENERGY PREDICTED BY IDOCK:   -9.08 KCAL/MOL
REMARK 924 INTRA-LIGAND FREE ENERGY PREDICTED BY IDOCK:   -0.96 KCAL/MOL
REMARK 927      BINDING AFFINITY PREDICTED BY RF-SCORE:    0.00 PKD
ROOT
HETATM    1  C   UNK A   0     -12.500  13.028  70.928  1.00  0.00    -0.310 C  
HETATM    2  N   UNK A   0     -11.908  12.169  69.907  1.00  0.00    -0.391 NA 
ENDROOT
BRANCH   2   3
HETATM    3  C   UNK A   0     -11.837  12.641  68.621  1.00  0.00    -0.302 A  
HETATM    4  C   UNK A   0     -11.499  12.787  66.309  1.00  0.00    -0.405 A  
HETATM    5  C   UNK A   0     -11.784  11.942  67.429  1.00  0.00    -0.326 A  
HETATM    6  S   UNK A   0     -11.826  14.327  68.308  1.00  0.00    -0.313 SA 
HETATM    7  C   UNK A   0     -11.404  14.116  66.671  1.00  0.00    -0.344 A  
BRANCH   7   8
HETATM    8  C   UNK A   0     -10.977  15.245  65.863  1.00  0.00    -0.325 C  
HETATM    9  O   UNK A   0     -11.438  15.497  64.755  1.00  0.00    -0.385 OA 
ATOM     10  N   GLU A   1      -9.959  16.009  66.415  1.00  0.00    -0.277 N  
ATOM     11  H   GLU A   1      -9.576  15.748  67.323  1.00  0.00     0.000 HD 
BRANCH  10  12
ATOM     12  CA  GLU A   1      -9.422  17.182  65.720  1.00  0.00     0.072 C  
ATOM     13  C   GLU A   1      -7.954  17.404  66.130  1.00  0.00    -0.240 C  
ATOM     14  O   GLU A   1      -7.643  16.894  67.347  1.00  0.00    -0.151 OA 
ATOM     15  OXT GLU A   1      -7.168  18.098  65.500  1.00  0.00    -0.539 OA 
BRANCH  12  16
ATOM     16  CB  GLU A   1     -10.267  18.412  66.071  1.00  0.00    -0.354 C  
BRANCH  16  17
ATOM     17  CG  GLU A   1     -10.461  18.584  67.578  1.00  0.00    -0.453 C  
ATOM     18  CD  GLU A   1      -9.879  19.880  68.081  1.00  0.00    -0.405 C  
ATOM     19  OE2 GLU A   1      -8.928  20.451  67.578  1.00  0.00    -0.345 OA 
ATOM     20  OE1 GLU A   1     -10.504  20.337  69.189  1.00  0.00    -0.211 OA 
ENDBRANCH  16  17
ENDBRANCH  12  16
ENDBRANCH  10  12
ENDBRANCH   7   8
ENDBRANCH   2   3
BRANCH   2  21
HETATM   21  C   UNK A   0     -12.186  10.727  70.053  1.00  0.00    -0.334 C  
BRANCH  21  22
HETATM   22  C   UNK A   0     -10.948   9.967  70.478  1.00  0.00    -0.391 A  
HETATM   23  C   UNK A   0      -9.828   8.417  71.979  1.00  0.00    -0.354 A  
HETATM   24  C   UNK A   0      -8.647   8.523  71.245  1.00  0.00    -0.176 A  
HETATM   25  C   UNK A   0     -10.971   9.131  71.606  1.00  0.00    -0.445 A  
HETATM   26  H   UNK A   0      -8.692   6.124  74.234  1.00  0.00     0.000 HD 
HETATM   27  C   UNK A   0      -8.609   9.372  70.140  1.00  0.00    -0.233 A  
HETATM   28  C   UNK A   0      -6.433   6.096  73.061  1.00  0.00    -0.064 C  
HETATM   29  N   UNK A   0      -7.531   7.797  71.658  1.00  0.00    -0.071 NA 
HETATM   30  N   UNK A   0      -8.696   6.780  73.454  1.00  0.00    -0.122 N  
HETATM   31  C   UNK A   0      -9.753  10.082  69.757  1.00  0.00    -0.259 A  
HETATM   32  C   UNK A   0      -9.827   7.517  73.162  1.00  0.00    -0.262 C  
HETATM   33  O   UNK A   0     -10.845   7.460  73.845  1.00  0.00    -0.281 OA 
HETATM   34  C   UNK A   0      -7.641   6.937  72.719  1.00  0.00    -0.089 C  
ENDBRANCH  21  22
ENDBRANCH   2  21
TORSDOF 7
ENDMDL
MODEL       81
REMARK 921   NORMALIZED FREE ENERGY PREDICTED BY IDOCK:   -6.31 KCAL/MOL
REMARK 922        TOTAL FREE ENERGY PREDICTED BY IDOCK:  -10.03 KCAL/MOL
REMARK 923 INTER-LIGAND FREE ENERGY PREDICTED BY IDOCK:   -9.27 KCAL/MOL
REMARK 924 INTRA-LIGAND FREE ENERGY PREDICTED BY IDOCK:   -0.75 KCAL/MOL
REMARK 927      BINDING AFFINITY PREDICTED BY RF-SCORE:    0.00 PKD
ROOT
HETATM    1  C   UNK A   0     -13.036   9.185  71.351  1.00  0.00    -0.304 C  
HETATM    2  N   UNK A   0     -11.913  10.100  71.171  1.00  0.00    -0.364 NA 
ENDROOT
BRANCH   2   3
HETATM    3  C   UNK A   0     -11.931  10.947  70.093  1.00  0.00    -0.352 A  
HETATM    4  C   UNK A   0     -11.606  11.860  67.961  1.00  0.00    -0.401 A  
HETATM    5  C   UNK A   0     -11.714  10.673  68.754  1.00  0.00    -0.259 A  
HETATM    6  S   UNK A   0     -12.280  12.614  70.295  1.00  0.00    -0.192 SA 
HETATM    7  C   UNK A   0     -11.804  13.004  68.707  1.00  0.00    -0.317 A  
BRANCH   7   8
HETATM    8  C   UNK A   0     -11.620  14.388  68.306  1.00  0.00    -0.328 C  
HETATM    9  O   UNK A   0     -12.057  15.340  68.943  1.00  0.00    -0.286 OA 
ATOM     10  N   GLU A   1     -10.949  14.567  67.105  1.00  0.00    -0.296 N  
ATOM     11  H   GLU A   1     -10.631  13.749  66.584  1.00  0.00     0.000 HD 
BRANCH  10  12
ATOM     12  CA  GLU A   1     -10.685  15.905  66.569  1.00  0.00    -0.258 C  
ATOM     13  C   GLU A   1     -10.981  15.928  65.058  1.00  0.00    -0.412 C  
ATOM     14  O   GLU A   1     -10.877  14.715  64.461  1.00  0.00    -0.338 OA 
ATOM     15  OXT GLU A   1     -11.148  16.953  64.411  1.00  0.00    -1.128 OA 
BRANCH  12  16
ATOM     16  CB  GLU A   1      -9.223  16.281  66.834  1.00  0.00    -0.237 C  
BRANCH  16  17
ATOM     17  CG  GLU A   1      -9.084  17.497  67.750  1.00  0.00    -0.249 C  
ATOM     18  CD  GLU A   1      -8.835  18.765  66.975  1.00  0.00    -0.294 C  
ATOM     19  OE2 GLU A   1      -8.268  18.816  65.899  1.00  0.00    -0.488 OA 
ATOM     20  OE1 GLU A   1      -9.280  19.867  67.621  1.00  0.00    -0.326 OA 
ENDBRANCH  16  17
ENDBRANCH  12  16
ENDBRANCH  10  12
ENDBRANCH   7   8
ENDBRANCH   2   3
BRANCH   2  21
HETATM   21  C   UNK A   0     -10.592   9.565  71.553  1.00  0.00    -0.149 C  
BRANCH  21  22
HETATM   22  C   UNK A   0     -10.438   8.121  71.129  1.00  0.00    -0.238 A  
HETATM   23  C   UNK A   0      -9.952   6.456  69.427  1.00  0.00    -0.184 A  
HETATM   24  C   UNK A   0     -10.115   5.426  70.354  1.00  0.00    -0.244 A  
HETATM   25  C   UNK A   0     -10.113   7.792  69.804  1.00  0.00    -0.194 A  
HETATM   26  H   UNK A   0      -9.096   4.478  66.782  1.00  0.00     0.000 HD 
HETATM   27  C   UNK A   0     -10.465   5.743  71.666  1.00  0.00    -0.286 A  
HETATM   28  C   UNK A   0      -9.289   2.418  68.264  1.00  0.00    -0.265 C  
HETATM   29  N   UNK A   0      -9.951   4.107  69.931  1.00  0.00    -0.154 NA 
HETATM   30  N   UNK A   0      -9.384   4.751  67.721  1.00  0.00    -0.129 N  
HETATM   31  C   UNK A   0     -10.617   7.080  72.050  1.00  0.00    -0.237 A  
HETATM   32  C   UNK A   0      -9.598   6.079  68.033  1.00  0.00    -0.117 C  
HETATM   33  O   UNK A   0      -9.507   6.975  67.199  1.00  0.00    -0.135 OA 
HETATM   34  C   UNK A   0      -9.555   3.857  68.644  1.00  0.00    -0.111 C  
ENDBRANCH  21  22
ENDBRANCH   2  21
TORSDOF 7
ENDMDL
MODEL       82
REMARK 921   NORMALIZED FREE ENERGY PREDICTED BY IDOCK:   -6.28 KCAL/MOL
REMARK 922        TOTAL FREE ENERGY PREDICTED BY IDOCK:   -9.98 KCAL/MOL
REMARK 923 INTER-LIGAND FREE ENERGY PREDICTED BY IDOCK:   -9.01 KCAL/MOL
REMARK 924 INTRA-LIGAND FREE ENERGY PREDICTED BY IDOCK:   -0.97 KCAL/MOL
REMARK 927      BINDING AFFINITY PREDICTED BY RF-SCORE:    0.00 PKD
ROOT
HETATM    1  C   UNK A   0     -10.357   8.848  68.853  1.00  0.00    -0.212 C  
HETATM    2  N   UNK A   0     -10.036   9.907  67.901  1.00  0.00    -0.165 NA 
ENDROOT
BRANCH   2   3
HETATM    3  C   UNK A   0      -8.895  10.639  68.103  1.00  0.00    -0.134 A  
HETATM    4  C   UNK A   0      -7.092  11.736  69.117  1.00  0.00    -0.071 A  
HETATM    5  C   UNK A   0      -8.064  10.690  69.207  1.00  0.00    -0.133 A  
HETATM    6  S   UNK A   0      -8.289  11.669  66.873  1.00  0.00    -0.167 SA 
HETATM    7  C   UNK A   0      -7.169  12.415  67.917  1.00  0.00    -0.110 A  
BRANCH   7   8
HETATM    8  C   UNK A   0      -6.472  13.625  67.517  1.00  0.00    -0.085 C  
HETATM    9  O   UNK A   0      -5.278  13.656  67.237  1.00  0.00    -0.327 OA 
ATOM     10  N   GLU A   1      -7.246  14.776  67.517  1.00  0.00    -0.192 N  
ATOM     11  H   GLU A   1      -8.227  14.717  67.790  1.00  0.00     0.000 HD 
BRANCH  10  12
ATOM     12  CA  GLU A   1      -6.685  16.075  67.134  1.00  0.00    -0.170 C  
ATOM     13  C   GLU A   1      -6.250  16.846  68.394  1.00  0.00    -0.140 C  
ATOM     14  O   GLU A   1      -6.919  16.483  69.516  1.00  0.00    -0.229 OA 
ATOM     15  OXT GLU A   1      -5.484  17.800  68.379  1.00  0.00    -0.154 OA 
BRANCH  12  16
ATOM     16  CB  GLU A   1      -7.735  16.873  66.354  1.00  0.00    -0.345 C  
BRANCH  16  17
ATOM     17  CG  GLU A   1      -8.660  17.678  67.266  1.00  0.00    -0.238 C  
ATOM     18  CD  GLU A   1     -10.085  17.677  66.773  1.00  0.00    -0.334 C  
ATOM     19  OE2 GLU A   1     -10.411  17.578  65.604  1.00  0.00    -0.601 OA 
ATOM     20  OE1 GLU A   1     -10.982  17.836  67.772  1.00  0.00    -0.308 OA 
ENDBRANCH  16  17
ENDBRANCH  12  16
ENDBRANCH  10  12
ENDBRANCH   7   8
ENDBRANCH   2   3
BRANCH   2  21
HETATM   21  C   UNK A   0     -11.194  10.647  67.362  1.00  0.00    -0.205 C  
BRANCH  21  22
HETATM   22  C   UNK A   0     -11.586  11.794  68.268  1.00  0.00    -0.373 A  
HETATM   23  C   UNK A   0     -12.484  12.617  70.371  1.00  0.00    -0.219 A  
HETATM   24  C   UNK A   0     -12.280  13.937  69.969  1.00  0.00    -0.344 A  
HETATM   25  C   UNK A   0     -12.145  11.551  69.533  1.00  0.00    -0.351 A  
HETATM   26  H   UNK A   0     -13.683  13.331  73.485  1.00  0.00     0.000 HD 
HETATM   27  C   UNK A   0     -11.752  14.187  68.703  1.00  0.00    -0.385 A  
HETATM   28  C   UNK A   0     -13.381  15.817  73.027  1.00  0.00    -0.679 C  
HETATM   29  N   UNK A   0     -12.640  14.969  70.836  1.00  0.00    -0.328 NA 
HETATM   30  N   UNK A   0     -13.325  13.470  72.540  1.00  0.00    -0.537 N  
HETATM   31  C   UNK A   0     -11.401  13.123  67.864  1.00  0.00    -0.321 A  
HETATM   32  C   UNK A   0     -13.067  12.390  71.720  1.00  0.00    -0.342 C  
HETATM   33  O   UNK A   0     -13.301  11.234  72.060  1.00  0.00    -0.462 OA 
HETATM   34  C   UNK A   0     -13.105  14.665  72.088  1.00  0.00    -0.347 C  
ENDBRANCH  21  22
ENDBRANCH   2  21
TORSDOF 7
ENDMDL
MODEL       83
REMARK 921   NORMALIZED FREE ENERGY PREDICTED BY IDOCK:   -6.27 KCAL/MOL
REMARK 922        TOTAL FREE ENERGY PREDICTED BY IDOCK:   -9.97 KCAL/MOL
REMARK 923 INTER-LIGAND FREE ENERGY PREDICTED BY IDOCK:   -9.04 KCAL/MOL
REMARK 924 INTRA-LIGAND FREE ENERGY PREDICTED BY IDOCK:   -0.93 KCAL/MOL
REMARK 927      BINDING AFFINITY PREDICTED BY RF-SCORE:    0.00 PKD
ROOT
HETATM    1  C   UNK A   0     -12.283  12.076  63.955  1.00  0.00    -0.453 C  
HETATM    2  N   UNK A   0     -11.493  12.402  65.138  1.00  0.00    -0.323 NA 
ENDROOT
BRANCH   2   3
HETATM    3  C   UNK A   0     -10.654  11.444  65.645  1.00  0.00    -0.258 A  
HETATM    4  C   UNK A   0      -9.247   9.582  65.844  1.00  0.00    -0.260 A  
HETATM    5  C   UNK A   0      -9.797  10.584  64.982  1.00  0.00    -0.369 A  
HETATM    6  S   UNK A   0     -10.540  11.187  67.337  1.00  0.00    -0.249 SA 
HETATM    7  C   UNK A   0      -9.652   9.744  67.154  1.00  0.00    -0.169 A  
BRANCH   7   8
HETATM    8  C   UNK A   0      -9.442   8.854  68.282  1.00  0.00    -0.140 C  
HETATM    9  O   UNK A   0      -8.529   8.990  69.090  1.00  0.00    -0.123 OA 
ATOM     10  N   GLU A   1     -10.329   7.791  68.364  1.00  0.00    -0.201 N  
ATOM     11  H   GLU A   1     -11.055   7.690  67.654  1.00  0.00     0.000 HD 
BRANCH  10  12
ATOM     12  CA  GLU A   1     -10.246   6.808  69.448  1.00  0.00    -0.187 C  
ATOM     13  C   GLU A   1      -9.609   5.507  68.924  1.00  0.00    -0.136 C  
ATOM     14  O   GLU A   1      -9.762   5.321  67.590  1.00  0.00    -0.130 OA 
ATOM     15  OXT GLU A   1      -9.136   4.640  69.647  1.00  0.00    -0.096 OA 
BRANCH  12  16
ATOM     16  CB  GLU A   1     -11.652   6.533  69.994  1.00  0.00    -0.455 C  
BRANCH  16  17
ATOM     17  CG  GLU A   1     -12.056   7.509  71.098  1.00  0.00    -0.335 C  
ATOM     18  CD  GLU A   1     -11.588   7.055  72.457  1.00  0.00    -0.206 C  
ATOM     19  OE2 GLU A   1     -11.431   5.892  72.779  1.00  0.00    -0.278 OA 
ATOM     20  OE1 GLU A   1     -11.391   8.084  73.312  1.00  0.00    -0.270 OA 
ENDBRANCH  16  17
ENDBRANCH  12  16
ENDBRANCH  10  12
ENDBRANCH   7   8
ENDBRANCH   2   3
BRANCH   2  21
HETATM   21  C   UNK A   0     -12.165  13.265  66.130  1.00  0.00    -0.405 C  
BRANCH  21  22
HETATM   22  C   UNK A   0     -11.545  14.645  66.170  1.00  0.00    -0.332 A  
HETATM   23  C   UNK A   0     -10.653  16.528  67.421  1.00  0.00    -0.300 A  
HETATM   24  C   UNK A   0     -10.354  17.203  66.238  1.00  0.00    -0.313 A  
HETATM   25  C   UNK A   0     -11.245  15.262  67.395  1.00  0.00    -0.311 A  
HETATM   26  H   UNK A   0      -9.390  18.877  69.550  1.00  0.00     0.000 HD 
HETATM   27  C   UNK A   0     -10.673  16.608  65.018  1.00  0.00    -0.171 A  
HETATM   28  C   UNK A   0      -8.702  20.305  67.558  1.00  0.00    -0.401 C  
HETATM   29  N   UNK A   0      -9.769  18.467  66.313  1.00  0.00    -0.442 NA 
HETATM   30  N   UNK A   0      -9.670  18.422  68.681  1.00  0.00    -0.352 N  
HETATM   31  C   UNK A   0     -11.257  15.336  64.986  1.00  0.00    -0.409 A  
HETATM   32  C   UNK A   0     -10.315  17.201  68.703  1.00  0.00    -0.359 C  
HETATM   33  O   UNK A   0     -10.626  16.638  69.749  1.00  0.00    -0.302 OA 
HETATM   34  C   UNK A   0      -9.427  18.979  67.537  1.00  0.00    -0.303 C  
ENDBRANCH  21  22
ENDBRANCH   2  21
TORSDOF 7
ENDMDL
MODEL       84
REMARK 921   NORMALIZED FREE ENERGY PREDICTED BY IDOCK:   -6.26 KCAL/MOL
REMARK 922        TOTAL FREE ENERGY PREDICTED BY IDOCK:   -9.96 KCAL/MOL
REMARK 923 INTER-LIGAND FREE ENERGY PREDICTED BY IDOCK:   -8.91 KCAL/MOL
REMARK 924 INTRA-LIGAND FREE ENERGY PREDICTED BY IDOCK:   -1.05 KCAL/MOL
REMARK 927      BINDING AFFINITY PREDICTED BY RF-SCORE:    0.00 PKD
ROOT
HETATM    1  C   UNK A   0     -14.410   7.362  71.450  1.00  0.00    -0.367 C  
HETATM    2  N   UNK A   0     -13.217   8.196  71.569  1.00  0.00    -0.425 NA 
ENDROOT
BRANCH   2   3
HETATM    3  C   UNK A   0     -12.002   7.577  71.709  1.00  0.00    -0.301 A  
HETATM    4  C   UNK A   0      -9.849   7.015  72.440  1.00  0.00    -0.172 A  
HETATM    5  C   UNK A   0     -11.104   7.626  72.759  1.00  0.00    -0.437 A  
HETATM    6  S   UNK A   0     -11.400   6.543  70.479  1.00  0.00    -0.388 SA 
HETATM    7  C   UNK A   0      -9.848   6.461  71.175  1.00  0.00    -0.179 A  
BRANCH   7   8
HETATM    8  C   UNK A   0      -8.732   5.900  70.435  1.00  0.00    -0.139 C  
HETATM    9  O   UNK A   0      -7.713   5.472  70.968  1.00  0.00    -0.097 OA 
ATOM     10  N   GLU A   1      -8.871   5.924  69.055  1.00  0.00    -0.119 N  
ATOM     11  H   GLU A   1      -9.718   6.320  68.646  1.00  0.00     0.000 HD 
BRANCH  10  12
ATOM     12  CA  GLU A   1      -7.830   5.392  68.172  1.00  0.00    -0.092 C  
ATOM     13  C   GLU A   1      -7.321   6.505  67.237  1.00  0.00    -0.087 C  
ATOM     14  O   GLU A   1      -8.223   7.494  67.022  1.00  0.00    -0.120 OA 
ATOM     15  OXT GLU A   1      -6.266   6.447  66.619  1.00  0.00    -0.037 OA 
BRANCH  12  16
ATOM     16  CB  GLU A   1      -8.401   4.227  67.356  1.00  0.00    -0.099 C  
BRANCH  16  17
ATOM     17  CG  GLU A   1      -9.858   4.448  66.952  1.00  0.00    -0.235 C  
ATOM     18  CD  GLU A   1     -10.010   4.663  65.468  1.00  0.00    -0.183 C  
ATOM     19  OE2 GLU A   1      -9.157   5.155  64.751  1.00  0.00    -0.113 OA 
ATOM     20  OE1 GLU A   1     -11.223   4.281  65.007  1.00  0.00    -0.249 OA 
ENDBRANCH  16  17
ENDBRANCH  12  16
ENDBRANCH  10  12
ENDBRANCH   7   8
ENDBRANCH   2   3
BRANCH   2  21
HETATM   21  C   UNK A   0     -13.395   9.452  72.324  1.00  0.00    -0.461 C  
BRANCH  21  22
HETATM   22  C   UNK A   0     -12.945  10.649  71.515  1.00  0.00    -0.566 A  
HETATM   23  C   UNK A   0     -12.779  13.055  71.210  1.00  0.00    -0.385 A  
HETATM   24  C   UNK A   0     -12.070  12.879  70.022  1.00  0.00    -0.286 A  
HETATM   25  C   UNK A   0     -13.217  11.955  71.953  1.00  0.00    -0.467 A  
HETATM   26  H   UNK A   0     -12.667  16.465  71.240  1.00  0.00     0.000 HD 
HETATM   27  C   UNK A   0     -11.820  11.586  69.566  1.00  0.00    -0.419 A  
HETATM   28  C   UNK A   0     -11.327  16.436  69.076  1.00  0.00    -0.253 C  
HETATM   29  N   UNK A   0     -11.658  14.006  69.311  1.00  0.00    -0.287 NA 
HETATM   30  N   UNK A   0     -12.535  15.504  70.925  1.00  0.00    -0.411 N  
HETATM   31  C   UNK A   0     -12.248  10.481  70.311  1.00  0.00    -0.393 A  
HETATM   32  C   UNK A   0     -13.044  14.448  71.656  1.00  0.00    -0.350 C  
HETATM   33  O   UNK A   0     -13.714  14.612  72.671  1.00  0.00    -0.457 OA 
HETATM   34  C   UNK A   0     -11.885  15.252  69.833  1.00  0.00    -0.335 C  
ENDBRANCH  21  22
ENDBRANCH   2  21
TORSDOF 7
ENDMDL
MODEL       85
REMARK 921   NORMALIZED FREE ENERGY PREDICTED BY IDOCK:   -6.26 KCAL/MOL
REMARK 922        TOTAL FREE ENERGY PREDICTED BY IDOCK:   -9.96 KCAL/MOL
REMARK 923 INTER-LIGAND FREE ENERGY PREDICTED BY IDOCK:   -8.99 KCAL/MOL
REMARK 924 INTRA-LIGAND FREE ENERGY PREDICTED BY IDOCK:   -0.97 KCAL/MOL
REMARK 927      BINDING AFFINITY PREDICTED BY RF-SCORE:    0.00 PKD
ROOT
HETATM    1  C   UNK A   0     -11.760  15.759  69.580  1.00  0.00    -0.355 C  
HETATM    2  N   UNK A   0     -10.908  14.930  68.733  1.00  0.00    -0.243 NA 
ENDROOT
BRANCH   2   3
HETATM    3  C   UNK A   0      -9.773  15.489  68.207  1.00  0.00    -0.201 A  
HETATM    4  C   UNK A   0      -7.774  15.802  67.027  1.00  0.00    -0.267 A  
HETATM    5  C   UNK A   0      -9.003  15.077  67.134  1.00  0.00    -0.235 A  
HETATM    6  S   UNK A   0      -9.115  16.926  68.873  1.00  0.00    -0.175 SA 
HETATM    7  C   UNK A   0      -7.668  16.789  67.986  1.00  0.00    -0.171 A  
BRANCH   7   8
HETATM    8  C   UNK A   0      -6.521  17.622  68.304  1.00  0.00    -0.188 C  
HETATM    9  O   UNK A   0      -5.362  17.226  68.247  1.00  0.00    -0.129 OA 
ATOM     10  N   GLU A   1      -6.828  18.905  68.731  1.00  0.00    -0.273 N  
ATOM     11  H   GLU A   1      -7.806  19.188  68.800  1.00  0.00     0.000 HD 
BRANCH  10  12
ATOM     12  CA  GLU A   1      -5.778  19.864  69.087  1.00  0.00    -0.237 C  
ATOM     13  C   GLU A   1      -5.992  20.360  70.529  1.00  0.00    -0.270 C  
ATOM     14  O   GLU A   1      -7.279  20.282  70.949  1.00  0.00     0.096 OA 
ATOM     15  OXT GLU A   1      -5.128  20.913  71.196  1.00  0.00    -0.451 OA 
BRANCH  12  16
ATOM     16  CB  GLU A   1      -5.810  21.041  68.106  1.00  0.00    -0.394 C  
BRANCH  16  17
ATOM     17  CG  GLU A   1      -7.004  20.982  67.154  1.00  0.00    -0.411 C  
ATOM     18  CD  GLU A   1      -6.586  20.693  65.735  1.00  0.00    -0.202 C  
ATOM     19  OE2 GLU A   1      -5.512  21.007  65.255  1.00  0.00    -0.205 OA 
ATOM     20  OE1 GLU A   1      -7.552  20.071  65.023  1.00  0.00    -0.216 OA 
ENDBRANCH  16  17
ENDBRANCH  12  16
ENDBRANCH  10  12
ENDBRANCH   7   8
ENDBRANCH   2   3
BRANCH   2  21
HETATM   21  C   UNK A   0     -11.619  13.970  67.866  1.00  0.00    -0.343 C  
BRANCH  21  22
HETATM   22  C   UNK A   0     -11.558  12.567  68.430  1.00  0.00    -0.368 A  
HETATM   23  C   UNK A   0     -12.117  10.957  70.162  1.00  0.00    -0.431 A  
HETATM   24  C   UNK A   0     -11.472   9.940  69.458  1.00  0.00    -0.068 A  
HETATM   25  C   UNK A   0     -12.161  12.261  69.659  1.00  0.00    -0.277 A  
HETATM   26  H   UNK A   0     -13.218   9.018  72.744  1.00  0.00     0.000 HD 
HETATM   27  C   UNK A   0     -10.847  10.243  68.249  1.00  0.00    -0.300 A  
HETATM   28  C   UNK A   0     -12.156   6.975  71.658  1.00  0.00    -0.384 C  
HETATM   29  N   UNK A   0     -11.448   8.656  70.002  1.00  0.00    -0.459 NA 
HETATM   30  N   UNK A   0     -12.746   9.288  71.882  1.00  0.00    -0.365 N  
HETATM   31  C   UNK A   0     -10.896  11.544  67.737  1.00  0.00    -0.270 A  
HETATM   32  C   UNK A   0     -12.756  10.601  71.456  1.00  0.00    -0.444 C  
HETATM   33  O   UNK A   0     -13.278  11.501  72.108  1.00  0.00    -0.505 OA 
HETATM   34  C   UNK A   0     -12.125   8.404  71.166  1.00  0.00    -0.249 C  
ENDBRANCH  21  22
ENDBRANCH   2  21
TORSDOF 7
ENDMDL
MODEL       86
REMARK 921   NORMALIZED FREE ENERGY PREDICTED BY IDOCK:   -6.25 KCAL/MOL
REMARK 922        TOTAL FREE ENERGY PREDICTED BY IDOCK:   -9.94 KCAL/MOL
REMARK 923 INTER-LIGAND FREE ENERGY PREDICTED BY IDOCK:   -8.81 KCAL/MOL
REMARK 924 INTRA-LIGAND FREE ENERGY PREDICTED BY IDOCK:   -1.13 KCAL/MOL
REMARK 927      BINDING AFFINITY PREDICTED BY RF-SCORE:    0.00 PKD
ROOT
HETATM    1  C   UNK A   0     -11.654  15.451  64.406  1.00  0.00    -0.264 C  
HETATM    2  N   UNK A   0     -12.077  14.759  65.620  1.00  0.00    -0.187 NA 
ENDROOT
BRANCH   2   3
HETATM    3  C   UNK A   0     -11.273  14.837  66.727  1.00  0.00    -0.344 A  
HETATM    4  C   UNK A   0     -10.524  14.993  68.941  1.00  0.00    -0.241 A  
HETATM    5  C   UNK A   0     -11.576  14.596  68.055  1.00  0.00    -0.366 A  
HETATM    6  S   UNK A   0      -9.619  15.267  66.578  1.00  0.00    -0.292 SA 
HETATM    7  C   UNK A   0      -9.422  15.469  68.258  1.00  0.00    -0.200 A  
BRANCH   7   8
HETATM    8  C   UNK A   0      -8.232  16.106  68.794  1.00  0.00    -0.216 C  
HETATM    9  O   UNK A   0      -7.635  15.699  69.785  1.00  0.00    -0.172 OA 
ATOM     10  N   GLU A   1      -7.833  17.257  68.131  1.00  0.00    -0.212 N  
ATOM     11  H   GLU A   1      -8.375  17.585  67.332  1.00  0.00     0.000 HD 
BRANCH  10  12
ATOM     12  CA  GLU A   1      -6.649  18.011  68.552  1.00  0.00    -0.217 C  
ATOM     13  C   GLU A   1      -7.067  19.414  69.028  1.00  0.00    -0.362 C  
ATOM     14  O   GLU A   1      -8.231  19.852  68.486  1.00  0.00    -0.272 OA 
ATOM     15  OXT GLU A   1      -6.359  20.142  69.711  1.00  0.00    -0.341 OA 
BRANCH  12  16
ATOM     16  CB  GLU A   1      -5.667  18.113  67.380  1.00  0.00    -0.148 C  
BRANCH  16  17
ATOM     17  CG  GLU A   1      -6.369  18.128  66.022  1.00  0.00    -0.275 C  
ATOM     18  CD  GLU A   1      -6.198  19.445  65.310  1.00  0.00    -0.260 C  
ATOM     19  OE2 GLU A   1      -6.051  20.518  65.868  1.00  0.00    -0.191 OA 
ATOM     20  OE1 GLU A   1      -6.262  19.323  63.965  1.00  0.00    -0.421 OA 
ENDBRANCH  16  17
ENDBRANCH  12  16
ENDBRANCH  10  12
ENDBRANCH   7   8
ENDBRANCH   2   3
BRANCH   2  21
HETATM   21  C   UNK A   0     -12.764  13.470  65.408  1.00  0.00    -0.442 C  
BRANCH  21  22
HETATM   22  C   UNK A   0     -11.778  12.362  65.106  1.00  0.00    -0.430 A  
HETATM   23  C   UNK A   0     -10.324  10.562  65.850  1.00  0.00    -0.275 A  
HETATM   24  C   UNK A   0      -9.968  10.273  64.533  1.00  0.00    -0.289 A  
HETATM   25  C   UNK A   0     -11.218  11.597  66.141  1.00  0.00    -0.314 A  
HETATM   26  H   UNK A   0      -8.515   8.064  67.309  1.00  0.00     0.000 HD 
HETATM   27  C   UNK A   0     -10.499  11.047  63.501  1.00  0.00    -0.365 A  
HETATM   28  C   UNK A   0      -7.729   7.298  65.012  1.00  0.00    -0.115 C  
HETATM   29  N   UNK A   0      -9.068   9.236  64.291  1.00  0.00    -0.429 NA 
HETATM   30  N   UNK A   0      -8.899   8.675  66.587  1.00  0.00    -0.128 N  
HETATM   31  C   UNK A   0     -11.402  12.078  63.787  1.00  0.00    -0.526 A  
HETATM   32  C   UNK A   0      -9.725   9.729  66.925  1.00  0.00    -0.192 C  
HETATM   33  O   UNK A   0      -9.989  10.011  68.090  1.00  0.00    -0.147 OA 
HETATM   34  C   UNK A   0      -8.620   8.474  65.338  1.00  0.00    -0.176 C  
ENDBRANCH  21  22
ENDBRANCH   2  21
TORSDOF 7
ENDMDL
MODEL       87
REMARK 921   NORMALIZED FREE ENERGY PREDICTED BY IDOCK:   -6.24 KCAL/MOL
REMARK 922        TOTAL FREE ENERGY PREDICTED BY IDOCK:   -9.93 KCAL/MOL
REMARK 923 INTER-LIGAND FREE ENERGY PREDICTED BY IDOCK:   -8.96 KCAL/MOL
REMARK 924 INTRA-LIGAND FREE ENERGY PREDICTED BY IDOCK:   -0.97 KCAL/MOL
REMARK 927      BINDING AFFINITY PREDICTED BY RF-SCORE:    0.00 PKD
ROOT
HETATM    1  C   UNK A   0     -12.267  12.517  65.412  1.00  0.00    -0.412 C  
HETATM    2  N   UNK A   0     -11.097  11.878  66.005  1.00  0.00    -0.314 NA 
ENDROOT
BRANCH   2   3
HETATM    3  C   UNK A   0     -11.207  11.365  67.272  1.00  0.00    -0.304 A  
HETATM    4  C   UNK A   0     -11.592  11.150  69.572  1.00  0.00    -0.392 A  
HETATM    5  C   UNK A   0     -11.894  11.859  68.366  1.00  0.00    -0.352 A  
HETATM    6  S   UNK A   0     -10.445   9.885  67.686  1.00  0.00    -0.260 SA 
HETATM    7  C   UNK A   0     -10.730  10.094  69.352  1.00  0.00    -0.238 A  
BRANCH   7   8
HETATM    8  C   UNK A   0     -10.072   9.246  70.330  1.00  0.00    -0.219 C  
HETATM    9  O   UNK A   0     -10.117   9.447  71.539  1.00  0.00    -0.288 OA 
ATOM     10  N   GLU A   1      -9.333   8.201  69.796  1.00  0.00    -0.159 N  
ATOM     11  H   GLU A   1      -9.289   8.086  68.783  1.00  0.00     0.000 HD 
BRANCH  10  12
ATOM     12  CA  GLU A   1      -8.612   7.257  70.656  1.00  0.00    -0.142 C  
ATOM     13  C   GLU A   1      -7.192   7.030  70.105  1.00  0.00    -0.075 C  
ATOM     14  O   GLU A   1      -7.080   7.254  68.772  1.00  0.00    -0.078 OA 
ATOM     15  OXT GLU A   1      -6.276   6.549  70.758  1.00  0.00    -0.034 OA 
BRANCH  12  16
ATOM     16  CB  GLU A   1      -9.382   5.933  70.715  1.00  0.00    -0.180 C  
BRANCH  16  17
ATOM     17  CG  GLU A   1      -9.765   5.537  72.141  1.00  0.00    -0.186 C  
ATOM     18  CD  GLU A   1     -11.233   5.740  72.411  1.00  0.00    -0.290 C  
ATOM     19  OE2 GLU A   1     -11.925   6.581  71.868  1.00  0.00    -0.323 OA 
ATOM     20  OE1 GLU A   1     -11.709   4.904  73.363  1.00  0.00    -0.265 OA 
ENDBRANCH  16  17
ENDBRANCH  12  16
ENDBRANCH  10  12
ENDBRANCH   7   8
ENDBRANCH   2   3
BRANCH   2  21
HETATM   21  C   UNK A   0      -9.799  12.494  65.667  1.00  0.00    -0.216 C  
BRANCH  21  22
HETATM   22  C   UNK A   0      -9.689  13.895  66.230  1.00  0.00    -0.304 A  
HETATM   23  C   UNK A   0     -10.160  16.275  66.087  1.00  0.00    -0.362 A  
HETATM   24  C   UNK A   0      -9.515  16.499  67.303  1.00  0.00    -0.235 A  
HETATM   25  C   UNK A   0     -10.248  14.987  65.549  1.00  0.00    -0.406 A  
HETATM   26  H   UNK A   0     -11.139  19.499  65.554  1.00  0.00     0.000 HD 
HETATM   27  C   UNK A   0      -8.933  15.423  67.971  1.00  0.00    -0.171 A  
HETATM   28  C   UNK A   0     -10.066  20.185  67.757  1.00  0.00    -0.540 C  
HETATM   29  N   UNK A   0      -9.446  17.802  67.798  1.00  0.00    -0.258 NA 
HETATM   30  N   UNK A   0     -10.699  18.691  65.993  1.00  0.00    -0.345 N  
HETATM   31  C   UNK A   0      -9.027  14.131  67.441  1.00  0.00    -0.205 A  
HETATM   32  C   UNK A   0     -10.752  17.449  65.393  1.00  0.00    -0.035 C  
HETATM   33  O   UNK A   0     -11.273  17.269  64.296  1.00  0.00    -1.013 OA 
HETATM   34  C   UNK A   0     -10.081  18.812  67.126  1.00  0.00    -0.354 C  
ENDBRANCH  21  22
ENDBRANCH   2  21
TORSDOF 7
ENDMDL
MODEL       88
REMARK 921   NORMALIZED FREE ENERGY PREDICTED BY IDOCK:   -6.24 KCAL/MOL
REMARK 922        TOTAL FREE ENERGY PREDICTED BY IDOCK:   -9.92 KCAL/MOL
REMARK 923 INTER-LIGAND FREE ENERGY PREDICTED BY IDOCK:   -9.06 KCAL/MOL
REMARK 924 INTRA-LIGAND FREE ENERGY PREDICTED BY IDOCK:   -0.86 KCAL/MOL
REMARK 927      BINDING AFFINITY PREDICTED BY RF-SCORE:    0.00 PKD
ROOT
HETATM    1  C   UNK A   0     -12.717  14.257  65.623  1.00  0.00    -0.373 C  
HETATM    2  N   UNK A   0     -11.688  13.254  65.880  1.00  0.00    -0.348 NA 
ENDROOT
BRANCH   2   3
HETATM    3  C   UNK A   0     -11.683  12.624  67.097  1.00  0.00    -0.371 A  
HETATM    4  C   UNK A   0     -11.679  12.213  69.403  1.00  0.00    -0.391 A  
HETATM    5  C   UNK A   0     -12.020  13.115  68.345  1.00  0.00    -0.324 A  
HETATM    6  S   UNK A   0     -11.231  10.974  67.226  1.00  0.00    -0.182 SA 
HETATM    7  C   UNK A   0     -11.148  11.031  68.926  1.00  0.00    -0.239 A  
BRANCH   7   8
HETATM    8  C   UNK A   0     -10.542   9.945  69.676  1.00  0.00    -0.250 C  
HETATM    9  O   UNK A   0      -9.344   9.684  69.641  1.00  0.00    -0.181 OA 
ATOM     10  N   GLU A   1     -11.429   9.174  70.413  1.00  0.00    -0.385 N  
ATOM     11  H   GLU A   1     -12.423   9.399  70.391  1.00  0.00     0.000 HD 
BRANCH  10  12
ATOM     12  CA  GLU A   1     -10.968   8.043  71.224  1.00  0.00    -0.236 C  
ATOM     13  C   GLU A   1     -12.079   6.980  71.314  1.00  0.00    -0.361 C  
ATOM     14  O   GLU A   1     -13.328   7.478  71.145  1.00  0.00    -0.273 OA 
ATOM     15  OXT GLU A   1     -11.886   5.820  71.652  1.00  0.00    -0.075 OA 
BRANCH  12  16
ATOM     16  CB  GLU A   1     -10.589   8.541  72.623  1.00  0.00    -0.217 C  
BRANCH  16  17
ATOM     17  CG  GLU A   1      -9.649   7.583  73.355  1.00  0.00    -0.323 C  
ATOM     18  CD  GLU A   1      -8.237   8.107  73.412  1.00  0.00    -0.206 C  
ATOM     19  OE2 GLU A   1      -7.738   8.840  72.578  1.00  0.00    -0.355 OA 
ATOM     20  OE1 GLU A   1      -7.552   7.645  74.483  1.00  0.00    -0.136 OA 
ENDBRANCH  16  17
ENDBRANCH  12  16
ENDBRANCH  10  12
ENDBRANCH   7   8
ENDBRANCH   2   3
BRANCH   2  21
HETATM   21  C   UNK A   0     -10.364  13.540  65.293  1.00  0.00    -0.331 C  
BRANCH  21  22
HETATM   22  C   UNK A   0      -9.598  14.547  66.124  1.00  0.00    -0.325 A  
HETATM   23  C   UNK A   0      -9.141  16.845  66.771  1.00  0.00    -0.266 A  
HETATM   24  C   UNK A   0      -8.193  16.419  67.702  1.00  0.00    -0.153 A  
HETATM   25  C   UNK A   0      -9.839  15.923  65.985  1.00  0.00    -0.366 A  
HETATM   26  H   UNK A   0      -8.907  20.178  67.462  1.00  0.00     0.000 HD 
HETATM   27  C   UNK A   0      -7.929  15.055  67.826  1.00  0.00    -0.155 A  
HETATM   28  C   UNK A   0      -7.169  19.680  69.253  1.00  0.00    -0.334 C  
HETATM   29  N   UNK A   0      -7.518  17.375  68.460  1.00  0.00    -0.241 NA 
HETATM   30  N   UNK A   0      -8.720  19.176  67.497  1.00  0.00    -0.289 N  
HETATM   31  C   UNK A   0      -8.632  14.128  67.047  1.00  0.00    -0.204 A  
HETATM   32  C   UNK A   0      -9.383  18.307  66.654  1.00  0.00    -0.303 C  
HETATM   33  O   UNK A   0     -10.175  18.694  65.799  1.00  0.00    -0.552 OA 
HETATM   34  C   UNK A   0      -7.856  18.696  68.335  1.00  0.00    -0.319 C  
ENDBRANCH  21  22
ENDBRANCH   2  21
TORSDOF 7
ENDMDL
MODEL       89
REMARK 921   NORMALIZED FREE ENERGY PREDICTED BY IDOCK:   -6.21 KCAL/MOL
REMARK 922        TOTAL FREE ENERGY PREDICTED BY IDOCK:   -9.89 KCAL/MOL
REMARK 923 INTER-LIGAND FREE ENERGY PREDICTED BY IDOCK:   -9.35 KCAL/MOL
REMARK 924 INTRA-LIGAND FREE ENERGY PREDICTED BY IDOCK:   -0.54 KCAL/MOL
REMARK 927      BINDING AFFINITY PREDICTED BY RF-SCORE:    0.00 PKD
ROOT
HETATM    1  C   UNK A   0     -11.535   8.474  70.016  1.00  0.00     0.082 C  
HETATM    2  N   UNK A   0     -12.304   9.352  70.893  1.00  0.00    -0.443 NA 
ENDROOT
BRANCH   2   3
HETATM    3  C   UNK A   0     -12.181  10.707  70.727  1.00  0.00    -0.375 A  
HETATM    4  C   UNK A   0     -12.512  13.019  70.894  1.00  0.00    -0.396 A  
HETATM    5  C   UNK A   0     -12.663  11.737  71.514  1.00  0.00    -0.400 A  
HETATM    6  S   UNK A   0     -11.307  11.350  69.399  1.00  0.00    -0.312 SA 
HETATM    7  C   UNK A   0     -11.863  12.936  69.679  1.00  0.00    -0.320 A  
BRANCH   7   8
HETATM    8  C   UNK A   0     -11.664  13.978  68.687  1.00  0.00    -0.354 C  
HETATM    9  O   UNK A   0     -11.513  15.161  68.970  1.00  0.00    -0.274 OA 
ATOM     10  N   GLU A   1     -11.706  13.548  67.368  1.00  0.00    -0.358 N  
ATOM     11  H   GLU A   1     -11.869  12.561  67.170  1.00  0.00     0.000 HD 
BRANCH  10  12
ATOM     12  CA  GLU A   1     -11.520  14.482  66.254  1.00  0.00    -0.358 C  
ATOM     13  C   GLU A   1     -12.473  14.114  65.102  1.00  0.00    -0.439 C  
ATOM     14  O   GLU A   1     -12.842  12.809  65.092  1.00  0.00    -0.726 OA 
ATOM     15  OXT GLU A   1     -12.762  14.874  64.187  1.00  0.00    -0.750 OA 
BRANCH  12  16
ATOM     16  CB  GLU A   1     -10.063  14.427  65.782  1.00  0.00    -0.361 C  
BRANCH  16  17
ATOM     17  CG  GLU A   1      -9.291  13.255  66.387  1.00  0.00    -0.185 C  
ATOM     18  CD  GLU A   1      -8.260  13.709  67.388  1.00  0.00    -0.179 C  
ATOM     19  OE2 GLU A   1      -7.691  14.785  67.352  1.00  0.00    -0.180 OA 
ATOM     20  OE1 GLU A   1      -7.997  12.773  68.327  1.00  0.00    -0.139 OA 
ENDBRANCH  16  17
ENDBRANCH  12  16
ENDBRANCH  10  12
ENDBRANCH   7   8
ENDBRANCH   2   3
BRANCH   2  21
HETATM   21  C   UNK A   0     -12.459   8.880  72.283  1.00  0.00    -0.369 C  
BRANCH  21  22
HETATM   22  C   UNK A   0     -11.475   7.777  72.605  1.00  0.00    -0.430 A  
HETATM   23  C   UNK A   0      -9.287   7.052  73.377  1.00  0.00    -0.198 A  
HETATM   24  C   UNK A   0      -9.656   5.714  73.240  1.00  0.00    -0.146 A  
HETATM   25  C   UNK A   0     -10.183   8.079  73.062  1.00  0.00    -0.357 A  
HETATM   26  H   UNK A   0      -6.163   6.479  74.622  1.00  0.00     0.000 HD 
HETATM   27  C   UNK A   0     -10.929   5.406  72.760  1.00  0.00    -0.328 A  
HETATM   28  C   UNK A   0      -6.582   3.970  74.507  1.00  0.00    -0.052 C  
HETATM   29  N   UNK A   0      -8.728   4.724  73.561  1.00  0.00    -0.104 NA 
HETATM   30  N   UNK A   0      -7.090   6.297  74.237  1.00  0.00    -0.086 N  
HETATM   31  C   UNK A   0     -11.832   6.431  72.452  1.00  0.00    -0.255 A  
HETATM   32  C   UNK A   0      -7.917   7.342  73.874  1.00  0.00    -0.131 C  
HETATM   33  O   UNK A   0      -7.565   8.516  73.946  1.00  0.00    -0.340 OA 
HETATM   34  C   UNK A   0      -7.512   5.083  74.079  1.00  0.00    -0.083 C  
ENDBRANCH  21  22
ENDBRANCH   2  21
TORSDOF 7
ENDMDL
MODEL       90
REMARK 921   NORMALIZED FREE ENERGY PREDICTED BY IDOCK:   -6.19 KCAL/MOL
REMARK 922        TOTAL FREE ENERGY PREDICTED BY IDOCK:   -9.86 KCAL/MOL
REMARK 923 INTER-LIGAND FREE ENERGY PREDICTED BY IDOCK:   -8.31 KCAL/MOL
REMARK 924 INTRA-LIGAND FREE ENERGY PREDICTED BY IDOCK:   -1.55 KCAL/MOL
REMARK 927      BINDING AFFINITY PREDICTED BY RF-SCORE:    0.00 PKD
ROOT
HETATM    1  C   UNK A   0     -14.281   7.530  71.410  1.00  0.00    -0.388 C  
HETATM    2  N   UNK A   0     -13.180   8.488  71.426  1.00  0.00    -0.477 NA 
ENDROOT
BRANCH   2   3
HETATM    3  C   UNK A   0     -11.897   8.005  71.447  1.00  0.00    -0.295 A  
HETATM    4  C   UNK A   0      -9.678   7.578  72.063  1.00  0.00    -0.195 A  
HETATM    5  C   UNK A   0     -10.990   7.961  72.490  1.00  0.00    -0.412 A  
HETATM    6  S   UNK A   0     -11.202   7.307  70.044  1.00  0.00    -0.163 SA 
HETATM    7  C   UNK A   0      -9.637   7.281  70.715  1.00  0.00    -0.171 A  
BRANCH   7   8
HETATM    8  C   UNK A   0      -8.477   7.011  69.884  1.00  0.00    -0.140 C  
HETATM    9  O   UNK A   0      -7.600   6.209  70.186  1.00  0.00    -0.091 OA 
ATOM     10  N   GLU A   1      -8.396   7.770  68.725  1.00  0.00    -0.128 N  
ATOM     11  H   GLU A   1      -9.127   8.453  68.524  1.00  0.00     0.000 HD 
BRANCH  10  12
ATOM     12  CA  GLU A   1      -7.285   7.610  67.783  1.00  0.00    -0.087 C  
ATOM     13  C   GLU A   1      -6.292   8.776  67.948  1.00  0.00    -0.056 C  
ATOM     14  O   GLU A   1      -6.850   9.903  68.454  1.00  0.00    -0.062 OA 
ATOM     15  OXT GLU A   1      -5.142   8.756  67.530  1.00  0.00    -0.033 OA 
BRANCH  12  16
ATOM     16  CB  GLU A   1      -7.832   7.572  66.352  1.00  0.00    -0.098 C  
BRANCH  16  17
ATOM     17  CG  GLU A   1      -9.072   8.447  66.171  1.00  0.00    -0.238 C  
ATOM     18  CD  GLU A   1      -8.814   9.613  65.252  1.00  0.00    -0.171 C  
ATOM     19  OE2 GLU A   1      -7.731  10.152  65.107  1.00  0.00    -0.133 OA 
ATOM     20  OE1 GLU A   1      -9.932  10.035  64.618  1.00  0.00    -0.309 OA 
ENDBRANCH  16  17
ENDBRANCH  12  16
ENDBRANCH  10  12
ENDBRANCH   7   8
ENDBRANCH   2   3
BRANCH   2  21
HETATM   21  C   UNK A   0     -13.422   9.718  72.205  1.00  0.00    -0.349 C  
BRANCH  21  22
HETATM   22  C   UNK A   0     -12.988  10.950  71.440  1.00  0.00    -0.527 A  
HETATM   23  C   UNK A   0     -12.147  11.995  69.413  1.00  0.00    -0.261 A  
HETATM   24  C   UNK A   0     -12.217  13.255  70.006  1.00  0.00    -0.275 A  
HETATM   25  C   UNK A   0     -12.526  10.849  70.119  1.00  0.00    -0.356 A  
HETATM   26  H   UNK A   0     -11.075  13.052  66.352  1.00  0.00     0.000 HD 
HETATM   27  C   UNK A   0     -12.649  13.361  71.328  1.00  0.00    -0.411 A  
HETATM   28  C   UNK A   0     -11.141  15.463  67.167  1.00  0.00    -0.291 C  
HETATM   29  N   UNK A   0     -11.823  14.370  69.266  1.00  0.00    -0.307 NA 
HETATM   30  N   UNK A   0     -11.365  13.082  67.329  1.00  0.00    -0.290 N  
HETATM   31  C   UNK A   0     -13.038  12.217  72.035  1.00  0.00    -0.461 A  
HETATM   32  C   UNK A   0     -11.664  11.918  68.010  1.00  0.00    -0.312 C  
HETATM   33  O   UNK A   0     -11.548  10.808  67.499  1.00  0.00    -0.510 OA 
HETATM   34  C   UNK A   0     -11.458  14.213  67.955  1.00  0.00    -0.312 C  
ENDBRANCH  21  22
ENDBRANCH   2  21
TORSDOF 7
ENDMDL
MODEL       91
REMARK 921   NORMALIZED FREE ENERGY PREDICTED BY IDOCK:   -6.19 KCAL/MOL
REMARK 922        TOTAL FREE ENERGY PREDICTED BY IDOCK:   -9.85 KCAL/MOL
REMARK 923 INTER-LIGAND FREE ENERGY PREDICTED BY IDOCK:   -8.95 KCAL/MOL
REMARK 924 INTRA-LIGAND FREE ENERGY PREDICTED BY IDOCK:   -0.90 KCAL/MOL
REMARK 927      BINDING AFFINITY PREDICTED BY RF-SCORE:    0.00 PKD
ROOT
HETATM    1  C   UNK A   0     -12.635  13.744  65.678  1.00  0.00    -0.509 C  
HETATM    2  N   UNK A   0     -11.576  13.485  66.649  1.00  0.00    -0.346 NA 
ENDROOT
BRANCH   2   3
HETATM    3  C   UNK A   0     -11.018  12.234  66.685  1.00  0.00    -0.278 A  
HETATM    4  C   UNK A   0      -9.992  10.224  66.059  1.00  0.00    -0.308 A  
HETATM    5  C   UNK A   0     -10.193  11.610  65.766  1.00  0.00    -0.281 A  
HETATM    6  S   UNK A   0     -11.286  11.195  68.023  1.00  0.00    -0.309 SA 
HETATM    7  C   UNK A   0     -10.620   9.843  67.228  1.00  0.00    -0.252 A  
BRANCH   7   8
HETATM    8  C   UNK A   0     -10.783   8.507  67.773  1.00  0.00    -0.101 C  
HETATM    9  O   UNK A   0     -10.834   7.496  67.082  1.00  0.00    -0.324 OA 
ATOM     10  N   GLU A   1     -10.930   8.449  69.152  1.00  0.00    -0.430 N  
ATOM     11  H   GLU A   1     -10.918   9.315  69.691  1.00  0.00     0.000 HD 
BRANCH  10  12
ATOM     12  CA  GLU A   1     -11.102   7.172  69.849  1.00  0.00    -0.235 C  
ATOM     13  C   GLU A   1     -11.924   7.387  71.134  1.00  0.00    -0.320 C  
ATOM     14  O   GLU A   1     -11.845   8.646  71.630  1.00  0.00    -0.285 OA 
ATOM     15  OXT GLU A   1     -12.480   6.485  71.746  1.00  0.00    -0.345 OA 
BRANCH  12  16
ATOM     16  CB  GLU A   1      -9.726   6.587  70.186  1.00  0.00    -0.180 C  
BRANCH  16  17
ATOM     17  CG  GLU A   1      -9.712   5.059  70.155  1.00  0.00    -0.280 C  
ATOM     18  CD  GLU A   1      -8.492   4.488  70.832  1.00  0.00    -0.089 C  
ATOM     19  OE2 GLU A   1      -7.413   5.049  70.897  1.00  0.00    -0.072 OA 
ATOM     20  OE1 GLU A   1      -8.706   3.253  71.338  1.00  0.00    -0.070 OA 
ENDBRANCH  16  17
ENDBRANCH  12  16
ENDBRANCH  10  12
ENDBRANCH   7   8
ENDBRANCH   2   3
BRANCH   2  21
HETATM   21  C   UNK A   0     -11.731  14.164  67.951  1.00  0.00    -0.367 C  
BRANCH  21  22
HETATM   22  C   UNK A   0     -10.596  15.132  68.207  1.00  0.00    -0.243 A  
HETATM   23  C   UNK A   0      -9.695  17.389  68.180  1.00  0.00    -0.291 A  
HETATM   24  C   UNK A   0      -8.490  16.940  68.721  1.00  0.00    -0.244 A  
HETATM   25  C   UNK A   0     -10.741  16.499  67.921  1.00  0.00    -0.337 A  
HETATM   26  H   UNK A   0      -8.879  20.701  68.086  1.00  0.00     0.000 HD 
HETATM   27  C   UNK A   0      -8.329  15.580  68.982  1.00  0.00    -0.227 A  
HETATM   28  C   UNK A   0      -6.607  20.165  69.102  1.00  0.00    -0.311 C  
HETATM   29  N   UNK A   0      -7.472  17.863  68.957  1.00  0.00    -0.218 NA 
HETATM   30  N   UNK A   0      -8.790  19.695  68.231  1.00  0.00    -0.325 N  
HETATM   31  C   UNK A   0      -9.377  14.686  68.733  1.00  0.00    -0.191 A  
HETATM   32  C   UNK A   0      -9.824  18.843  67.897  1.00  0.00    -0.345 C  
HETATM   33  O   UNK A   0     -10.859  19.238  67.370  1.00  0.00    -0.486 OA 
HETATM   34  C   UNK A   0      -7.705  19.195  68.732  1.00  0.00    -0.355 C  
ENDBRANCH  21  22
ENDBRANCH   2  21
TORSDOF 7
ENDMDL
MODEL       92
REMARK 921   NORMALIZED FREE ENERGY PREDICTED BY IDOCK:   -6.18 KCAL/MOL
REMARK 922        TOTAL FREE ENERGY PREDICTED BY IDOCK:   -9.85 KCAL/MOL
REMARK 923 INTER-LIGAND FREE ENERGY PREDICTED BY IDOCK:   -8.93 KCAL/MOL
REMARK 924 INTRA-LIGAND FREE ENERGY PREDICTED BY IDOCK:   -0.91 KCAL/MOL
REMARK 927      BINDING AFFINITY PREDICTED BY RF-SCORE:    0.00 PKD
ROOT
HETATM    1  C   UNK A   0     -10.687   7.511  73.048  1.00  0.00    -0.384 C  
HETATM    2  N   UNK A   0     -11.058   7.747  71.655  1.00  0.00    -0.234 NA 
ENDROOT
BRANCH   2   3
HETATM    3  C   UNK A   0     -11.365   9.026  71.271  1.00  0.00    -0.319 A  
HETATM    4  C   UNK A   0     -12.488  11.056  70.951  1.00  0.00    -0.509 A  
HETATM    5  C   UNK A   0     -12.339   9.881  71.755  1.00  0.00    -0.456 A  
HETATM    6  S   UNK A   0     -10.472   9.806  70.032  1.00  0.00    -0.289 SA 
HETATM    7  C   UNK A   0     -11.581  11.093  69.911  1.00  0.00    -0.337 A  
BRANCH   7   8
HETATM    8  C   UNK A   0     -11.517  12.026  68.800  1.00  0.00    -0.300 C  
HETATM    9  O   UNK A   0     -12.056  11.826  67.717  1.00  0.00    -0.595 OA 
ATOM     10  N   GLU A   1     -10.750  13.160  69.029  1.00  0.00    -0.409 N  
ATOM     11  H   GLU A   1     -10.287  13.275  69.930  1.00  0.00     0.000 HD 
BRANCH  10  12
ATOM     12  CA  GLU A   1     -10.591  14.195  68.003  1.00  0.00    -0.239 C  
ATOM     13  C   GLU A   1      -9.238  14.906  68.187  1.00  0.00    -0.186 C  
ATOM     14  O   GLU A   1      -8.761  14.856  69.455  1.00  0.00    -0.150 OA 
ATOM     15  OXT GLU A   1      -8.701  15.584  67.321  1.00  0.00    -0.175 OA 
BRANCH  12  16
ATOM     16  CB  GLU A   1     -11.744  15.200  68.112  1.00  0.00    -0.323 C  
BRANCH  16  17
ATOM     17  CG  GLU A   1     -11.612  16.119  69.326  1.00  0.00    -0.270 C  
ATOM     18  CD  GLU A   1     -12.142  15.478  70.583  1.00  0.00    -0.389 C  
ATOM     19  OE2 GLU A   1     -13.034  14.650  70.612  1.00  0.00    -0.352 OA 
ATOM     20  OE1 GLU A   1     -11.544  15.949  71.701  1.00  0.00    -0.411 OA 
ENDBRANCH  16  17
ENDBRANCH  12  16
ENDBRANCH  10  12
ENDBRANCH   7   8
ENDBRANCH   2   3
BRANCH   2  21
HETATM   21  C   UNK A   0     -11.845   6.673  71.018  1.00  0.00    -0.372 C  
BRANCH  21  22
HETATM   22  C   UNK A   0     -11.045   5.965  69.946  1.00  0.00    -0.417 A  
HETATM   23  C   UNK A   0      -9.459   4.250  69.274  1.00  0.00    -0.254 A  
HETATM   24  C   UNK A   0      -9.585   4.625  67.936  1.00  0.00    -0.157 A  
HETATM   25  C   UNK A   0     -10.178   4.911  70.274  1.00  0.00    -0.299 A  
HETATM   26  H   UNK A   0      -7.308   1.653  68.760  1.00  0.00     0.000 HD 
HETATM   27  C   UNK A   0     -10.424   5.689  67.605  1.00  0.00    -0.284 A  
HETATM   28  C   UNK A   0      -7.377   2.096  66.254  1.00  0.00    -0.061 C  
HETATM   29  N   UNK A   0      -8.844   3.940  66.973  1.00  0.00    -0.118 NA 
HETATM   30  N   UNK A   0      -7.904   2.456  68.564  1.00  0.00    -0.053 N  
HETATM   31  C   UNK A   0     -11.152   6.347  68.602  1.00  0.00    -0.393 A  
HETATM   32  C   UNK A   0      -8.543   3.124  69.591  1.00  0.00    -0.066 C  
HETATM   33  O   UNK A   0      -8.384   2.824  70.771  1.00  0.00    -0.052 OA 
HETATM   34  C   UNK A   0      -8.078   2.868  67.348  1.00  0.00    -0.077 C  
ENDBRANCH  21  22
ENDBRANCH   2  21
TORSDOF 7
ENDMDL
MODEL       93
REMARK 921   NORMALIZED FREE ENERGY PREDICTED BY IDOCK:   -6.18 KCAL/MOL
REMARK 922        TOTAL FREE ENERGY PREDICTED BY IDOCK:   -9.84 KCAL/MOL
REMARK 923 INTER-LIGAND FREE ENERGY PREDICTED BY IDOCK:   -8.80 KCAL/MOL
REMARK 924 INTRA-LIGAND FREE ENERGY PREDICTED BY IDOCK:   -1.04 KCAL/MOL
REMARK 927      BINDING AFFINITY PREDICTED BY RF-SCORE:    0.00 PKD
ROOT
HETATM    1  C   UNK A   0      -8.259  11.510  66.050  1.00  0.00     0.089 C  
HETATM    2  N   UNK A   0      -9.503  11.863  65.374  1.00  0.00    -0.400 NA 
ENDROOT
BRANCH   2   3
HETATM    3  C   UNK A   0      -9.962  13.150  65.486  1.00  0.00    -0.207 A  
HETATM    4  C   UNK A   0     -10.953  15.220  65.017  1.00  0.00    -0.450 A  
HETATM    5  C   UNK A   0     -10.902  13.820  64.724  1.00  0.00    -0.410 A  
HETATM    6  S   UNK A   0      -9.378  14.183  66.725  1.00  0.00    -0.279 SA 
HETATM    7  C   UNK A   0     -10.092  15.568  66.038  1.00  0.00    -0.332 A  
BRANCH   7   8
HETATM    8  C   UNK A   0      -9.741  16.896  66.512  1.00  0.00    -0.281 C  
HETATM    9  O   UNK A   0     -10.552  17.809  66.627  1.00  0.00    -0.314 OA 
ATOM     10  N   GLU A   1      -8.394  17.085  66.785  1.00  0.00    -0.215 N  
ATOM     11  H   GLU A   1      -7.743  16.312  66.643  1.00  0.00     0.000 HD 
BRANCH  10  12
ATOM     12  CA  GLU A   1      -7.886  18.370  67.273  1.00  0.00    -0.230 C  
ATOM     13  C   GLU A   1      -7.311  19.182  66.098  1.00  0.00    -0.271 C  
ATOM     14  O   GLU A   1      -6.894  18.419  65.057  1.00  0.00    -0.457 OA 
ATOM     15  OXT GLU A   1      -7.102  20.387  66.139  1.00  0.00    -0.266 OA 
BRANCH  12  16
ATOM     16  CB  GLU A   1      -6.806  18.121  68.332  1.00  0.00    -0.231 C  
BRANCH  16  17
ATOM     17  CG  GLU A   1      -6.906  16.731  68.960  1.00  0.00    -0.218 C  
ATOM     18  CD  GLU A   1      -5.942  15.756  68.335  1.00  0.00    -0.107 C  
ATOM     19  OE2 GLU A   1      -5.550  15.814  67.184  1.00  0.00    -0.337 OA 
ATOM     20  OE1 GLU A   1      -5.576  14.768  69.184  1.00  0.00    -0.094 OA 
ENDBRANCH  16  17
ENDBRANCH  12  16
ENDBRANCH  10  12
ENDBRANCH   7   8
ENDBRANCH   2   3
BRANCH   2  21
HETATM   21  C   UNK A   0     -10.535  10.808  65.353  1.00  0.00    -0.202 C  
BRANCH  21  22
HETATM   22  C   UNK A   0     -10.591  10.064  66.670  1.00  0.00    -0.196 A  
HETATM   23  C   UNK A   0     -11.145   9.989  69.035  1.00  0.00    -0.221 A  
HETATM   24  C   UNK A   0     -10.727   8.660  69.115  1.00  0.00    -0.118 A  
HETATM   25  C   UNK A   0     -11.078  10.691  67.828  1.00  0.00    -0.385 A  
HETATM   26  H   UNK A   0     -12.174  10.278  72.275  1.00  0.00     0.000 HD 
HETATM   27  C   UNK A   0     -10.216   8.040  67.975  1.00  0.00    -0.260 A  
HETATM   28  C   UNK A   0     -11.525   7.852  72.693  1.00  0.00    -0.454 C  
HETATM   29  N   UNK A   0     -10.807   8.002  70.342  1.00  0.00    -0.245 NA 
HETATM   30  N   UNK A   0     -11.777   9.872  71.428  1.00  0.00    -0.381 N  
HETATM   31  C   UNK A   0     -10.156   8.736  66.762  1.00  0.00    -0.359 A  
HETATM   32  C   UNK A   0     -11.666  10.623  70.274  1.00  0.00    -0.344 C  
HETATM   33  O   UNK A   0     -11.984  11.808  70.226  1.00  0.00    -0.340 OA 
HETATM   34  C   UNK A   0     -11.367   8.643  71.415  1.00  0.00    -0.284 C  
ENDBRANCH  21  22
ENDBRANCH   2  21
TORSDOF 7
ENDMDL
MODEL       94
REMARK 921   NORMALIZED FREE ENERGY PREDICTED BY IDOCK:   -6.16 KCAL/MOL
REMARK 922        TOTAL FREE ENERGY PREDICTED BY IDOCK:   -9.82 KCAL/MOL
REMARK 923 INTER-LIGAND FREE ENERGY PREDICTED BY IDOCK:   -8.79 KCAL/MOL
REMARK 924 INTRA-LIGAND FREE ENERGY PREDICTED BY IDOCK:   -1.03 KCAL/MOL
REMARK 927      BINDING AFFINITY PREDICTED BY RF-SCORE:    0.00 PKD
ROOT
HETATM    1  C   UNK A   0      -9.697   4.348  72.858  1.00  0.00    -0.138 C  
HETATM    2  N   UNK A   0      -9.486   5.711  72.380  1.00  0.00    -0.144 NA 
ENDROOT
BRANCH   2   3
HETATM    3  C   UNK A   0     -10.583   6.506  72.175  1.00  0.00    -0.214 A  
HETATM    4  C   UNK A   0     -12.729   7.252  71.606  1.00  0.00    -0.410 A  
HETATM    5  C   UNK A   0     -11.910   6.151  72.013  1.00  0.00    -0.336 A  
HETATM    6  S   UNK A   0     -10.427   8.212  72.109  1.00  0.00    -0.311 SA 
HETATM    7  C   UNK A   0     -12.014   8.431  71.530  1.00  0.00    -0.299 A  
BRANCH   7   8
HETATM    8  C   UNK A   0     -12.444   9.716  71.009  1.00  0.00    -0.296 C  
HETATM    9  O   UNK A   0     -13.370  10.364  71.484  1.00  0.00    -0.361 OA 
ATOM     10  N   GLU A   1     -11.757  10.153  69.885  1.00  0.00    -0.403 N  
ATOM     11  H   GLU A   1     -11.015   9.571  69.496  1.00  0.00     0.000 HD 
BRANCH  10  12
ATOM     12  CA  GLU A   1     -12.074  11.433  69.245  1.00  0.00    -0.289 C  
ATOM     13  C   GLU A   1     -11.637  11.400  67.769  1.00  0.00    -0.251 C  
ATOM     14  O   GLU A   1     -10.633  10.524  67.515  1.00  0.00    -0.221 OA 
ATOM     15  OXT GLU A   1     -12.039  12.185  66.921  1.00  0.00    -0.600 OA 
BRANCH  12  16
ATOM     16  CB  GLU A   1     -11.358  12.566  69.990  1.00  0.00     0.040 C  
BRANCH  16  17
ATOM     17  CG  GLU A   1     -12.065  13.912  69.836  1.00  0.00    -0.406 C  
ATOM     18  CD  GLU A   1     -12.859  14.280  71.063  1.00  0.00    -0.357 C  
ATOM     19  OE2 GLU A   1     -13.363  13.476  71.826  1.00  0.00    -0.380 OA 
ATOM     20  OE1 GLU A   1     -12.991  15.617  71.217  1.00  0.00    -0.474 OA 
ENDBRANCH  16  17
ENDBRANCH  12  16
ENDBRANCH  10  12
ENDBRANCH   7   8
ENDBRANCH   2   3
BRANCH   2  21
HETATM   21  C   UNK A   0      -8.374   5.882  71.425  1.00  0.00    -0.128 C  
BRANCH  21  22
HETATM   22  C   UNK A   0      -8.692   5.248  70.088  1.00  0.00    -0.133 A  
HETATM   23  C   UNK A   0      -9.840   5.290  67.946  1.00  0.00    -0.189 A  
HETATM   24  C   UNK A   0      -9.253   4.078  67.581  1.00  0.00    -0.160 A  
HETATM   25  C   UNK A   0      -9.568   5.873  69.187  1.00  0.00    -0.166 A  
HETATM   26  H   UNK A   0     -11.530   5.809  65.028  1.00  0.00     0.000 HD 
HETATM   27  C   UNK A   0      -8.404   3.437  68.482  1.00  0.00    -0.094 A  
HETATM   28  C   UNK A   0     -10.572   3.644  64.093  1.00  0.00    -0.246 C  
HETATM   29  N   UNK A   0      -9.559   3.531  66.335  1.00  0.00    -0.367 NA 
HETATM   30  N   UNK A   0     -10.942   5.357  65.728  1.00  0.00    -0.684 N  
HETATM   31  C   UNK A   0      -8.121   4.022  69.722  1.00  0.00    -0.060 A  
HETATM   32  C   UNK A   0     -10.755   5.935  66.968  1.00  0.00    -0.318 C  
HETATM   33  O   UNK A   0     -11.318   6.973  67.303  1.00  0.00    -0.207 OA 
HETATM   34  C   UNK A   0     -10.357   4.230  65.469  1.00  0.00    -0.188 C  
ENDBRANCH  21  22
ENDBRANCH   2  21
TORSDOF 7
ENDMDL
MODEL       95
REMARK 921   NORMALIZED FREE ENERGY PREDICTED BY IDOCK:   -6.15 KCAL/MOL
REMARK 922        TOTAL FREE ENERGY PREDICTED BY IDOCK:   -9.80 KCAL/MOL
REMARK 923 INTER-LIGAND FREE ENERGY PREDICTED BY IDOCK:   -9.09 KCAL/MOL
REMARK 924 INTRA-LIGAND FREE ENERGY PREDICTED BY IDOCK:   -0.71 KCAL/MOL
REMARK 927      BINDING AFFINITY PREDICTED BY RF-SCORE:    0.00 PKD
ROOT
HETATM    1  C   UNK A   0      -8.647  10.878  68.554  1.00  0.00    -0.152 C  
HETATM    2  N   UNK A   0      -9.963  11.140  67.978  1.00  0.00    -0.172 NA 
ENDROOT
BRANCH   2   3
HETATM    3  C   UNK A   0     -10.527  12.373  68.179  1.00  0.00    -0.219 A  
HETATM    4  C   UNK A   0     -12.030  14.169  68.195  1.00  0.00    -0.367 A  
HETATM    5  C   UNK A   0     -11.858  12.748  68.146  1.00  0.00    -0.372 A  
HETATM    6  S   UNK A   0      -9.550  13.731  68.556  1.00  0.00    -0.128 SA 
HETATM    7  C   UNK A   0     -10.828  14.834  68.326  1.00  0.00    -0.249 A  
BRANCH   7   8
HETATM    8  C   UNK A   0     -10.572  16.261  68.252  1.00  0.00    -0.300 C  
HETATM    9  O   UNK A   0     -10.934  17.059  69.110  1.00  0.00    -0.234 OA 
ATOM     10  N   GLU A   1      -9.921  16.682  67.101  1.00  0.00    -0.262 N  
ATOM     11  H   GLU A   1      -9.666  15.994  66.392  1.00  0.00     0.000 HD 
BRANCH  10  12
ATOM     12  CA  GLU A   1      -9.591  18.093  66.883  1.00  0.00    -0.299 C  
ATOM     13  C   GLU A   1     -10.492  18.674  65.777  1.00  0.00    -0.256 C  
ATOM     14  O   GLU A   1     -10.960  17.744  64.908  1.00  0.00    -0.866 OA 
ATOM     15  OXT GLU A   1     -10.661  19.872  65.594  1.00  0.00    -0.495 OA 
BRANCH  12  16
ATOM     16  CB  GLU A   1      -8.114  18.215  66.488  1.00  0.00    -0.295 C  
BRANCH  16  17
ATOM     17  CG  GLU A   1      -7.208  18.509  67.683  1.00  0.00    -0.221 C  
ATOM     18  CD  GLU A   1      -7.016  19.988  67.900  1.00  0.00    -0.275 C  
ATOM     19  OE2 GLU A   1      -7.055  20.826  67.017  1.00  0.00    -0.304 OA 
ATOM     20  OE1 GLU A   1      -6.756  20.296  69.191  1.00  0.00    -0.271 OA 
ENDBRANCH  16  17
ENDBRANCH  12  16
ENDBRANCH  10  12
ENDBRANCH   7   8
ENDBRANCH   2   3
BRANCH   2  21
HETATM   21  C   UNK A   0     -10.893   9.994  67.976  1.00  0.00    -0.260 C  
BRANCH  21  22
HETATM   22  C   UNK A   0     -10.910   9.294  69.317  1.00  0.00    -0.170 A  
HETATM   23  C   UNK A   0     -10.540   7.311  70.674  1.00  0.00    -0.240 A  
HETATM   24  C   UNK A   0     -10.906   8.004  71.828  1.00  0.00    -0.242 A  
HETATM   25  C   UNK A   0     -10.541   7.944  69.427  1.00  0.00    -0.209 A  
HETATM   26  H   UNK A   0      -9.780   4.359  72.205  1.00  0.00     0.000 HD 
HETATM   27  C   UNK A   0     -11.300   9.337  71.723  1.00  0.00    -0.437 A  
HETATM   28  C   UNK A   0     -10.357   5.385  74.462  1.00  0.00    -0.272 C  
HETATM   29  N   UNK A   0     -10.895   7.330  73.049  1.00  0.00    -0.329 NA 
HETATM   30  N   UNK A   0     -10.092   5.321  72.080  1.00  0.00    -0.184 N  
HETATM   31  C   UNK A   0     -11.294   9.977  70.478  1.00  0.00    -0.409 A  
HETATM   32  C   UNK A   0     -10.143   5.886  70.821  1.00  0.00    -0.199 C  
HETATM   33  O   UNK A   0      -9.873   5.254  69.804  1.00  0.00    -0.173 OA 
HETATM   34  C   UNK A   0     -10.448   6.036  73.101  1.00  0.00    -0.230 C  
ENDBRANCH  21  22
ENDBRANCH   2  21
TORSDOF 7
ENDMDL
MODEL       96
REMARK 921   NORMALIZED FREE ENERGY PREDICTED BY IDOCK:   -6.12 KCAL/MOL
REMARK 922        TOTAL FREE ENERGY PREDICTED BY IDOCK:   -9.76 KCAL/MOL
REMARK 923 INTER-LIGAND FREE ENERGY PREDICTED BY IDOCK:   -8.67 KCAL/MOL
REMARK 924 INTRA-LIGAND FREE ENERGY PREDICTED BY IDOCK:   -1.09 KCAL/MOL
REMARK 927      BINDING AFFINITY PREDICTED BY RF-SCORE:    0.00 PKD
ROOT
HETATM    1  C   UNK A   0     -13.285  15.214  70.609  1.00  0.00    -0.309 C  
HETATM    2  N   UNK A   0     -12.045  14.684  70.051  1.00  0.00    -0.310 NA 
ENDROOT
BRANCH   2   3
HETATM    3  C   UNK A   0     -12.023  13.375  69.643  1.00  0.00    -0.324 A  
HETATM    4  C   UNK A   0     -11.910  11.036  69.638  1.00  0.00    -0.414 A  
HETATM    5  C   UNK A   0     -12.227  12.220  70.376  1.00  0.00    -0.371 A  
HETATM    6  S   UNK A   0     -11.730  12.976  68.001  1.00  0.00    -0.352 SA 
HETATM    7  C   UNK A   0     -11.531  11.318  68.341  1.00  0.00    -0.307 A  
BRANCH   7   8
HETATM    8  C   UNK A   0     -10.987  10.416  67.341  1.00  0.00    -0.270 C  
HETATM    9  O   UNK A   0     -10.655  10.774  66.216  1.00  0.00    -0.246 OA 
ATOM     10  N   GLU A   1     -10.913   9.086  67.729  1.00  0.00    -0.496 N  
ATOM     11  H   GLU A   1     -11.232   8.820  68.660  1.00  0.00     0.000 HD 
BRANCH  10  12
ATOM     12  CA  GLU A   1     -10.385   8.056  66.830  1.00  0.00    -0.290 C  
ATOM     13  C   GLU A   1     -10.939   6.678  67.235  1.00  0.00    -0.385 C  
ATOM     14  O   GLU A   1     -11.297   6.594  68.540  1.00  0.00    -0.196 OA 
ATOM     15  OXT GLU A   1     -10.925   5.696  66.505  1.00  0.00    -0.252 OA 
BRANCH  12  16
ATOM     16  CB  GLU A   1      -8.853   8.059  66.897  1.00  0.00    -0.146 C  
BRANCH  16  17
ATOM     17  CG  GLU A   1      -8.205   8.332  65.540  1.00  0.00    -0.138 C  
ATOM     18  CD  GLU A   1      -8.020   7.072  64.735  1.00  0.00    -0.122 C  
ATOM     19  OE2 GLU A   1      -7.852   5.966  65.214  1.00  0.00    -0.093 OA 
ATOM     20  OE1 GLU A   1      -8.022   7.300  63.402  1.00  0.00    -0.124 OA 
ENDBRANCH  16  17
ENDBRANCH  12  16
ENDBRANCH  10  12
ENDBRANCH   7   8
ENDBRANCH   2   3
BRANCH   2  21
HETATM   21  C   UNK A   0     -10.804  15.191  70.668  1.00  0.00    -0.179 C  
BRANCH  21  22
HETATM   22  C   UNK A   0      -9.936  15.905  69.655  1.00  0.00    -0.255 A  
HETATM   23  C   UNK A   0      -9.570  17.739  68.102  1.00  0.00    -0.303 A  
HETATM   24  C   UNK A   0      -8.298  17.255  67.794  1.00  0.00    -0.212 A  
HETATM   25  C   UNK A   0     -10.387  17.074  69.021  1.00  0.00    -0.330 A  
HETATM   26  H   UNK A   0      -9.423  20.523  66.136  1.00  0.00     0.000 HD 
HETATM   27  C   UNK A   0      -7.855  16.080  68.399  1.00  0.00    -0.149 A  
HETATM   28  C   UNK A   0      -7.062  19.892  65.425  1.00  0.00    -0.289 C  
HETATM   29  N   UNK A   0      -7.521  17.948  66.867  1.00  0.00    -0.192 NA 
HETATM   30  N   UNK A   0      -9.151  19.644  66.574  1.00  0.00    -0.356 N  
HETATM   31  C   UNK A   0      -8.665  15.416  69.327  1.00  0.00    -0.252 A  
HETATM   32  C   UNK A   0     -10.017  18.984  67.424  1.00  0.00    -0.342 C  
HETATM   33  O   UNK A   0     -11.155  19.386  67.647  1.00  0.00    -0.370 OA 
HETATM   34  C   UNK A   0      -7.985  19.126  66.344  1.00  0.00    -0.294 C  
ENDBRANCH  21  22
ENDBRANCH   2  21
TORSDOF 7
ENDMDL
MODEL       97
REMARK 921   NORMALIZED FREE ENERGY PREDICTED BY IDOCK:   -6.12 KCAL/MOL
REMARK 922        TOTAL FREE ENERGY PREDICTED BY IDOCK:   -9.75 KCAL/MOL
REMARK 923 INTER-LIGAND FREE ENERGY PREDICTED BY IDOCK:   -8.65 KCAL/MOL
REMARK 924 INTRA-LIGAND FREE ENERGY PREDICTED BY IDOCK:   -1.10 KCAL/MOL
REMARK 927      BINDING AFFINITY PREDICTED BY RF-SCORE:    0.00 PKD
ROOT
HETATM    1  C   UNK A   0     -11.805   8.508  72.246  1.00  0.00    -0.383 C  
HETATM    2  N   UNK A   0     -11.097   7.887  71.131  1.00  0.00    -0.251 NA 
ENDROOT
BRANCH   2   3
HETATM    3  C   UNK A   0     -10.285   8.675  70.357  1.00  0.00    -0.193 A  
HETATM    4  C   UNK A   0      -8.413   9.778  69.483  1.00  0.00    -0.176 A  
HETATM    5  C   UNK A   0      -8.908   8.658  70.223  1.00  0.00    -0.158 A  
HETATM    6  S   UNK A   0     -10.951   9.886  69.341  1.00  0.00    -0.209 SA 
HETATM    7  C   UNK A   0      -9.432  10.586  69.019  1.00  0.00    -0.201 A  
BRANCH   7   8
HETATM    8  C   UNK A   0      -9.334  11.884  68.374  1.00  0.00    -0.184 C  
HETATM    9  O   UNK A   0      -8.268  12.415  68.080  1.00  0.00    -0.148 OA 
ATOM     10  N   GLU A   1     -10.546  12.521  68.151  1.00  0.00    -0.219 N  
ATOM     11  H   GLU A   1     -11.411  12.064  68.441  1.00  0.00     0.000 HD 
BRANCH  10  12
ATOM     12  CA  GLU A   1     -10.611  13.835  67.507  1.00  0.00    -0.244 C  
ATOM     13  C   GLU A   1     -11.489  14.783  68.345  1.00  0.00    -0.314 C  
ATOM     14  O   GLU A   1     -12.404  14.144  69.115  1.00  0.00    -0.301 OA 
ATOM     15  OXT GLU A   1     -11.479  16.002  68.231  1.00  0.00    -0.355 OA 
BRANCH  12  16
ATOM     16  CB  GLU A   1     -11.187  13.682  66.094  1.00  0.00    -0.309 C  
BRANCH  16  17
ATOM     17  CG  GLU A   1     -10.688  14.761  65.134  1.00  0.00    -0.433 C  
ATOM     18  CD  GLU A   1     -11.814  15.399  64.362  1.00  0.00    -0.256 C  
ATOM     19  OE2 GLU A   1     -12.855  14.838  64.069  1.00  0.00    -0.697 OA 
ATOM     20  OE1 GLU A   1     -11.536  16.668  63.986  1.00  0.00    -1.197 OA 
ENDBRANCH  16  17
ENDBRANCH  12  16
ENDBRANCH  10  12
ENDBRANCH   7   8
ENDBRANCH   2   3
BRANCH   2  21
HETATM   21  C   UNK A   0     -11.839   6.827  70.420  1.00  0.00    -0.338 C  
BRANCH  21  22
HETATM   22  C   UNK A   0     -10.904   5.764  69.885  1.00  0.00    -0.417 A  
HETATM   23  C   UNK A   0      -9.974   4.507  68.024  1.00  0.00    -0.102 A  
HETATM   24  C   UNK A   0      -9.132   3.806  68.888  1.00  0.00    -0.142 A  
HETATM   25  C   UNK A   0     -10.855   5.476  68.512  1.00  0.00    -0.072 A  
HETATM   26  H   UNK A   0      -8.860   3.076  65.134  1.00  0.00     0.000 HD 
HETATM   27  C   UNK A   0      -9.195   4.066  70.256  1.00  0.00    -0.210 A  
HETATM   28  C   UNK A   0      -7.195   1.687  66.468  1.00  0.00    -0.051 C  
HETATM   29  N   UNK A   0      -8.274   2.844  68.357  1.00  0.00    -0.064 NA 
HETATM   30  N   UNK A   0      -8.961   3.273  66.130  1.00  0.00    -0.140 N  
HETATM   31  C   UNK A   0     -10.069   5.043  70.748  1.00  0.00    -0.307 A  
HETATM   32  C   UNK A   0      -9.893   4.190  66.574  1.00  0.00    -0.192 C  
HETATM   33  O   UNK A   0     -10.668   4.762  65.814  1.00  0.00    -0.305 OA 
HETATM   34  C   UNK A   0      -8.216   2.667  67.000  1.00  0.00    -0.082 C  
ENDBRANCH  21  22
ENDBRANCH   2  21
TORSDOF 7
ENDMDL
MODEL       98
REMARK 921   NORMALIZED FREE ENERGY PREDICTED BY IDOCK:   -6.11 KCAL/MOL
REMARK 922        TOTAL FREE ENERGY PREDICTED BY IDOCK:   -9.74 KCAL/MOL
REMARK 923 INTER-LIGAND FREE ENERGY PREDICTED BY IDOCK:   -8.40 KCAL/MOL
REMARK 924 INTRA-LIGAND FREE ENERGY PREDICTED BY IDOCK:   -1.34 KCAL/MOL
REMARK 927      BINDING AFFINITY PREDICTED BY RF-SCORE:    0.00 PKD
ROOT
HETATM    1  C   UNK A   0     -11.872  13.989  70.615  1.00  0.00    -0.239 C  
HETATM    2  N   UNK A   0     -11.304  13.078  69.626  1.00  0.00    -0.477 NA 
ENDROOT
BRANCH   2   3
HETATM    3  C   UNK A   0     -10.519  13.604  68.633  1.00  0.00    -0.234 A  
HETATM    4  C   UNK A   0      -8.699  14.087  67.240  1.00  0.00    -0.227 A  
HETATM    5  C   UNK A   0      -9.317  13.146  68.124  1.00  0.00    -0.217 A  
HETATM    6  S   UNK A   0     -10.996  15.027  67.802  1.00  0.00    -0.308 SA 
HETATM    7  C   UNK A   0      -9.478  15.211  67.050  1.00  0.00    -0.226 A  
BRANCH   7   8
HETATM    8  C   UNK A   0      -9.136  16.443  66.362  1.00  0.00    -0.306 C  
HETATM    9  O   UNK A   0      -9.848  16.962  65.510  1.00  0.00    -0.559 OA 
ATOM     10  N   GLU A   1      -7.902  16.980  66.700  1.00  0.00    -0.234 N  
ATOM     11  H   GLU A   1      -7.320  16.501  67.387  1.00  0.00     0.000 HD 
BRANCH  10  12
ATOM     12  CA  GLU A   1      -7.417  18.222  66.091  1.00  0.00    -0.256 C  
ATOM     13  C   GLU A   1      -5.964  18.036  65.617  1.00  0.00    -0.191 C  
ATOM     14  O   GLU A   1      -5.286  17.075  66.291  1.00  0.00    -0.346 OA 
ATOM     15  OXT GLU A   1      -5.409  18.775  64.814  1.00  0.00    -0.174 OA 
BRANCH  12  16
ATOM     16  CB  GLU A   1      -7.505  19.359  67.115  1.00  0.00    -0.248 C  
BRANCH  16  17
ATOM     17  CG  GLU A   1      -8.860  20.067  67.095  1.00  0.00    -0.429 C  
ATOM     18  CD  GLU A   1      -9.748  19.624  68.229  1.00  0.00    -0.402 C  
ATOM     19  OE2 GLU A   1      -9.708  18.523  68.747  1.00  0.00    -0.357 OA 
ATOM     20  OE1 GLU A   1     -10.637  20.574  68.597  1.00  0.00    -0.087 OA 
ENDBRANCH  16  17
ENDBRANCH  12  16
ENDBRANCH  10  12
ENDBRANCH   7   8
ENDBRANCH   2   3
BRANCH   2  21
HETATM   21  C   UNK A   0     -12.166  11.945  69.239  1.00  0.00    -0.109 C  
BRANCH  21  22
HETATM   22  C   UNK A   0     -11.596  10.628  69.719  1.00  0.00    -0.385 A  
HETATM   23  C   UNK A   0     -10.212   8.664  69.356  1.00  0.00    -0.211 A  
HETATM   24  C   UNK A   0     -10.506   8.191  70.635  1.00  0.00    -0.210 A  
HETATM   25  C   UNK A   0     -10.750   9.869  68.896  1.00  0.00    -0.244 A  
HETATM   26  H   UNK A   0      -8.083   6.145  68.481  1.00  0.00     0.000 HD 
HETATM   27  C   UNK A   0     -11.367   8.926  71.449  1.00  0.00    -0.380 A  
HETATM   28  C   UNK A   0      -8.414   5.076  70.767  1.00  0.00    -0.119 C  
HETATM   29  N   UNK A   0      -9.950   6.981  71.050  1.00  0.00    -0.189 NA 
HETATM   30  N   UNK A   0      -8.742   6.695  69.030  1.00  0.00    -0.129 N  
HETATM   31  C   UNK A   0     -11.901  10.138  70.996  1.00  0.00    -0.475 A  
HETATM   32  C   UNK A   0      -9.304   7.845  68.510  1.00  0.00    -0.141 C  
HETATM   33  O   UNK A   0      -9.084   8.225  67.364  1.00  0.00    -0.138 OA 
HETATM   34  C   UNK A   0      -9.068   6.328  70.230  1.00  0.00    -0.154 C  
ENDBRANCH  21  22
ENDBRANCH   2  21
TORSDOF 7
ENDMDL
MODEL       99
REMARK 921   NORMALIZED FREE ENERGY PREDICTED BY IDOCK:   -6.10 KCAL/MOL
REMARK 922        TOTAL FREE ENERGY PREDICTED BY IDOCK:   -9.73 KCAL/MOL
REMARK 923 INTER-LIGAND FREE ENERGY PREDICTED BY IDOCK:   -8.86 KCAL/MOL
REMARK 924 INTRA-LIGAND FREE ENERGY PREDICTED BY IDOCK:   -0.87 KCAL/MOL
REMARK 927      BINDING AFFINITY PREDICTED BY RF-SCORE:    0.00 PKD
ROOT
HETATM    1  C   UNK A   0     -11.694  12.381  69.667  1.00  0.00    -0.307 C  
HETATM    2  N   UNK A   0     -11.296  13.056  68.436  1.00  0.00    -0.270 NA 
ENDROOT
BRANCH   2   3
HETATM    3  C   UNK A   0     -11.086  14.410  68.474  1.00  0.00    -0.253 A  
HETATM    4  C   UNK A   0     -11.355  16.705  68.853  1.00  0.00    -0.123 A  
HETATM    5  C   UNK A   0     -11.693  15.374  69.257  1.00  0.00    -0.367 A  
HETATM    6  S   UNK A   0      -9.907  15.141  67.465  1.00  0.00    -0.220 SA 
HETATM    7  C   UNK A   0     -10.449  16.718  67.812  1.00  0.00    -0.335 A  
BRANCH   7   8
HETATM    8  C   UNK A   0      -9.988  17.850  67.028  1.00  0.00    -0.324 C  
HETATM    9  O   UNK A   0     -10.740  18.603  66.419  1.00  0.00    -0.362 OA 
ATOM     10  N   GLU A   1      -8.610  18.002  66.970  1.00  0.00    -0.239 N  
ATOM     11  H   GLU A   1      -8.014  17.335  67.461  1.00  0.00     0.000 HD 
BRANCH  10  12
ATOM     12  CA  GLU A   1      -7.992  19.099  66.220  1.00  0.00    -0.300 C  
ATOM     13  C   GLU A   1      -6.728  18.592  65.501  1.00  0.00    -0.235 C  
ATOM     14  O   GLU A   1      -6.159  17.512  66.092  1.00  0.00    -0.206 OA 
ATOM     15  OXT GLU A   1      -6.188  19.180  64.575  1.00  0.00    -0.430 OA 
BRANCH  12  16
ATOM     16  CB  GLU A   1      -7.640  20.239  67.183  1.00  0.00    -0.354 C  
BRANCH  16  17
ATOM     17  CG  GLU A   1      -7.358  19.745  68.602  1.00  0.00    -0.342 C  
ATOM     18  CD  GLU A   1      -6.122  20.378  69.188  1.00  0.00    -0.337 C  
ATOM     19  OE2 GLU A   1      -5.167  20.760  68.536  1.00  0.00    -0.251 OA 
ATOM     20  OE1 GLU A   1      -6.162  20.449  70.537  1.00  0.00    -0.487 OA 
ENDBRANCH  16  17
ENDBRANCH  12  16
ENDBRANCH  10  12
ENDBRANCH   7   8
ENDBRANCH   2   3
BRANCH   2  21
HETATM   21  C   UNK A   0     -11.908  12.530  67.199  1.00  0.00    -0.316 C  
BRANCH  21  22
HETATM   22  C   UNK A   0     -11.042  11.463  66.566  1.00  0.00    -0.312 A  
HETATM   23  C   UNK A   0     -10.204   9.182  66.499  1.00  0.00    -0.322 A  
HETATM   24  C   UNK A   0      -9.454   9.466  65.358  1.00  0.00    -0.253 A  
HETATM   25  C   UNK A   0     -10.991  10.167  67.103  1.00  0.00    -0.204 A  
HETATM   26  H   UNK A   0      -9.384   5.877  66.703  1.00  0.00     0.000 HD 
HETATM   27  C   UNK A   0      -9.478  10.758  64.834  1.00  0.00    -0.288 A  
HETATM   28  C   UNK A   0      -7.959   6.105  64.605  1.00  0.00    -0.124 C  
HETATM   29  N   UNK A   0      -8.679   8.454  64.792  1.00  0.00    -0.401 NA 
HETATM   30  N   UNK A   0      -9.403   6.841  66.372  1.00  0.00    -0.231 N  
HETATM   31  C   UNK A   0     -10.272  11.745  65.430  1.00  0.00    -0.301 A  
HETATM   32  C   UNK A   0     -10.140   7.799  67.040  1.00  0.00    -0.273 C  
HETATM   33  O   UNK A   0     -10.753   7.555  68.075  1.00  0.00    -0.186 OA 
HETATM   34  C   UNK A   0      -8.736   7.190  65.317  1.00  0.00     0.096 C  
ENDBRANCH  21  22
ENDBRANCH   2  21
TORSDOF 7
ENDMDL
MODEL      100
REMARK 921   NORMALIZED FREE ENERGY PREDICTED BY IDOCK:   -6.10 KCAL/MOL
REMARK 922        TOTAL FREE ENERGY PREDICTED BY IDOCK:   -9.73 KCAL/MOL
REMARK 923 INTER-LIGAND FREE ENERGY PREDICTED BY IDOCK:   -8.64 KCAL/MOL
REMARK 924 INTRA-LIGAND FREE ENERGY PREDICTED BY IDOCK:   -1.08 KCAL/MOL
REMARK 927      BINDING AFFINITY PREDICTED BY RF-SCORE:    0.00 PKD
ROOT
HETATM    1  C   UNK A   0      -8.355   8.396  66.141  1.00  0.00    -0.125 C  
HETATM    2  N   UNK A   0      -9.018   9.399  66.969  1.00  0.00    -0.129 NA 
ENDROOT
BRANCH   2   3
HETATM    3  C   UNK A   0      -9.825  10.320  66.353  1.00  0.00    -0.217 A  
HETATM    4  C   UNK A   0     -10.850  11.670  64.737  1.00  0.00    -0.367 A  
HETATM    5  C   UNK A   0     -10.150  10.452  65.016  1.00  0.00    -0.379 A  
HETATM    6  S   UNK A   0     -10.624  11.531  67.267  1.00  0.00    -0.241 SA 
HETATM    7  C   UNK A   0     -11.092  12.403  65.881  1.00  0.00    -0.313 A  
BRANCH   7   8
HETATM    8  C   UNK A   0     -11.626  13.749  65.996  1.00  0.00    -0.346 C  
HETATM    9  O   UNK A   0     -12.708  14.090  65.529  1.00  0.00    -0.520 OA 
ATOM     10  N   GLU A   1     -10.797  14.657  66.637  1.00  0.00    -0.306 N  
ATOM     11  H   GLU A   1      -9.888  14.346  66.982  1.00  0.00     0.000 HD 
BRANCH  10  12
ATOM     12  CA  GLU A   1     -11.197  16.053  66.832  1.00  0.00     0.065 C  
ATOM     13  C   GLU A   1     -10.324  16.972  65.958  1.00  0.00    -0.315 C  
ATOM     14  O   GLU A   1      -9.110  16.448  65.655  1.00  0.00    -0.446 OA 
ATOM     15  OXT GLU A   1     -10.617  18.127  65.678  1.00  0.00    -0.611 OA 
BRANCH  12  16
ATOM     16  CB  GLU A   1     -11.049  16.423  68.312  1.00  0.00    -0.337 C  
BRANCH  16  17
ATOM     17  CG  GLU A   1     -10.866  15.200  69.210  1.00  0.00    -0.255 C  
ATOM     18  CD  GLU A   1     -12.077  14.940  70.069  1.00  0.00    -0.338 C  
ATOM     19  OE2 GLU A   1     -12.844  15.802  70.459  1.00  0.00    -0.423 OA 
ATOM     20  OE1 GLU A   1     -12.211  13.636  70.401  1.00  0.00    -0.334 OA 
ENDBRANCH  16  17
ENDBRANCH  12  16
ENDBRANCH  10  12
ENDBRANCH   7   8
ENDBRANCH   2   3
BRANCH   2  21
HETATM   21  C   UNK A   0      -8.234   9.889  68.119  1.00  0.00    -0.109 C  
BRANCH  21  22
HETATM   22  C   UNK A   0      -8.567   9.122  69.381  1.00  0.00    -0.138 A  
HETATM   23  C   UNK A   0      -9.874   7.441  70.552  1.00  0.00    -0.180 A  
HETATM   24  C   UNK A   0      -9.156   7.667  71.727  1.00  0.00    -0.133 A  
HETATM   25  C   UNK A   0      -9.588   8.160  69.387  1.00  0.00    -0.167 A  
HETATM   26  H   UNK A   0     -11.843   4.933  71.765  1.00  0.00     0.000 HD 
HETATM   27  C   UNK A   0      -8.159   8.641  71.735  1.00  0.00    -0.170 A  
HETATM   28  C   UNK A   0     -10.673   5.110  74.019  1.00  0.00    -0.320 C  
HETATM   29  N   UNK A   0      -9.480   6.930  72.866  1.00  0.00    -0.138 NA 
HETATM   30  N   UNK A   0     -11.145   5.676  71.738  1.00  0.00    -0.236 N  
HETATM   31  C   UNK A   0      -7.863   9.356  70.569  1.00  0.00    -0.185 A  
HETATM   32  C   UNK A   0     -10.943   6.408  70.585  1.00  0.00    -0.298 C  
HETATM   33  O   UNK A   0     -11.615   6.241  69.572  1.00  0.00    -0.423 OA 
HETATM   34  C   UNK A   0     -10.433   5.949  72.785  1.00  0.00    -0.209 C  
ENDBRANCH  21  22
ENDBRANCH   2  21
TORSDOF 7
ENDMDL
MODEL      101
REMARK 921   NORMALIZED FREE ENERGY PREDICTED BY IDOCK:   -6.09 KCAL/MOL
REMARK 922        TOTAL FREE ENERGY PREDICTED BY IDOCK:   -9.71 KCAL/MOL
REMARK 923 INTER-LIGAND FREE ENERGY PREDICTED BY IDOCK:   -8.40 KCAL/MOL
REMARK 924 INTRA-LIGAND FREE ENERGY PREDICTED BY IDOCK:   -1.31 KCAL/MOL
REMARK 927      BINDING AFFINITY PREDICTED BY RF-SCORE:    0.00 PKD
ROOT
HETATM    1  C   UNK A   0     -14.402   7.577  71.372  1.00  0.00    -0.394 C  
HETATM    2  N   UNK A   0     -13.223   8.427  71.508  1.00  0.00    -0.430 NA 
ENDROOT
BRANCH   2   3
HETATM    3  C   UNK A   0     -12.001   7.825  71.664  1.00  0.00    -0.297 A  
HETATM    4  C   UNK A   0      -9.916   7.185  72.516  1.00  0.00    -0.196 A  
HETATM    5  C   UNK A   0     -11.226   7.685  72.801  1.00  0.00    -0.431 A  
HETATM    6  S   UNK A   0     -11.218   7.079  70.333  1.00  0.00    -0.308 SA 
HETATM    7  C   UNK A   0      -9.749   6.899  71.176  1.00  0.00    -0.173 A  
BRANCH   7   8
HETATM    8  C   UNK A   0      -8.532   6.529  70.475  1.00  0.00    -0.138 C  
HETATM    9  O   UNK A   0      -7.657   5.823  70.965  1.00  0.00    -0.091 OA 
ATOM     10  N   GLU A   1      -8.395   7.076  69.207  1.00  0.00    -0.128 N  
ATOM     11  H   GLU A   1      -9.127   7.688  68.846  1.00  0.00     0.000 HD 
BRANCH  10  12
ATOM     12  CA  GLU A   1      -7.222   6.795  68.376  1.00  0.00    -0.085 C  
ATOM     13  C   GLU A   1      -6.591   8.116  67.901  1.00  0.00    -0.061 C  
ATOM     14  O   GLU A   1      -7.463   9.154  67.854  1.00  0.00    -0.083 OA 
ATOM     15  OXT GLU A   1      -5.452   8.209  67.461  1.00  0.00    -0.035 OA 
BRANCH  12  16
ATOM     16  CB  GLU A   1      -7.643   5.940  67.174  1.00  0.00    -0.096 C  
BRANCH  16  17
ATOM     17  CG  GLU A   1      -8.926   6.444  66.514  1.00  0.00    -0.153 C  
ATOM     18  CD  GLU A   1     -10.044   5.437  66.606  1.00  0.00    -0.216 C  
ATOM     19  OE2 GLU A   1      -9.885   4.231  66.654  1.00  0.00    -0.209 OA 
ATOM     20  OE1 GLU A   1     -11.268   6.014  66.593  1.00  0.00    -0.207 OA 
ENDBRANCH  16  17
ENDBRANCH  12  16
ENDBRANCH  10  12
ENDBRANCH   7   8
ENDBRANCH   2   3
BRANCH   2  21
HETATM   21  C   UNK A   0     -13.428   9.679  72.262  1.00  0.00    -0.400 C  
BRANCH  21  22
HETATM   22  C   UNK A   0     -12.978  10.884  71.464  1.00  0.00    -0.556 A  
HETATM   23  C   UNK A   0     -12.085  11.856  69.423  1.00  0.00    -0.277 A  
HETATM   24  C   UNK A   0     -12.174  13.138  69.968  1.00  0.00    -0.253 A  
HETATM   25  C   UNK A   0     -12.480  10.736  70.160  1.00  0.00    -0.357 A  
HETATM   26  H   UNK A   0     -10.935  12.805  66.355  1.00  0.00     0.000 HD 
HETATM   27  C   UNK A   0     -12.642  13.290  71.272  1.00  0.00    -0.398 A  
HETATM   28  C   UNK A   0     -11.028  15.244  67.078  1.00  0.00    -0.324 C  
HETATM   29  N   UNK A   0     -11.764  14.226  69.197  1.00  0.00    -0.299 NA 
HETATM   30  N   UNK A   0     -11.250  12.870  67.322  1.00  0.00    -0.275 N  
HETATM   31  C   UNK A   0     -13.047  12.172  72.010  1.00  0.00    -0.462 A  
HETATM   32  C   UNK A   0     -11.565  11.731  68.037  1.00  0.00    -0.316 C  
HETATM   33  O   UNK A   0     -11.432  10.603  67.571  1.00  0.00    -0.460 OA 
HETATM   34  C   UNK A   0     -11.363  14.023  67.903  1.00  0.00    -0.291 C  
ENDBRANCH  21  22
ENDBRANCH   2  21
TORSDOF 7
ENDMDL
MODEL      102
REMARK 921   NORMALIZED FREE ENERGY PREDICTED BY IDOCK:   -6.08 KCAL/MOL
REMARK 922        TOTAL FREE ENERGY PREDICTED BY IDOCK:   -9.70 KCAL/MOL
REMARK 923 INTER-LIGAND FREE ENERGY PREDICTED BY IDOCK:   -8.02 KCAL/MOL
REMARK 924 INTRA-LIGAND FREE ENERGY PREDICTED BY IDOCK:   -1.68 KCAL/MOL
REMARK 927      BINDING AFFINITY PREDICTED BY RF-SCORE:    0.00 PKD
ROOT
HETATM    1  C   UNK A   0      -7.598   4.876  66.256  1.00  0.00    -0.087 C  
HETATM    2  N   UNK A   0      -8.218   6.176  66.491  1.00  0.00    -0.109 NA 
ENDROOT
BRANCH   2   3
HETATM    3  C   UNK A   0      -9.196   6.268  67.447  1.00  0.00    -0.116 A  
HETATM    4  C   UNK A   0     -11.278   6.427  68.508  1.00  0.00    -0.321 A  
HETATM    5  C   UNK A   0     -10.551   6.009  67.348  1.00  0.00    -0.355 A  
HETATM    6  S   UNK A   0      -8.812   6.743  69.050  1.00  0.00    -0.128 SA 
HETATM    7  C   UNK A   0     -10.448   6.937  69.485  1.00  0.00    -0.223 A  
BRANCH   7   8
HETATM    8  C   UNK A   0     -10.812   7.602  70.724  1.00  0.00    -0.239 C  
HETATM    9  O   UNK A   0     -10.308   7.333  71.809  1.00  0.00    -0.196 OA 
ATOM     10  N   GLU A   1     -11.821   8.547  70.609  1.00  0.00    -0.471 N  
ATOM     11  H   GLU A   1     -12.241   8.719  69.695  1.00  0.00     0.000 HD 
BRANCH  10  12
ATOM     12  CA  GLU A   1     -12.297   9.303  71.770  1.00  0.00    -0.379 C  
ATOM     13  C   GLU A   1     -13.678   8.777  72.204  1.00  0.00    -0.447 C  
ATOM     14  O   GLU A   1     -14.377   8.186  71.204  1.00  0.00    -0.298 OA 
ATOM     15  OXT GLU A   1     -14.176   8.994  73.300  1.00  0.00    -0.244 OA 
BRANCH  12  16
ATOM     16  CB  GLU A   1     -12.379  10.791  71.410  1.00  0.00    -0.433 C  
BRANCH  16  17
ATOM     17  CG  GLU A   1     -12.400  11.031  69.901  1.00  0.00    -0.356 C  
ATOM     18  CD  GLU A   1     -11.766  12.346  69.527  1.00  0.00    -0.322 C  
ATOM     19  OE2 GLU A   1     -11.745  13.331  70.243  1.00  0.00    -0.257 OA 
ATOM     20  OE1 GLU A   1     -11.243  12.337  68.279  1.00  0.00    -0.228 OA 
ENDBRANCH  16  17
ENDBRANCH  12  16
ENDBRANCH  10  12
ENDBRANCH   7   8
ENDBRANCH   2   3
BRANCH   2  21
HETATM   21  C   UNK A   0      -8.404   7.016  65.292  1.00  0.00    -0.096 C  
BRANCH  21  22
HETATM   22  C   UNK A   0      -8.385   8.489  65.640  1.00  0.00    -0.154 A  
HETATM   23  C   UNK A   0      -9.327  10.721  65.448  1.00  0.00    -0.243 A  
HETATM   24  C   UNK A   0      -8.367  11.227  66.324  1.00  0.00    -0.142 A  
HETATM   25  C   UNK A   0      -9.340   9.366  65.103  1.00  0.00    -0.288 A  
HETATM   26  H   UNK A   0     -11.033  13.641  64.995  1.00  0.00     0.000 HD 
HETATM   27  C   UNK A   0      -7.398  10.367  66.840  1.00  0.00    -0.106 A  
HETATM   28  C   UNK A   0      -9.436  14.816  66.590  1.00  0.00    -0.293 C  
HETATM   29  N   UNK A   0      -8.390  12.587  66.634  1.00  0.00    -0.408 NA 
HETATM   30  N   UNK A   0     -10.323  12.986  65.323  1.00  0.00    -0.300 N  
HETATM   31  C   UNK A   0      -7.413   9.008  66.505  1.00  0.00    -0.089 A  
HETATM   32  C   UNK A   0     -10.333  11.670  64.903  1.00  0.00    -0.283 C  
HETATM   33  O   UNK A   0     -11.147  11.244  64.089  1.00  0.00    -0.354 OA 
HETATM   34  C   UNK A   0      -9.396  13.374  66.141  1.00  0.00    -0.057 C  
ENDBRANCH  21  22
ENDBRANCH   2  21
TORSDOF 7
ENDMDL
MODEL      103
REMARK 921   NORMALIZED FREE ENERGY PREDICTED BY IDOCK:   -6.07 KCAL/MOL
REMARK 922        TOTAL FREE ENERGY PREDICTED BY IDOCK:   -9.69 KCAL/MOL
REMARK 923 INTER-LIGAND FREE ENERGY PREDICTED BY IDOCK:   -8.97 KCAL/MOL
REMARK 924 INTRA-LIGAND FREE ENERGY PREDICTED BY IDOCK:   -0.72 KCAL/MOL
REMARK 927      BINDING AFFINITY PREDICTED BY RF-SCORE:    0.00 PKD
ROOT
HETATM    1  C   UNK A   0      -9.876  13.700  66.329  1.00  0.00    -0.301 C  
HETATM    2  N   UNK A   0     -11.275  13.353  66.561  1.00  0.00    -0.301 NA 
ENDROOT
BRANCH   2   3
HETATM    3  C   UNK A   0     -11.658  13.007  67.830  1.00  0.00    -0.342 A  
HETATM    4  C   UNK A   0     -12.031  13.043  70.142  1.00  0.00    -0.374 A  
HETATM    5  C   UNK A   0     -11.834  13.805  68.946  1.00  0.00    -0.396 A  
HETATM    6  S   UNK A   0     -12.023  11.377  68.219  1.00  0.00    -0.024 SA 
HETATM    7  C   UNK A   0     -12.062  11.685  69.894  1.00  0.00    -0.301 A  
BRANCH   7   8
HETATM    8  C   UNK A   0     -12.083  10.592  70.850  1.00  0.00    -0.385 C  
HETATM    9  O   UNK A   0     -13.031  10.361  71.592  1.00  0.00    -0.406 OA 
ATOM     10  N   GLU A   1     -10.919   9.839  70.906  1.00  0.00    -0.326 N  
ATOM     11  H   GLU A   1     -10.137  10.083  70.298  1.00  0.00     0.000 HD 
BRANCH  10  12
ATOM     12  CA  GLU A   1     -10.788   8.701  71.820  1.00  0.00    -0.325 C  
ATOM     13  C   GLU A   1      -9.324   8.566  72.277  1.00  0.00    -0.293 C  
ATOM     14  O   GLU A   1      -8.427   9.090  71.405  1.00  0.00    -0.267 OA 
ATOM     15  OXT GLU A   1      -8.972   7.920  73.255  1.00  0.00    -0.207 OA 
BRANCH  12  16
ATOM     16  CB  GLU A   1     -11.248   7.423  71.110  1.00  0.00    -0.279 C  
BRANCH  16  17
ATOM     17  CG  GLU A   1     -10.804   7.369  69.648  1.00  0.00    -0.222 C  
ATOM     18  CD  GLU A   1     -10.776   5.960  69.115  1.00  0.00    -0.324 C  
ATOM     19  OE2 GLU A   1     -10.566   4.970  69.792  1.00  0.00    -0.222 OA 
ATOM     20  OE1 GLU A   1     -10.974   5.904  67.778  1.00  0.00    -0.279 OA 
ENDBRANCH  16  17
ENDBRANCH  12  16
ENDBRANCH  10  12
ENDBRANCH   7   8
ENDBRANCH   2   3
BRANCH   2  21
HETATM   21  C   UNK A   0     -11.936  12.622  65.462  1.00  0.00    -0.456 C  
BRANCH  21  22
HETATM   22  C   UNK A   0     -10.966  11.709  64.744  1.00  0.00    -0.351 A  
HETATM   23  C   UNK A   0      -9.498   9.771  64.732  1.00  0.00    -0.318 A  
HETATM   24  C   UNK A   0      -9.186   9.987  63.390  1.00  0.00    -0.281 A  
HETATM   25  C   UNK A   0     -10.377  10.622  65.409  1.00  0.00    -0.303 A  
HETATM   26  H   UNK A   0      -7.656   6.926  65.118  1.00  0.00     0.000 HD 
HETATM   27  C   UNK A   0      -9.745  11.080  62.730  1.00  0.00    -0.303 A  
HETATM   28  C   UNK A   0      -6.949   7.057  62.677  1.00  0.00    -0.057 C  
HETATM   29  N   UNK A   0      -8.300   9.116  62.757  1.00  0.00    -0.184 NA 
HETATM   30  N   UNK A   0      -8.060   7.755  64.683  1.00  0.00    -0.215 N  
HETATM   31  C   UNK A   0     -10.633  11.929  63.401  1.00  0.00    -0.485 A  
HETATM   32  C   UNK A   0      -8.869   8.607  65.408  1.00  0.00    -0.155 C  
HETATM   33  O   UNK A   0      -9.095   8.442  66.604  1.00  0.00    -0.146 OA 
HETATM   34  C   UNK A   0      -7.823   8.027  63.438  1.00  0.00    -0.147 C  
ENDBRANCH  21  22
ENDBRANCH   2  21
TORSDOF 7
ENDMDL
MODEL      104
REMARK 921   NORMALIZED FREE ENERGY PREDICTED BY IDOCK:   -6.07 KCAL/MOL
REMARK 922        TOTAL FREE ENERGY PREDICTED BY IDOCK:   -9.69 KCAL/MOL
REMARK 923 INTER-LIGAND FREE ENERGY PREDICTED BY IDOCK:   -9.07 KCAL/MOL
REMARK 924 INTRA-LIGAND FREE ENERGY PREDICTED BY IDOCK:   -0.62 KCAL/MOL
REMARK 927      BINDING AFFINITY PREDICTED BY RF-SCORE:    0.00 PKD
ROOT
HETATM    1  C   UNK A   0      -9.971  16.573  69.025  1.00  0.00    -0.275 C  
HETATM    2  N   UNK A   0     -10.864  15.422  68.926  1.00  0.00    -0.239 NA 
ENDROOT
BRANCH   2   3
HETATM    3  C   UNK A   0     -10.982  14.792  67.715  1.00  0.00    -0.291 A  
HETATM    4  C   UNK A   0     -11.856  13.688  65.844  1.00  0.00    -0.406 A  
HETATM    5  C   UNK A   0     -12.107  14.571  66.942  1.00  0.00    -0.309 A  
HETATM    6  S   UNK A   0      -9.600  14.155  66.922  1.00  0.00    -0.280 SA 
HETATM    7  C   UNK A   0     -10.530  13.309  65.774  1.00  0.00    -0.284 A  
BRANCH   7   8
HETATM    8  C   UNK A   0      -9.919  12.313  64.912  1.00  0.00    -0.195 C  
HETATM    9  O   UNK A   0     -10.236  12.147  63.739  1.00  0.00    -0.374 OA 
ATOM     10  N   GLU A   1      -8.967  11.511  65.525  1.00  0.00    -0.392 N  
ATOM     11  H   GLU A   1      -8.755  11.655  66.512  1.00  0.00     0.000 HD 
BRANCH  10  12
ATOM     12  CA  GLU A   1      -8.261  10.461  64.785  1.00  0.00    -0.141 C  
ATOM     13  C   GLU A   1      -8.921   9.097  65.058  1.00  0.00    -0.171 C  
ATOM     14  O   GLU A   1      -9.581   9.035  66.241  1.00  0.00    -0.217 OA 
ATOM     15  OXT GLU A   1      -8.753   8.107  64.360  1.00  0.00     0.051 OA 
BRANCH  12  16
ATOM     16  CB  GLU A   1      -6.789  10.439  65.215  1.00  0.00    -0.102 C  
BRANCH  16  17
ATOM     17  CG  GLU A   1      -6.618  10.279  66.725  1.00  0.00    -0.075 C  
ATOM     18  CD  GLU A   1      -6.606  11.606  67.439  1.00  0.00    -0.106 C  
ATOM     19  OE2 GLU A   1      -6.220  12.650  66.947  1.00  0.00    -0.203 OA 
ATOM     20  OE1 GLU A   1      -7.042  11.515  68.716  1.00  0.00    -0.092 OA 
ENDBRANCH  16  17
ENDBRANCH  12  16
ENDBRANCH  10  12
ENDBRANCH   7   8
ENDBRANCH   2   3
BRANCH   2  21
HETATM   21  C   UNK A   0     -12.096  15.505  69.735  1.00  0.00    -0.349 C  
BRANCH  21  22
HETATM   22  C   UNK A   0     -12.419  14.177  70.386  1.00  0.00    -0.424 A  
HETATM   23  C   UNK A   0     -12.237  11.754  70.453  1.00  0.00    -0.416 A  
HETATM   24  C   UNK A   0     -12.993  11.707  71.625  1.00  0.00    -0.378 A  
HETATM   25  C   UNK A   0     -11.951  12.975  69.834  1.00  0.00    -0.381 A  
HETATM   26  H   UNK A   0     -11.626   8.405  70.237  1.00  0.00     0.000 HD 
HETATM   27  C   UNK A   0     -13.485  12.895  72.164  1.00  0.00    -0.619 A  
HETATM   28  C   UNK A   0     -12.936   8.031  72.387  1.00  0.00    -0.095 C  
HETATM   29  N   UNK A   0     -13.258  10.466  72.204  1.00  0.00    -0.562 NA 
HETATM   30  N   UNK A   0     -11.994   9.292  70.579  1.00  0.00    -0.459 N  
HETATM   31  C   UNK A   0     -13.193  14.119  71.552  1.00  0.00    -0.423 A  
HETATM   32  C   UNK A   0     -11.745  10.467  69.897  1.00  0.00    -0.264 C  
HETATM   33  O   UNK A   0     -11.126  10.494  68.838  1.00  0.00    -0.230 OA 
HETATM   34  C   UNK A   0     -12.705   9.337  71.662  1.00  0.00    -0.364 C  
ENDBRANCH  21  22
ENDBRANCH   2  21
TORSDOF 7
ENDMDL
MODEL      105
REMARK 921   NORMALIZED FREE ENERGY PREDICTED BY IDOCK:   -6.07 KCAL/MOL
REMARK 922        TOTAL FREE ENERGY PREDICTED BY IDOCK:   -9.68 KCAL/MOL
REMARK 923 INTER-LIGAND FREE ENERGY PREDICTED BY IDOCK:   -8.23 KCAL/MOL
REMARK 924 INTRA-LIGAND FREE ENERGY PREDICTED BY IDOCK:   -1.45 KCAL/MOL
REMARK 927      BINDING AFFINITY PREDICTED BY RF-SCORE:    0.00 PKD
ROOT
HETATM    1  C   UNK A   0      -6.451  18.836  65.468  1.00  0.00    -0.282 C  
HETATM    2  N   UNK A   0      -6.667  17.767  66.438  1.00  0.00    -0.219 NA 
ENDROOT
BRANCH   2   3
HETATM    3  C   UNK A   0      -7.933  17.581  66.930  1.00  0.00    -0.226 A  
HETATM    4  C   UNK A   0      -9.862  17.720  68.251  1.00  0.00    -0.340 A  
HETATM    5  C   UNK A   0      -8.658  18.359  67.814  1.00  0.00    -0.278 A  
HETATM    6  S   UNK A   0      -8.872  16.232  66.439  1.00  0.00    -0.335 SA 
HETATM    7  C   UNK A   0     -10.052  16.497  67.639  1.00  0.00    -0.266 A  
BRANCH   7   8
HETATM    8  C   UNK A   0     -11.055  15.488  67.928  1.00  0.00    -0.321 C  
HETATM    9  O   UNK A   0     -12.060  15.704  68.598  1.00  0.00    -0.270 OA 
ATOM     10  N   GLU A   1     -10.777  14.223  67.430  1.00  0.00    -0.279 N  
ATOM     11  H   GLU A   1      -9.914  14.072  66.907  1.00  0.00     0.000 HD 
BRANCH  10  12
ATOM     12  CA  GLU A   1     -11.695  13.100  67.638  1.00  0.00    -0.369 C  
ATOM     13  C   GLU A   1     -11.046  12.063  68.573  1.00  0.00    -0.244 C  
ATOM     14  O   GLU A   1      -9.690  12.089  68.563  1.00  0.00    -0.207 OA 
ATOM     15  OXT GLU A   1     -11.670  11.192  69.163  1.00  0.00    -0.284 OA 
BRANCH  12  16
ATOM     16  CB  GLU A   1     -12.034  12.463  66.286  1.00  0.00    -0.369 C  
BRANCH  16  17
ATOM     17  CG  GLU A   1     -12.464  13.492  65.241  1.00  0.00    -0.525 C  
ATOM     18  CD  GLU A   1     -11.918  13.174  63.872  1.00  0.00    -0.488 C  
ATOM     19  OE2 GLU A   1     -10.875  12.580  63.667  1.00  0.00    -0.423 OA 
ATOM     20  OE1 GLU A   1     -12.697  13.653  62.876  1.00  0.00    -0.577 OA 
ENDBRANCH  16  17
ENDBRANCH  12  16
ENDBRANCH  10  12
ENDBRANCH   7   8
ENDBRANCH   2   3
BRANCH   2  21
HETATM   21  C   UNK A   0      -5.562  17.544  67.392  1.00  0.00    -0.135 C  
BRANCH  21  22
HETATM   22  C   UNK A   0      -5.776  16.282  68.198  1.00  0.00    -0.110 A  
HETATM   23  C   UNK A   0      -5.747  13.858  68.383  1.00  0.00    -0.103 A  
HETATM   24  C   UNK A   0      -6.141  13.932  69.719  1.00  0.00    -0.129 A  
HETATM   25  C   UNK A   0      -5.567  15.018  67.624  1.00  0.00    -0.016 A  
HETATM   26  H   UNK A   0      -5.452  10.462  68.241  1.00  0.00     0.000 HD 
HETATM   27  C   UNK A   0      -6.378  15.182  70.289  1.00  0.00    -0.088 A  
HETATM   28  C   UNK A   0      -6.120  10.306  70.693  1.00  0.00    -0.103 C  
HETATM   29  N   UNK A   0      -6.315  12.748  70.436  1.00  0.00    -0.446 NA 
HETATM   30  N   UNK A   0      -5.647  11.393  68.610  1.00  0.00    -0.043 N  
HETATM   31  C   UNK A   0      -6.190  16.347  69.535  1.00  0.00    -0.198 A  
HETATM   32  C   UNK A   0      -5.522  12.508  67.804  1.00  0.00    -0.103 C  
HETATM   33  O   UNK A   0      -5.229  12.432  66.615  1.00  0.00    -0.322 OA 
HETATM   34  C   UNK A   0      -6.016  11.551  69.842  1.00  0.00    -0.130 C  
ENDBRANCH  21  22
ENDBRANCH   2  21
TORSDOF 7
ENDMDL
MODEL      106
REMARK 921   NORMALIZED FREE ENERGY PREDICTED BY IDOCK:   -6.00 KCAL/MOL
REMARK 922        TOTAL FREE ENERGY PREDICTED BY IDOCK:   -9.58 KCAL/MOL
REMARK 923 INTER-LIGAND FREE ENERGY PREDICTED BY IDOCK:   -8.50 KCAL/MOL
REMARK 924 INTRA-LIGAND FREE ENERGY PREDICTED BY IDOCK:   -1.09 KCAL/MOL
REMARK 927      BINDING AFFINITY PREDICTED BY RF-SCORE:    0.00 PKD
ROOT
HETATM    1  C   UNK A   0     -14.400   7.505  71.407  1.00  0.00    -0.394 C  
HETATM    2  N   UNK A   0     -13.226   8.367  71.499  1.00  0.00    -0.430 NA 
ENDROOT
BRANCH   2   3
HETATM    3  C   UNK A   0     -11.991   7.779  71.574  1.00  0.00    -0.300 A  
HETATM    4  C   UNK A   0      -9.753   7.336  72.103  1.00  0.00    -0.177 A  
HETATM    5  C   UNK A   0     -10.971   7.983  72.485  1.00  0.00    -0.430 A  
HETATM    6  S   UNK A   0     -11.523   6.580  70.440  1.00  0.00    -0.401 SA 
HETATM    7  C   UNK A   0      -9.895   6.604  70.942  1.00  0.00    -0.183 A  
BRANCH   7   8
HETATM    8  C   UNK A   0      -8.867   5.945  70.157  1.00  0.00    -0.142 C  
HETATM    9  O   UNK A   0      -8.069   5.140  70.626  1.00  0.00    -0.101 OA 
ATOM     10  N   GLU A   1      -8.811   6.326  68.824  1.00  0.00    -0.123 N  
ATOM     11  H   GLU A   1      -9.468   7.025  68.477  1.00  0.00     0.000 HD 
BRANCH  10  12
ATOM     12  CA  GLU A   1      -7.828   5.748  67.904  1.00  0.00    -0.097 C  
ATOM     13  C   GLU A   1      -6.820   6.829  67.471  1.00  0.00    -0.077 C  
ATOM     14  O   GLU A   1      -7.308   8.092  67.542  1.00  0.00    -0.086 OA 
ATOM     15  OXT GLU A   1      -5.732   6.585  66.967  1.00  0.00    -0.012 OA 
BRANCH  12  16
ATOM     16  CB  GLU A   1      -8.552   5.171  66.682  1.00  0.00    -0.110 C  
BRANCH  16  17
ATOM     17  CG  GLU A   1      -9.550   4.073  67.052  1.00  0.00    -0.231 C  
ATOM     18  CD  GLU A   1      -8.866   2.766  67.359  1.00  0.00    -0.142 C  
ATOM     19  OE2 GLU A   1      -7.808   2.409  66.873  1.00  0.00    -0.069 OA 
ATOM     20  OE1 GLU A   1      -9.575   1.995  68.215  1.00  0.00    -0.207 OA 
ENDBRANCH  16  17
ENDBRANCH  12  16
ENDBRANCH  10  12
ENDBRANCH   7   8
ENDBRANCH   2   3
BRANCH   2  21
HETATM   21  C   UNK A   0     -13.406   9.600  72.292  1.00  0.00    -0.408 C  
BRANCH  21  22
HETATM   22  C   UNK A   0     -12.983  10.825  71.510  1.00  0.00    -0.562 A  
HETATM   23  C   UNK A   0     -12.112  11.845  69.484  1.00  0.00    -0.288 A  
HETATM   24  C   UNK A   0     -12.231  13.117  70.044  1.00  0.00    -0.253 A  
HETATM   25  C   UNK A   0     -12.480  10.706  70.205  1.00  0.00    -0.381 A  
HETATM   26  H   UNK A   0     -10.980  12.861  66.430  1.00  0.00     0.000 HD 
HETATM   27  C   UNK A   0     -12.704  13.241  71.350  1.00  0.00    -0.401 A  
HETATM   28  C   UNK A   0     -11.133  15.287  67.185  1.00  0.00    -0.323 C  
HETATM   29  N   UNK A   0     -11.846  14.224  69.289  1.00  0.00    -0.310 NA 
HETATM   30  N   UNK A   0     -11.298  12.906  67.397  1.00  0.00    -0.291 N  
HETATM   31  C   UNK A   0     -13.083  12.104  72.073  1.00  0.00    -0.462 A  
HETATM   32  C   UNK A   0     -11.587  11.750  68.096  1.00  0.00    -0.323 C  
HETATM   33  O   UNK A   0     -11.426  10.632  67.615  1.00  0.00    -0.474 OA 
HETATM   34  C   UNK A   0     -11.439  14.048  67.993  1.00  0.00    -0.311 C  
ENDBRANCH  21  22
ENDBRANCH   2  21
TORSDOF 7
ENDMDL
MODEL      107
REMARK 921   NORMALIZED FREE ENERGY PREDICTED BY IDOCK:   -5.99 KCAL/MOL
REMARK 922        TOTAL FREE ENERGY PREDICTED BY IDOCK:   -9.58 KCAL/MOL
REMARK 923 INTER-LIGAND FREE ENERGY PREDICTED BY IDOCK:   -7.98 KCAL/MOL
REMARK 924 INTRA-LIGAND FREE ENERGY PREDICTED BY IDOCK:   -1.60 KCAL/MOL
REMARK 927      BINDING AFFINITY PREDICTED BY RF-SCORE:    0.00 PKD
ROOT
HETATM    1  C   UNK A   0     -10.134  13.508  68.513  1.00  0.00    -0.215 C  
HETATM    2  N   UNK A   0     -10.570  12.117  68.441  1.00  0.00    -0.219 NA 
ENDROOT
BRANCH   2   3
HETATM    3  C   UNK A   0     -10.228  11.383  67.335  1.00  0.00    -0.193 A  
HETATM    4  C   UNK A   0     -10.282  10.339  65.240  1.00  0.00    -0.308 A  
HETATM    5  C   UNK A   0     -10.767  11.406  66.062  1.00  0.00    -0.318 A  
HETATM    6  S   UNK A   0      -8.943  10.249  67.401  1.00  0.00    -0.134 SA 
HETATM    7  C   UNK A   0      -9.339   9.569  65.890  1.00  0.00    -0.226 A  
BRANCH   7   8
HETATM    8  C   UNK A   0      -8.737   8.320  65.458  1.00  0.00    -0.140 C  
HETATM    9  O   UNK A   0      -7.939   8.239  64.530  1.00  0.00    -0.132 OA 
ATOM     10  N   GLU A   1      -9.168   7.193  66.143  1.00  0.00    -0.321 N  
ATOM     11  H   GLU A   1      -9.859   7.294  66.886  1.00  0.00     0.000 HD 
BRANCH  10  12
ATOM     12  CA  GLU A   1      -8.650   5.860  65.823  1.00  0.00    -0.154 C  
ATOM     13  C   GLU A   1      -9.819   4.867  65.684  1.00  0.00    -0.134 C  
ATOM     14  O   GLU A   1     -10.928   5.227  66.374  1.00  0.00    -0.235 OA 
ATOM     15  OXT GLU A   1      -9.727   3.779  65.131  1.00  0.00    -0.170 OA 
BRANCH  12  16
ATOM     16  CB  GLU A   1      -7.691   5.407  66.930  1.00  0.00    -0.100 C  
BRANCH  16  17
ATOM     17  CG  GLU A   1      -8.056   5.983  68.298  1.00  0.00    -0.110 C  
ATOM     18  CD  GLU A   1      -8.530   4.919  69.254  1.00  0.00    -0.087 C  
ATOM     19  OE2 GLU A   1      -9.091   3.892  68.920  1.00  0.00    -0.113 OA 
ATOM     20  OE1 GLU A   1      -8.298   5.240  70.547  1.00  0.00    -0.107 OA 
ENDBRANCH  16  17
ENDBRANCH  12  16
ENDBRANCH  10  12
ENDBRANCH   7   8
ENDBRANCH   2   3
BRANCH   2  21
HETATM   21  C   UNK A   0     -11.901  11.840  69.015  1.00  0.00    -0.317 C  
BRANCH  21  22
HETATM   22  C   UNK A   0     -11.827  10.782  70.095  1.00  0.00    -0.427 A  
HETATM   23  C   UNK A   0     -10.579   9.098  71.326  1.00  0.00    -0.399 A  
HETATM   24  C   UNK A   0     -11.684   8.837  72.136  1.00  0.00    -0.363 A  
HETATM   25  C   UNK A   0     -10.644  10.058  70.312  1.00  0.00    -0.354 A  
HETATM   26  H   UNK A   0      -8.439   6.928  72.859  1.00  0.00     0.000 HD 
HETATM   27  C   UNK A   0     -12.871   9.533  71.910  1.00  0.00    -0.508 A  
HETATM   28  C   UNK A   0     -10.274   6.285  74.501  1.00  0.00    -0.320 C  
HETATM   29  N   UNK A   0     -11.574   7.866  73.131  1.00  0.00    -0.599 NA 
HETATM   30  N   UNK A   0      -9.297   7.434  72.639  1.00  0.00    -0.144 N  
HETATM   31  C   UNK A   0     -12.938  10.502  70.902  1.00  0.00    -0.455 A  
HETATM   32  C   UNK A   0      -9.336   8.325  71.584  1.00  0.00    -0.192 C  
HETATM   33  O   UNK A   0      -8.377   8.508  70.840  1.00  0.00    -0.120 OA 
HETATM   34  C   UNK A   0     -10.368   7.253  73.344  1.00  0.00    -0.363 C  
ENDBRANCH  21  22
ENDBRANCH   2  21
TORSDOF 7
ENDMDL
MODEL      108
REMARK 921   NORMALIZED FREE ENERGY PREDICTED BY IDOCK:   -5.99 KCAL/MOL
REMARK 922        TOTAL FREE ENERGY PREDICTED BY IDOCK:   -9.57 KCAL/MOL
REMARK 923 INTER-LIGAND FREE ENERGY PREDICTED BY IDOCK:   -9.15 KCAL/MOL
REMARK 924 INTRA-LIGAND FREE ENERGY PREDICTED BY IDOCK:   -0.42 KCAL/MOL
REMARK 927      BINDING AFFINITY PREDICTED BY RF-SCORE:    0.00 PKD
ROOT
HETATM    1  C   UNK A   0     -13.013   7.031  71.669  1.00  0.00    -0.352 C  
HETATM    2  N   UNK A   0     -12.068   7.976  72.257  1.00  0.00    -0.397 NA 
ENDROOT
BRANCH   2   3
HETATM    3  C   UNK A   0     -11.994   9.237  71.727  1.00  0.00    -0.385 A  
HETATM    4  C   UNK A   0     -12.537  11.407  71.033  1.00  0.00    -0.487 A  
HETATM    5  C   UNK A   0     -12.818  10.329  71.932  1.00  0.00    -0.528 A  
HETATM    6  S   UNK A   0     -10.728   9.660  70.650  1.00  0.00    -0.337 SA 
HETATM    7  C   UNK A   0     -11.466  11.130  70.207  1.00  0.00    -0.237 A  
BRANCH   7   8
HETATM    8  C   UNK A   0     -10.980  11.891  69.070  1.00  0.00    -0.219 C  
HETATM    9  O   UNK A   0     -10.486  11.377  68.073  1.00  0.00    -0.178 OA 
ATOM     10  N   GLU A   1     -11.068  13.269  69.206  1.00  0.00    -0.413 N  
ATOM     11  H   GLU A   1     -11.452  13.662  70.065  1.00  0.00     0.000 HD 
BRANCH  10  12
ATOM     12  CA  GLU A   1     -10.619  14.173  68.143  1.00  0.00    -0.246 C  
ATOM     13  C   GLU A   1      -9.834  15.347  68.754  1.00  0.00    -0.211 C  
ATOM     14  O   GLU A   1     -10.162  15.614  70.042  1.00  0.00    -0.301 OA 
ATOM     15  OXT GLU A   1      -9.090  16.077  68.113  1.00  0.00    -0.184 OA 
BRANCH  12  16
ATOM     16  CB  GLU A   1     -11.836  14.689  67.367  1.00  0.00    -0.374 C  
BRANCH  16  17
ATOM     17  CG  GLU A   1     -12.142  13.852  66.125  1.00  0.00    -0.478 C  
ATOM     18  CD  GLU A   1     -11.303  14.264  64.942  1.00  0.00    -0.372 C  
ATOM     19  OE2 GLU A   1     -10.876  15.389  64.758  1.00  0.00    -0.422 OA 
ATOM     20  OE1 GLU A   1     -11.099  13.251  64.069  1.00  0.00    -0.379 OA 
ENDBRANCH  16  17
ENDBRANCH  12  16
ENDBRANCH  10  12
ENDBRANCH   7   8
ENDBRANCH   2   3
BRANCH   2  21
HETATM   21  C   UNK A   0     -10.794   7.392  72.721  1.00  0.00    -0.326 C  
BRANCH  21  22
HETATM   22  C   UNK A   0     -10.454   6.131  71.956  1.00  0.00    -0.249 A  
HETATM   23  C   UNK A   0      -9.934   4.997  69.870  1.00  0.00    -0.322 A  
HETATM   24  C   UNK A   0      -9.783   3.783  70.541  1.00  0.00    -0.160 A  
HETATM   25  C   UNK A   0     -10.268   6.163  70.565  1.00  0.00    -0.251 A  
HETATM   26  H   UNK A   0      -9.132   3.838  66.763  1.00  0.00     0.000 HD 
HETATM   27  C   UNK A   0      -9.993   3.738  71.919  1.00  0.00    -0.230 A  
HETATM   28  C   UNK A   0      -8.754   1.515  67.732  1.00  0.00    -0.119 C  
HETATM   29  N   UNK A   0      -9.454   2.644  69.806  1.00  0.00    -0.117 NA 
HETATM   30  N   UNK A   0      -9.326   3.842  67.764  1.00  0.00    -0.178 N  
HETATM   31  C   UNK A   0     -10.318   4.905  72.620  1.00  0.00    -0.250 A  
HETATM   32  C   UNK A   0      -9.721   5.003  68.399  1.00  0.00    -0.152 C  
HETATM   33  O   UNK A   0      -9.906   6.055  67.794  1.00  0.00    -0.112 OA 
HETATM   34  C   UNK A   0      -9.208   2.757  68.463  1.00  0.00    -0.183 C  
ENDBRANCH  21  22
ENDBRANCH   2  21
TORSDOF 7
ENDMDL
MODEL      109
REMARK 921   NORMALIZED FREE ENERGY PREDICTED BY IDOCK:   -5.95 KCAL/MOL
REMARK 922        TOTAL FREE ENERGY PREDICTED BY IDOCK:   -9.51 KCAL/MOL
REMARK 923 INTER-LIGAND FREE ENERGY PREDICTED BY IDOCK:   -8.86 KCAL/MOL
REMARK 924 INTRA-LIGAND FREE ENERGY PREDICTED BY IDOCK:   -0.65 KCAL/MOL
REMARK 927      BINDING AFFINITY PREDICTED BY RF-SCORE:    0.00 PKD
ROOT
HETATM    1  C   UNK A   0     -11.592  15.200  69.763  1.00  0.00    -0.311 C  
HETATM    2  N   UNK A   0     -11.454  13.804  69.358  1.00  0.00    -0.277 NA 
ENDROOT
BRANCH   2   3
HETATM    3  C   UNK A   0     -12.038  12.840  70.137  1.00  0.00    -0.298 A  
HETATM    4  C   UNK A   0     -13.131  11.743  71.894  1.00  0.00    -0.482 A  
HETATM    5  C   UNK A   0     -12.910  12.976  71.202  1.00  0.00    -0.331 A  
HETATM    6  S   UNK A   0     -11.743  11.177  69.838  1.00  0.00    -0.384 SA 
HETATM    7  C   UNK A   0     -12.468  10.687  71.300  1.00  0.00    -0.410 A  
BRANCH   7   8
HETATM    8  C   UNK A   0     -12.315   9.327  71.785  1.00  0.00    -0.379 C  
HETATM    9  O   UNK A   0     -13.259   8.573  71.994  1.00  0.00    -0.338 OA 
ATOM     10  N   GLU A   1     -11.008   8.943  72.050  1.00  0.00    -0.364 N  
ATOM     11  H   GLU A   1     -10.251   9.610  71.898  1.00  0.00     0.000 HD 
BRANCH  10  12
ATOM     12  CA  GLU A   1     -10.692   7.600  72.544  1.00  0.00    -0.296 C  
ATOM     13  C   GLU A   1      -9.486   7.667  73.499  1.00  0.00    -0.289 C  
ATOM     14  O   GLU A   1      -8.670   8.727  73.277  1.00  0.00    -0.313 OA 
ATOM     15  OXT GLU A   1      -9.191   6.779  74.288  1.00  0.00    -0.186 OA 
BRANCH  12  16
ATOM     16  CB  GLU A   1     -10.385   6.680  71.357  1.00  0.00    -0.225 C  
BRANCH  16  17
ATOM     17  CG  GLU A   1      -9.837   7.440  70.149  1.00  0.00    -0.180 C  
ATOM     18  CD  GLU A   1     -10.737   7.319  68.947  1.00  0.00    -0.150 C  
ATOM     19  OE2 GLU A   1     -11.459   6.366  68.718  1.00  0.00    -0.283 OA 
ATOM     20  OE1 GLU A   1     -10.636   8.378  68.111  1.00  0.00    -0.197 OA 
ENDBRANCH  16  17
ENDBRANCH  12  16
ENDBRANCH  10  12
ENDBRANCH   7   8
ENDBRANCH   2   3
BRANCH   2  21
HETATM   21  C   UNK A   0     -10.158  13.447  68.748  1.00  0.00    -0.085 C  
BRANCH  21  22
HETATM   22  C   UNK A   0      -9.588  14.598  67.948  1.00  0.00    -0.212 A  
HETATM   23  C   UNK A   0      -7.938  16.358  67.654  1.00  0.00    -0.165 A  
HETATM   24  C   UNK A   0      -8.507  16.721  66.434  1.00  0.00    -0.303 A  
HETATM   25  C   UNK A   0      -8.470  15.309  68.410  1.00  0.00    -0.158 A  
HETATM   26  H   UNK A   0      -5.373  18.607  67.582  1.00  0.00     0.000 HD 
HETATM   27  C   UNK A   0      -9.635  16.037  65.981  1.00  0.00    -0.385 A  
HETATM   28  C   UNK A   0      -6.179  19.447  65.318  1.00  0.00    -0.293 C  
HETATM   29  N   UNK A   0      -7.946  17.777  65.717  1.00  0.00    -0.540 NA 
HETATM   30  N   UNK A   0      -6.216  18.105  67.303  1.00  0.00    -0.165 N  
HETATM   31  C   UNK A   0     -10.165  14.980  66.730  1.00  0.00    -0.260 A  
HETATM   32  C   UNK A   0      -6.748  17.121  68.114  1.00  0.00    -0.163 C  
HETATM   33  O   UNK A   0      -6.274  16.845  69.212  1.00  0.00    -0.188 OA 
HETATM   34  C   UNK A   0      -6.806  18.378  66.183  1.00  0.00    -0.251 C  
ENDBRANCH  21  22
ENDBRANCH   2  21
TORSDOF 7
ENDMDL
MODEL      110
REMARK 921   NORMALIZED FREE ENERGY PREDICTED BY IDOCK:   -5.93 KCAL/MOL
REMARK 922        TOTAL FREE ENERGY PREDICTED BY IDOCK:   -9.49 KCAL/MOL
REMARK 923 INTER-LIGAND FREE ENERGY PREDICTED BY IDOCK:   -7.82 KCAL/MOL
REMARK 924 INTRA-LIGAND FREE ENERGY PREDICTED BY IDOCK:   -1.67 KCAL/MOL
REMARK 927      BINDING AFFINITY PREDICTED BY RF-SCORE:    0.00 PKD
ROOT
HETATM    1  C   UNK A   0     -10.756   5.960  72.693  1.00  0.00    -0.234 C  
HETATM    2  N   UNK A   0     -10.501   6.353  71.311  1.00  0.00    -0.211 NA 
ENDROOT
BRANCH   2   3
HETATM    3  C   UNK A   0      -9.326   6.999  71.024  1.00  0.00    -0.159 A  
HETATM    4  C   UNK A   0      -7.442   8.383  71.168  1.00  0.00    -0.084 A  
HETATM    5  C   UNK A   0      -8.448   7.647  71.873  1.00  0.00    -0.128 A  
HETATM    6  S   UNK A   0      -8.737   7.069  69.415  1.00  0.00    -0.133 SA 
HETATM    7  C   UNK A   0      -7.546   8.225  69.801  1.00  0.00    -0.092 A  
BRANCH   7   8
HETATM    8  C   UNK A   0      -6.824   8.924  68.753  1.00  0.00    -0.062 C  
HETATM    9  O   UNK A   0      -5.659   8.679  68.455  1.00  0.00    -0.036 OA 
ATOM     10  N   GLU A   1      -7.532   9.940  68.129  1.00  0.00    -0.080 N  
ATOM     11  H   GLU A   1      -8.487  10.139  68.427  1.00  0.00     0.000 HD 
BRANCH  10  12
ATOM     12  CA  GLU A   1      -6.938  10.735  67.050  1.00  0.00    -0.100 C  
ATOM     13  C   GLU A   1      -6.602  12.146  67.567  1.00  0.00    -0.132 C  
ATOM     14  O   GLU A   1      -7.360  12.538  68.621  1.00  0.00    -0.105 OA 
ATOM     15  OXT GLU A   1      -5.835  12.915  67.003  1.00  0.00    -0.306 OA 
BRANCH  12  16
ATOM     16  CB  GLU A   1      -7.921  10.815  65.876  1.00  0.00    -0.140 C  
BRANCH  16  17
ATOM     17  CG  GLU A   1      -9.381  10.758  66.325  1.00  0.00    -0.205 C  
ATOM     18  CD  GLU A   1     -10.111  12.046  66.043  1.00  0.00    -0.230 C  
ATOM     19  OE2 GLU A   1      -9.586  13.144  66.009  1.00  0.00    -0.244 OA 
ATOM     20  OE1 GLU A   1     -11.440  11.864  65.865  1.00  0.00    -0.340 OA 
ENDBRANCH  16  17
ENDBRANCH  12  16
ENDBRANCH  10  12
ENDBRANCH   7   8
ENDBRANCH   2   3
BRANCH   2  21
HETATM   21  C   UNK A   0     -11.685   6.795  70.548  1.00  0.00    -0.375 C  
BRANCH  21  22
HETATM   22  C   UNK A   0     -12.184   8.139  71.033  1.00  0.00    -0.191 A  
HETATM   23  C   UNK A   0     -12.194  10.566  70.898  1.00  0.00    -0.490 A  
HETATM   24  C   UNK A   0     -13.146  10.641  71.915  1.00  0.00    -0.458 A  
HETATM   25  C   UNK A   0     -11.712   9.329  70.458  1.00  0.00    -0.225 A  
HETATM   26  H   UNK A   0     -11.994  13.917  70.289  1.00  0.00     0.000 HD 
HETATM   27  C   UNK A   0     -13.598   9.465  72.510  1.00  0.00    -0.441 A  
HETATM   28  C   UNK A   0     -13.748  14.344  72.083  1.00  0.00    -0.557 C  
HETATM   29  N   UNK A   0     -13.593  11.897  72.326  1.00  0.00    -0.492 NA 
HETATM   30  N   UNK A   0     -12.274  13.036  70.719  1.00  0.00    -0.463 N  
HETATM   31  C   UNK A   0     -13.126   8.224  72.066  1.00  0.00    -0.351 A  
HETATM   32  C   UNK A   0     -11.721  11.841  70.300  1.00  0.00    -0.228 C  
HETATM   33  O   UNK A   0     -10.844  11.787  69.443  1.00  0.00    -0.179 OA 
HETATM   34  C   UNK A   0     -13.154  13.017  71.669  1.00  0.00    -0.347 C  
ENDBRANCH  21  22
ENDBRANCH   2  21
TORSDOF 7
ENDMDL
MODEL      111
REMARK 921   NORMALIZED FREE ENERGY PREDICTED BY IDOCK:   -5.92 KCAL/MOL
REMARK 922        TOTAL FREE ENERGY PREDICTED BY IDOCK:   -9.47 KCAL/MOL
REMARK 923 INTER-LIGAND FREE ENERGY PREDICTED BY IDOCK:   -8.56 KCAL/MOL
REMARK 924 INTRA-LIGAND FREE ENERGY PREDICTED BY IDOCK:   -0.92 KCAL/MOL
REMARK 927      BINDING AFFINITY PREDICTED BY RF-SCORE:    0.00 PKD
ROOT
HETATM    1  C   UNK A   0     -10.214   8.851  71.566  1.00  0.00    -0.328 C  
HETATM    2  N   UNK A   0      -9.089   9.043  70.657  1.00  0.00    -0.214 NA 
ENDROOT
BRANCH   2   3
HETATM    3  C   UNK A   0      -9.233   9.928  69.620  1.00  0.00    -0.227 A  
HETATM    4  C   UNK A   0      -8.841  11.636  68.066  1.00  0.00    -0.162 A  
HETATM    5  C   UNK A   0      -8.273  10.661  68.948  1.00  0.00    -0.145 A  
HETATM    6  S   UNK A   0     -10.780  10.245  68.950  1.00  0.00    -0.241 SA 
HETATM    7  C   UNK A   0     -10.220  11.575  68.045  1.00  0.00    -0.191 A  
BRANCH   7   8
HETATM    8  C   UNK A   0     -11.156  12.486  67.409  1.00  0.00    -0.272 C  
HETATM    9  O   UNK A   0     -12.371  12.420  67.557  1.00  0.00    -0.322 OA 
ATOM     10  N   GLU A   1     -10.579  13.426  66.567  1.00  0.00    -0.285 N  
ATOM     11  H   GLU A   1      -9.566  13.429  66.441  1.00  0.00     0.000 HD 
BRANCH  10  12
ATOM     12  CA  GLU A   1     -11.392  14.416  65.855  1.00  0.00    -0.332 C  
ATOM     13  C   GLU A   1     -11.714  13.904  64.439  1.00  0.00    -0.404 C  
ATOM     14  O   GLU A   1     -10.811  13.012  63.961  1.00  0.00    -0.395 OA 
ATOM     15  OXT GLU A   1     -12.609  14.356  63.737  1.00  0.00    -0.829 OA 
BRANCH  12  16
ATOM     16  CB  GLU A   1     -10.630  15.744  65.784  1.00  0.00    -0.369 C  
BRANCH  16  17
ATOM     17  CG  GLU A   1     -10.398  16.365  67.161  1.00  0.00    -0.290 C  
ATOM     18  CD  GLU A   1      -9.857  17.768  67.067  1.00  0.00    -0.309 C  
ATOM     19  OE2 GLU A   1      -9.170  18.183  66.152  1.00  0.00    -0.477 OA 
ATOM     20  OE1 GLU A   1     -10.184  18.526  68.139  1.00  0.00    -0.351 OA 
ENDBRANCH  16  17
ENDBRANCH  12  16
ENDBRANCH  10  12
ENDBRANCH   7   8
ENDBRANCH   2   3
BRANCH   2  21
HETATM   21  C   UNK A   0      -8.292   7.834  70.371  1.00  0.00    -0.123 C  
BRANCH  21  22
HETATM   22  C   UNK A   0      -8.932   6.995  69.286  1.00  0.00    -0.138 A  
HETATM   23  C   UNK A   0      -8.938   6.112  67.021  1.00  0.00    -0.114 A  
HETATM   24  C   UNK A   0     -10.111   5.400  67.277  1.00  0.00    -0.193 A  
HETATM   25  C   UNK A   0      -8.351   6.905  68.011  1.00  0.00    -0.121 A  
HETATM   26  H   UNK A   0      -8.493   5.010  63.823  1.00  0.00     0.000 HD 
HETATM   27  C   UNK A   0     -10.709   5.507  68.532  1.00  0.00    -0.161 A  
HETATM   28  C   UNK A   0     -10.591   3.583  64.027  1.00  0.00    -0.245 C  
HETATM   29  N   UNK A   0     -10.664   4.626  66.257  1.00  0.00    -0.492 NA 
HETATM   30  N   UNK A   0      -8.916   5.141  64.742  1.00  0.00    -0.300 N  
HETATM   31  C   UNK A   0     -10.119   6.292  69.529  1.00  0.00    -0.217 A  
HETATM   32  C   UNK A   0      -8.339   5.989  65.667  1.00  0.00    -0.145 C  
HETATM   33  O   UNK A   0      -7.338   6.655  65.416  1.00  0.00    -0.071 OA 
HETATM   34  C   UNK A   0     -10.005   4.516  65.062  1.00  0.00    -0.095 C  
ENDBRANCH  21  22
ENDBRANCH   2  21
TORSDOF 7
ENDMDL
MODEL      112
REMARK 921   NORMALIZED FREE ENERGY PREDICTED BY IDOCK:   -5.90 KCAL/MOL
REMARK 922        TOTAL FREE ENERGY PREDICTED BY IDOCK:   -9.44 KCAL/MOL
REMARK 923 INTER-LIGAND FREE ENERGY PREDICTED BY IDOCK:   -8.20 KCAL/MOL
REMARK 924 INTRA-LIGAND FREE ENERGY PREDICTED BY IDOCK:   -1.24 KCAL/MOL
REMARK 927      BINDING AFFINITY PREDICTED BY RF-SCORE:    0.00 PKD
ROOT
HETATM    1  C   UNK A   0      -9.447  11.546  66.242  1.00  0.00    -0.217 C  
HETATM    2  N   UNK A   0     -10.126  11.704  67.524  1.00  0.00    -0.189 NA 
ENDROOT
BRANCH   2   3
HETATM    3  C   UNK A   0     -10.146  10.637  68.385  1.00  0.00    -0.166 A  
HETATM    4  C   UNK A   0     -10.352   9.322  70.312  1.00  0.00    -0.272 A  
HETATM    5  C   UNK A   0     -10.735  10.522  69.631  1.00  0.00    -0.302 A  
HETATM    6  S   UNK A   0      -9.381   9.160  67.966  1.00  0.00    -0.138 SA 
HETATM    7  C   UNK A   0      -9.530   8.526  69.540  1.00  0.00    -0.165 A  
BRANCH   7   8
HETATM    8  C   UNK A   0      -8.813   7.324  69.926  1.00  0.00    -0.142 C  
HETATM    9  O   UNK A   0      -7.715   7.337  70.473  1.00  0.00    -0.090 OA 
ATOM     10  N   GLU A   1      -9.438   6.133  69.586  1.00  0.00    -0.144 N  
ATOM     11  H   GLU A   1     -10.334   6.160  69.100  1.00  0.00     0.000 HD 
BRANCH  10  12
ATOM     12  CA  GLU A   1      -8.838   4.836  69.911  1.00  0.00    -0.090 C  
ATOM     13  C   GLU A   1      -8.515   4.072  68.614  1.00  0.00    -0.087 C  
ATOM     14  O   GLU A   1      -9.284   4.435  67.558  1.00  0.00    -0.126 OA 
ATOM     15  OXT GLU A   1      -7.746   3.121  68.556  1.00  0.00    -0.055 OA 
BRANCH  12  16
ATOM     16  CB  GLU A   1      -9.811   4.029  70.779  1.00  0.00    -0.233 C  
BRANCH  16  17
ATOM     17  CG  GLU A   1      -9.706   4.379  72.264  1.00  0.00    -0.221 C  
ATOM     18  CD  GLU A   1     -10.880   5.196  72.738  1.00  0.00    -0.258 C  
ATOM     19  OE2 GLU A   1     -11.521   5.956  72.035  1.00  0.00    -0.286 OA 
ATOM     20  OE1 GLU A   1     -11.135   5.028  74.055  1.00  0.00    -0.276 OA 
ENDBRANCH  16  17
ENDBRANCH  12  16
ENDBRANCH  10  12
ENDBRANCH   7   8
ENDBRANCH   2   3
BRANCH   2  21
HETATM   21  C   UNK A   0     -11.343  12.538  67.499  1.00  0.00    -0.312 C  
BRANCH  21  22
HETATM   22  C   UNK A   0     -11.011  14.004  67.674  1.00  0.00    -0.281 A  
HETATM   23  C   UNK A   0     -10.723  16.234  66.749  1.00  0.00    -0.204 A  
HETATM   24  C   UNK A   0     -10.427  16.745  68.013  1.00  0.00    -0.333 A  
HETATM   25  C   UNK A   0     -11.011  14.877  66.574  1.00  0.00    -0.327 A  
HETATM   26  H   UNK A   0     -10.547  19.198  65.068  1.00  0.00     0.000 HD 
HETATM   27  C   UNK A   0     -10.397  15.879  69.105  1.00  0.00    -0.237 A  
HETATM   28  C   UNK A   0     -10.018  20.398  67.250  1.00  0.00    -0.564 C  
HETATM   29  N   UNK A   0     -10.140  18.104  68.138  1.00  0.00    -0.357 NA 
HETATM   30  N   UNK A   0     -10.503  18.526  65.834  1.00  0.00    -0.432 N  
HETATM   31  C   UNK A   0     -10.694  14.522  68.936  1.00  0.00    -0.259 A  
HETATM   32  C   UNK A   0     -10.728  17.183  65.605  1.00  0.00    -0.136 C  
HETATM   33  O   UNK A   0     -10.934  16.731  64.482  1.00  0.00    -0.921 OA 
HETATM   34  C   UNK A   0     -10.236  18.917  67.040  1.00  0.00    -0.378 C  
ENDBRANCH  21  22
ENDBRANCH   2  21
TORSDOF 7
ENDMDL
MODEL      113
REMARK 921   NORMALIZED FREE ENERGY PREDICTED BY IDOCK:   -5.89 KCAL/MOL
REMARK 922        TOTAL FREE ENERGY PREDICTED BY IDOCK:   -9.43 KCAL/MOL
REMARK 923 INTER-LIGAND FREE ENERGY PREDICTED BY IDOCK:   -8.24 KCAL/MOL
REMARK 924 INTRA-LIGAND FREE ENERGY PREDICTED BY IDOCK:   -1.20 KCAL/MOL
REMARK 927      BINDING AFFINITY PREDICTED BY RF-SCORE:    0.00 PKD
ROOT
HETATM    1  C   UNK A   0      -9.927  18.624  69.072  1.00  0.00    -0.291 C  
HETATM    2  N   UNK A   0      -9.964  17.191  68.798  1.00  0.00    -0.299 NA 
ENDROOT
BRANCH   2   3
HETATM    3  C   UNK A   0      -8.879  16.618  68.186  1.00  0.00    -0.206 A  
HETATM    4  C   UNK A   0      -7.286  15.989  66.589  1.00  0.00    -0.025 A  
HETATM    5  C   UNK A   0      -8.253  16.961  67.001  1.00  0.00    -0.228 A  
HETATM    6  S   UNK A   0      -8.075  15.283  68.902  1.00  0.00    -0.196 SA 
HETATM    7  C   UNK A   0      -7.157  14.963  67.503  1.00  0.00    -0.189 A  
BRANCH   7   8
HETATM    8  C   UNK A   0      -6.409  13.726  67.374  1.00  0.00     0.118 C  
HETATM    9  O   UNK A   0      -5.198  13.646  67.551  1.00  0.00    -0.317 OA 
ATOM     10  N   GLU A   1      -7.157  12.625  66.982  1.00  0.00    -0.373 N  
ATOM     11  H   GLU A   1      -8.156  12.737  66.810  1.00  0.00     0.000 HD 
BRANCH  10  12
ATOM     12  CA  GLU A   1      -6.543  11.305  66.811  1.00  0.00    -0.140 C  
ATOM     13  C   GLU A   1      -7.229  10.558  65.652  1.00  0.00    -0.124 C  
ATOM     14  O   GLU A   1      -8.501  10.964  65.416  1.00  0.00    -0.163 OA 
ATOM     15  OXT GLU A   1      -6.745   9.588  65.085  1.00  0.00    -0.081 OA 
BRANCH  12  16
ATOM     16  CB  GLU A   1      -6.676  10.509  68.114  1.00  0.00    -0.064 C  
BRANCH  16  17
ATOM     17  CG  GLU A   1      -7.033  11.392  69.310  1.00  0.00    -0.115 C  
ATOM     18  CD  GLU A   1      -6.035  11.259  70.431  1.00  0.00    -0.140 C  
ATOM     19  OE2 GLU A   1      -5.383  10.256  70.660  1.00  0.00    -0.052 OA 
ATOM     20  OE1 GLU A   1      -5.959  12.372  71.196  1.00  0.00    -0.291 OA 
ENDBRANCH  16  17
ENDBRANCH  12  16
ENDBRANCH  10  12
ENDBRANCH   7   8
ENDBRANCH   2   3
BRANCH   2  21
HETATM   21  C   UNK A   0     -11.283  16.653  68.414  1.00  0.00    -0.239 C  
BRANCH  21  22
HETATM   22  C   UNK A   0     -11.652  15.447  69.251  1.00  0.00    -0.354 A  
HETATM   23  C   UNK A   0     -12.005  13.052  69.471  1.00  0.00    -0.350 A  
HETATM   24  C   UNK A   0     -12.303  13.197  70.826  1.00  0.00    -0.321 A  
HETATM   25  C   UNK A   0     -11.684  14.163  68.685  1.00  0.00    -0.385 A  
HETATM   26  H   UNK A   0     -12.273   9.653  69.364  1.00  0.00     0.000 HD 
HETATM   27  C   UNK A   0     -12.301  14.472  71.389  1.00  0.00    -0.425 A  
HETATM   28  C   UNK A   0     -12.813   9.622  71.852  1.00  0.00    -0.515 C  
HETATM   29  N   UNK A   0     -12.624  12.061  71.569  1.00  0.00    -0.236 NA 
HETATM   30  N   UNK A   0     -12.293  10.605  69.729  1.00  0.00    -0.517 N  
HETATM   31  C   UNK A   0     -11.970  15.586  70.608  1.00  0.00    -0.416 A  
HETATM   32  C   UNK A   0     -12.036  11.680  68.901  1.00  0.00    -0.292 C  
HETATM   33  O   UNK A   0     -11.829  11.550  67.698  1.00  0.00    -0.595 OA 
HETATM   34  C   UNK A   0     -12.558  10.828  70.977  1.00  0.00    -0.420 C  
ENDBRANCH  21  22
ENDBRANCH   2  21
TORSDOF 7
ENDMDL
MODEL      114
REMARK 921   NORMALIZED FREE ENERGY PREDICTED BY IDOCK:   -5.89 KCAL/MOL
REMARK 922        TOTAL FREE ENERGY PREDICTED BY IDOCK:   -9.43 KCAL/MOL
REMARK 923 INTER-LIGAND FREE ENERGY PREDICTED BY IDOCK:   -7.51 KCAL/MOL
REMARK 924 INTRA-LIGAND FREE ENERGY PREDICTED BY IDOCK:   -1.92 KCAL/MOL
REMARK 927      BINDING AFFINITY PREDICTED BY RF-SCORE:    0.00 PKD
ROOT
HETATM    1  C   UNK A   0     -11.296   5.213  73.246  1.00  0.00    -0.290 C  
HETATM    2  N   UNK A   0     -10.966   6.183  72.205  1.00  0.00    -0.246 NA 
ENDROOT
BRANCH   2   3
HETATM    3  C   UNK A   0     -10.486   5.716  71.010  1.00  0.00    -0.250 A  
HETATM    4  C   UNK A   0      -9.092   4.811  69.360  1.00  0.00    -0.152 A  
HETATM    5  C   UNK A   0      -9.397   4.901  70.755  1.00  0.00    -0.211 A  
HETATM    6  S   UNK A   0     -11.272   6.111  69.537  1.00  0.00    -0.330 SA 
HETATM    7  C   UNK A   0      -9.994   5.511  68.584  1.00  0.00    -0.166 A  
BRANCH   7   8
HETATM    8  C   UNK A   0      -9.936   5.790  67.160  1.00  0.00    -0.159 C  
HETATM    9  O   UNK A   0     -10.794   5.425  66.363  1.00  0.00    -0.284 OA 
ATOM     10  N   GLU A   1      -8.800   6.467  66.740  1.00  0.00    -0.125 N  
ATOM     11  H   GLU A   1      -8.090   6.724  67.426  1.00  0.00     0.000 HD 
BRANCH  10  12
ATOM     12  CA  GLU A   1      -8.598   6.823  65.333  1.00  0.00    -0.047 C  
ATOM     13  C   GLU A   1      -7.765   5.732  64.634  1.00  0.00    -0.098 C  
ATOM     14  O   GLU A   1      -6.971   5.026  65.477  1.00  0.00    -0.060 OA 
ATOM     15  OXT GLU A   1      -7.699   5.598  63.420  1.00  0.00    -0.076 OA 
BRANCH  12  16
ATOM     16  CB  GLU A   1      -7.886   8.177  65.247  1.00  0.00    -0.115 C  
BRANCH  16  17
ATOM     17  CG  GLU A   1      -8.753   9.260  64.606  1.00  0.00    -0.223 C  
ATOM     18  CD  GLU A   1      -9.746   9.843  65.579  1.00  0.00    -0.302 C  
ATOM     19  OE2 GLU A   1     -10.224   9.238  66.522  1.00  0.00    -0.269 OA 
ATOM     20  OE1 GLU A   1     -10.088  11.115  65.276  1.00  0.00    -0.246 OA 
ENDBRANCH  16  17
ENDBRANCH  12  16
ENDBRANCH  10  12
ENDBRANCH   7   8
ENDBRANCH   2   3
BRANCH   2  21
HETATM   21  C   UNK A   0     -10.389   7.454  72.684  1.00  0.00    -0.244 C  
BRANCH  21  22
HETATM   22  C   UNK A   0     -10.827   8.618  71.822  1.00  0.00    -0.395 A  
HETATM   23  C   UNK A   0     -10.352  10.287  70.120  1.00  0.00    -0.210 A  
HETATM   24  C   UNK A   0     -11.661  10.765  70.191  1.00  0.00    -0.339 A  
HETATM   25  C   UNK A   0      -9.932   9.226  70.927  1.00  0.00    -0.367 A  
HETATM   26  H   UNK A   0      -9.300  12.372  67.633  1.00  0.00     0.000 HD 
HETATM   27  C   UNK A   0     -12.548  10.185  71.097  1.00  0.00    -0.486 A  
HETATM   28  C   UNK A   0     -11.622  13.409  67.525  1.00  0.00    -0.382 C  
HETATM   29  N   UNK A   0     -12.034  11.830  69.371  1.00  0.00    -0.310 NA 
HETATM   30  N   UNK A   0      -9.906  11.943  68.332  1.00  0.00    -0.203 N  
HETATM   31  C   UNK A   0     -12.134   9.116  71.900  1.00  0.00    -0.448 A  
HETATM   32  C   UNK A   0      -9.430  10.942  69.156  1.00  0.00    -0.089 C  
HETATM   33  O   UNK A   0      -8.262  10.565  69.127  1.00  0.00    -0.138 OA 
HETATM   34  C   UNK A   0     -11.137  12.326  68.461  1.00  0.00    -0.249 C  
ENDBRANCH  21  22
ENDBRANCH   2  21
TORSDOF 7
ENDMDL
MODEL      115
REMARK 921   NORMALIZED FREE ENERGY PREDICTED BY IDOCK:   -5.88 KCAL/MOL
REMARK 922        TOTAL FREE ENERGY PREDICTED BY IDOCK:   -9.41 KCAL/MOL
REMARK 923 INTER-LIGAND FREE ENERGY PREDICTED BY IDOCK:   -8.63 KCAL/MOL
REMARK 924 INTRA-LIGAND FREE ENERGY PREDICTED BY IDOCK:   -0.78 KCAL/MOL
REMARK 927      BINDING AFFINITY PREDICTED BY RF-SCORE:    0.00 PKD
ROOT
HETATM    1  C   UNK A   0     -11.785   7.901  70.839  1.00  0.00    -0.257 C  
HETATM    2  N   UNK A   0     -10.567   8.699  70.735  1.00  0.00    -0.202 NA 
ENDROOT
BRANCH   2   3
HETATM    3  C   UNK A   0     -10.579   9.801  69.921  1.00  0.00    -0.265 A  
HETATM    4  C   UNK A   0      -9.920  11.513  68.465  1.00  0.00    -0.207 A  
HETATM    5  C   UNK A   0      -9.672  10.190  68.951  1.00  0.00    -0.189 A  
HETATM    6  S   UNK A   0     -11.864  10.935  70.001  1.00  0.00    -0.378 SA 
HETATM    7  C   UNK A   0     -11.046  12.073  69.033  1.00  0.00    -0.239 A  
BRANCH   7   8
HETATM    8  C   UNK A   0     -11.533  13.437  68.921  1.00  0.00    -0.304 C  
HETATM    9  O   UNK A   0     -12.290  13.814  68.033  1.00  0.00    -0.241 OA 
ATOM     10  N   GLU A   1     -11.037  14.317  69.872  1.00  0.00    -0.447 N  
ATOM     11  H   GLU A   1     -10.381  13.975  70.574  1.00  0.00     0.000 HD 
BRANCH  10  12
ATOM     12  CA  GLU A   1     -11.437  15.727  69.891  1.00  0.00    -0.346 C  
ATOM     13  C   GLU A   1     -10.333  16.589  69.251  1.00  0.00    -0.318 C  
ATOM     14  O   GLU A   1      -9.098  16.033  69.315  1.00  0.00    -0.246 OA 
ATOM     15  OXT GLU A   1     -10.506  17.733  68.853  1.00  0.00    -0.342 OA 
BRANCH  12  16
ATOM     16  CB  GLU A   1     -11.688  16.165  71.338  1.00  0.00    -0.506 C  
BRANCH  16  17
ATOM     17  CG  GLU A   1     -11.861  14.983  72.291  1.00  0.00    -0.441 C  
ATOM     18  CD  GLU A   1     -13.312  14.639  72.510  1.00  0.00    -0.448 C  
ATOM     19  OE2 GLU A   1     -14.228  15.440  72.452  1.00  0.00    -0.537 OA 
ATOM     20  OE1 GLU A   1     -13.498  13.336  72.821  1.00  0.00    -0.575 OA 
ENDBRANCH  16  17
ENDBRANCH  12  16
ENDBRANCH  10  12
ENDBRANCH   7   8
ENDBRANCH   2   3
BRANCH   2  21
HETATM   21  C   UNK A   0      -9.304   7.936  70.774  1.00  0.00    -0.157 C  
BRANCH  21  22
HETATM   22  C   UNK A   0      -9.388   6.686  69.925  1.00  0.00    -0.153 A  
HETATM   23  C   UNK A   0      -9.262   5.585  67.762  1.00  0.00    -0.110 A  
HETATM   24  C   UNK A   0      -9.510   4.345  68.352  1.00  0.00    -0.154 A  
HETATM   25  C   UNK A   0      -9.203   6.748  68.535  1.00  0.00    -0.128 A  
HETATM   26  H   UNK A   0      -8.877   4.438  64.572  1.00  0.00     0.000 HD 
HETATM   27  C   UNK A   0      -9.722   4.279  69.728  1.00  0.00    -0.290 A  
HETATM   28  C   UNK A   0      -9.266   2.058  65.385  1.00  0.00    -0.046 C  
HETATM   29  N   UNK A   0      -9.565   3.213  67.540  1.00  0.00    -0.329 NA 
HETATM   30  N   UNK A   0      -9.059   4.438  65.575  1.00  0.00    -0.133 N  
HETATM   31  C   UNK A   0      -9.655   5.440  70.508  1.00  0.00    -0.232 A  
HETATM   32  C   UNK A   0      -9.059   5.620  66.290  1.00  0.00    -0.148 C  
HETATM   33  O   UNK A   0      -8.895   6.713  65.755  1.00  0.00    -0.148 OA 
HETATM   34  C   UNK A   0      -9.296   3.329  66.202  1.00  0.00    -0.121 C  
ENDBRANCH  21  22
ENDBRANCH   2  21
TORSDOF 7
ENDMDL
MODEL      116
REMARK 921   NORMALIZED FREE ENERGY PREDICTED BY IDOCK:   -5.87 KCAL/MOL
REMARK 922        TOTAL FREE ENERGY PREDICTED BY IDOCK:   -9.40 KCAL/MOL
REMARK 923 INTER-LIGAND FREE ENERGY PREDICTED BY IDOCK:   -8.52 KCAL/MOL
REMARK 924 INTRA-LIGAND FREE ENERGY PREDICTED BY IDOCK:   -0.89 KCAL/MOL
REMARK 927      BINDING AFFINITY PREDICTED BY RF-SCORE:    0.00 PKD
ROOT
HETATM    1  C   UNK A   0     -12.802  14.782  73.102  1.00  0.00    -0.508 C  
HETATM    2  N   UNK A   0     -12.662  14.115  71.811  1.00  0.00    -0.336 NA 
ENDROOT
BRANCH   2   3
HETATM    3  C   UNK A   0     -12.261  14.860  70.733  1.00  0.00    -0.325 A  
HETATM    4  C   UNK A   0     -11.653  15.514  68.568  1.00  0.00    -0.379 A  
HETATM    5  C   UNK A   0     -12.390  14.596  69.382  1.00  0.00    -0.199 A  
HETATM    6  S   UNK A   0     -11.490  16.376  70.956  1.00  0.00    -0.001 SA 
HETATM    7  C   UNK A   0     -11.032  16.492  69.319  1.00  0.00    -0.302 A  
BRANCH   7   8
HETATM    8  C   UNK A   0     -10.078  17.497  68.885  1.00  0.00    -0.346 C  
HETATM    9  O   UNK A   0     -10.252  18.702  69.029  1.00  0.00    -0.347 OA 
ATOM     10  N   GLU A   1      -8.955  16.999  68.239  1.00  0.00    -0.234 N  
ATOM     11  H   GLU A   1      -8.862  15.992  68.106  1.00  0.00     0.000 HD 
BRANCH  10  12
ATOM     12  CA  GLU A   1      -7.901  17.889  67.745  1.00  0.00    -0.221 C  
ATOM     13  C   GLU A   1      -8.086  18.126  66.234  1.00  0.00    -0.221 C  
ATOM     14  O   GLU A   1      -8.753  17.129  65.601  1.00  0.00    -0.473 OA 
ATOM     15  OXT GLU A   1      -7.561  19.044  65.619  1.00  0.00    -0.474 OA 
BRANCH  12  16
ATOM     16  CB  GLU A   1      -6.531  17.259  68.024  1.00  0.00    -0.157 C  
BRANCH  16  17
ATOM     17  CG  GLU A   1      -6.516  16.424  69.304  1.00  0.00    -0.197 C  
ATOM     18  CD  GLU A   1      -5.686  15.175  69.157  1.00  0.00    -0.098 C  
ATOM     19  OE2 GLU A   1      -5.512  14.582  68.108  1.00  0.00    -0.108 OA 
ATOM     20  OE1 GLU A   1      -5.172  14.749  70.333  1.00  0.00    -0.104 OA 
ENDBRANCH  16  17
ENDBRANCH  12  16
ENDBRANCH  10  12
ENDBRANCH   7   8
ENDBRANCH   2   3
BRANCH   2  21
HETATM   21  C   UNK A   0     -13.654  13.057  71.534  1.00  0.00     0.043 C  
BRANCH  21  22
HETATM   22  C   UNK A   0     -12.997  11.698  71.433  1.00  0.00    -0.426 A  
HETATM   23  C   UNK A   0     -11.302  10.231  70.492  1.00  0.00    -0.422 A  
HETATM   24  C   UNK A   0     -11.753   9.169  71.277  1.00  0.00    -0.326 A  
HETATM   25  C   UNK A   0     -11.916  11.485  70.564  1.00  0.00    -0.439 A  
HETATM   26  H   UNK A   0      -8.711   8.570  69.022  1.00  0.00     0.000 HD 
HETATM   27  C   UNK A   0     -12.844   9.364  72.122  1.00  0.00    -0.480 A  
HETATM   28  C   UNK A   0      -9.294   6.484  70.359  1.00  0.00    -0.166 C  
HETATM   29  N   UNK A   0     -11.114   7.934  71.168  1.00  0.00    -0.251 NA 
HETATM   30  N   UNK A   0      -9.531   8.745  69.601  1.00  0.00    -0.167 N  
HETATM   31  C   UNK A   0     -13.455  10.621  72.204  1.00  0.00    -0.237 A  
HETATM   32  C   UNK A   0     -10.149   9.981  69.589  1.00  0.00    -0.236 C  
HETATM   33  O   UNK A   0      -9.781  10.894  68.856  1.00  0.00    -0.191 OA 
HETATM   34  C   UNK A   0     -10.013   7.813  70.362  1.00  0.00    -0.188 C  
ENDBRANCH  21  22
ENDBRANCH   2  21
TORSDOF 7
ENDMDL
MODEL      117
REMARK 921   NORMALIZED FREE ENERGY PREDICTED BY IDOCK:   -5.85 KCAL/MOL
REMARK 922        TOTAL FREE ENERGY PREDICTED BY IDOCK:   -9.38 KCAL/MOL
REMARK 923 INTER-LIGAND FREE ENERGY PREDICTED BY IDOCK:   -8.61 KCAL/MOL
REMARK 924 INTRA-LIGAND FREE ENERGY PREDICTED BY IDOCK:   -0.77 KCAL/MOL
REMARK 927      BINDING AFFINITY PREDICTED BY RF-SCORE:    0.00 PKD
ROOT
HETATM    1  C   UNK A   0     -10.985  11.528  63.600  1.00  0.00    -0.404 C  
HETATM    2  N   UNK A   0     -10.849  11.621  65.050  1.00  0.00    -0.294 NA 
ENDROOT
BRANCH   2   3
HETATM    3  C   UNK A   0     -10.321  10.550  65.724  1.00  0.00    -0.200 A  
HETATM    4  C   UNK A   0      -9.325   8.489  66.218  1.00  0.00    -0.287 A  
HETATM    5  C   UNK A   0      -9.485   9.547  65.267  1.00  0.00    -0.326 A  
HETATM    6  S   UNK A   0     -10.650  10.317  67.391  1.00  0.00    -0.275 SA 
HETATM    7  C   UNK A   0      -9.993   8.745  67.398  1.00  0.00    -0.208 A  
BRANCH   7   8
HETATM    8  C   UNK A   0     -10.202   7.859  68.529  1.00  0.00    -0.205 C  
HETATM    9  O   UNK A   0     -11.043   6.966  68.544  1.00  0.00    -0.168 OA 
ATOM     10  N   GLU A   1      -9.407   8.122  69.636  1.00  0.00    -0.159 N  
ATOM     11  H   GLU A   1      -8.743   8.896  69.600  1.00  0.00     0.000 HD 
BRANCH  10  12
ATOM     12  CA  GLU A   1      -9.501   7.313  70.854  1.00  0.00    -0.159 C  
ATOM     13  C   GLU A   1      -9.129   8.169  72.078  1.00  0.00    -0.180 C  
ATOM     14  O   GLU A   1      -8.316   9.215  71.788  1.00  0.00    -0.340 OA 
ATOM     15  OXT GLU A   1      -9.406   7.868  73.231  1.00  0.00    -0.245 OA 
BRANCH  12  16
ATOM     16  CB  GLU A   1      -8.560   6.108  70.738  1.00  0.00    -0.135 C  
BRANCH  16  17
ATOM     17  CG  GLU A   1      -9.185   4.818  71.270  1.00  0.00    -0.191 C  
ATOM     18  CD  GLU A   1      -8.525   3.590  70.699  1.00  0.00    -0.068 C  
ATOM     19  OE2 GLU A   1      -7.998   3.536  69.603  1.00  0.00    -0.050 OA 
ATOM     20  OE1 GLU A   1      -8.610   2.521  71.524  1.00  0.00    -0.062 OA 
ENDBRANCH  16  17
ENDBRANCH  12  16
ENDBRANCH  10  12
ENDBRANCH   7   8
ENDBRANCH   2   3
BRANCH   2  21
HETATM   21  C   UNK A   0     -11.928  12.353  65.742  1.00  0.00    -0.372 C  
BRANCH  21  22
HETATM   22  C   UNK A   0     -11.499  13.759  66.100  1.00  0.00    -0.350 A  
HETATM   23  C   UNK A   0     -11.180  15.520  67.745  1.00  0.00    -0.302 A  
HETATM   24  C   UNK A   0     -10.661  16.371  66.769  1.00  0.00    -0.238 A  
HETATM   25  C   UNK A   0     -11.598  14.226  67.420  1.00  0.00    -0.394 A  
HETATM   26  H   UNK A   0     -10.784  17.650  70.381  1.00  0.00     0.000 HD 
HETATM   27  C   UNK A   0     -10.585  15.924  65.450  1.00  0.00    -0.439 A  
HETATM   28  C   UNK A   0      -9.767  19.386  68.820  1.00  0.00    -0.516 C  
HETATM   29  N   UNK A   0     -10.261  17.655  67.138  1.00  0.00    -0.330 NA 
HETATM   30  N   UNK A   0     -10.776  17.297  69.424  1.00  0.00    -0.354 N  
HETATM   31  C   UNK A   0     -10.994  14.626  65.122  1.00  0.00    -0.395 A  
HETATM   32  C   UNK A   0     -11.263  16.037  69.137  1.00  0.00    -0.342 C  
HETATM   33  O   UNK A   0     -11.769  15.315  69.991  1.00  0.00    -0.270 OA 
HETATM   34  C   UNK A   0     -10.309  18.022  68.457  1.00  0.00    -0.349 C  
ENDBRANCH  21  22
ENDBRANCH   2  21
TORSDOF 7
ENDMDL
MODEL      118
REMARK 921   NORMALIZED FREE ENERGY PREDICTED BY IDOCK:   -5.85 KCAL/MOL
REMARK 922        TOTAL FREE ENERGY PREDICTED BY IDOCK:   -9.38 KCAL/MOL
REMARK 923 INTER-LIGAND FREE ENERGY PREDICTED BY IDOCK:   -8.63 KCAL/MOL
REMARK 924 INTRA-LIGAND FREE ENERGY PREDICTED BY IDOCK:   -0.74 KCAL/MOL
REMARK 927      BINDING AFFINITY PREDICTED BY RF-SCORE:    0.00 PKD
ROOT
HETATM    1  C   UNK A   0     -12.985   7.113  71.408  1.00  0.00    -0.368 C  
HETATM    2  N   UNK A   0     -11.959   8.045  71.867  1.00  0.00    -0.297 NA 
ENDROOT
BRANCH   2   3
HETATM    3  C   UNK A   0     -12.124   9.379  71.598  1.00  0.00    -0.388 A  
HETATM    4  C   UNK A   0     -13.014  11.541  71.471  1.00  0.00    -0.485 A  
HETATM    5  C   UNK A   0     -12.990  10.292  72.170  1.00  0.00    -0.410 A  
HETATM    6  S   UNK A   0     -11.160  10.158  70.411  1.00  0.00    -0.329 SA 
HETATM    7  C   UNK A   0     -12.118  11.566  70.421  1.00  0.00    -0.382 A  
BRANCH   7   8
HETATM    8  C   UNK A   0     -11.960  12.578  69.391  1.00  0.00    -0.256 C  
HETATM    9  O   UNK A   0     -12.495  13.680  69.438  1.00  0.00    -0.233 OA 
ATOM     10  N   GLU A   1     -11.190  12.193  68.304  1.00  0.00    -0.245 N  
ATOM     11  H   GLU A   1     -10.790  11.255  68.283  1.00  0.00     0.000 HD 
BRANCH  10  12
ATOM     12  CA  GLU A   1     -10.937  13.105  67.184  1.00  0.00    -0.268 C  
ATOM     13  C   GLU A   1     -10.954  12.320  65.859  1.00  0.00    -0.302 C  
ATOM     14  O   GLU A   1     -10.650  11.006  65.997  1.00  0.00    -0.252 OA 
ATOM     15  OXT GLU A   1     -11.080  12.842  64.760  1.00  0.00    -0.289 OA 
BRANCH  12  16
ATOM     16  CB  GLU A   1      -9.581  13.791  67.383  1.00  0.00    -0.229 C  
BRANCH  16  17
ATOM     17  CG  GLU A   1      -9.694  15.315  67.433  1.00  0.00    -0.208 C  
ATOM     18  CD  GLU A   1      -9.457  15.856  68.820  1.00  0.00    -0.221 C  
ATOM     19  OE2 GLU A   1      -9.700  15.250  69.848  1.00  0.00    -0.224 OA 
ATOM     20  OE1 GLU A   1      -8.974  17.119  68.811  1.00  0.00    -0.264 OA 
ENDBRANCH  16  17
ENDBRANCH  12  16
ENDBRANCH  10  12
ENDBRANCH   7   8
ENDBRANCH   2   3
BRANCH   2  21
HETATM   21  C   UNK A   0     -10.573   7.539  71.810  1.00  0.00    -0.206 C  
BRANCH  21  22
HETATM   22  C   UNK A   0     -10.387   6.565  70.668  1.00  0.00    -0.239 A  
HETATM   23  C   UNK A   0     -10.352   6.078  68.287  1.00  0.00    -0.252 A  
HETATM   24  C   UNK A   0     -10.002   4.752  68.539  1.00  0.00    -0.089 A  
HETATM   25  C   UNK A   0     -10.546   6.980  69.337  1.00  0.00    -0.248 A  
HETATM   26  H   UNK A   0     -10.291   5.865  64.882  1.00  0.00     0.000 HD 
HETATM   27  C   UNK A   0      -9.869   4.324  69.860  1.00  0.00    -0.267 A  
HETATM   28  C   UNK A   0      -9.611   3.418  65.051  1.00  0.00    -0.141 C  
HETATM   29  N   UNK A   0      -9.824   3.885  67.460  1.00  0.00    -0.148 NA 
HETATM   30  N   UNK A   0     -10.237   5.586  65.861  1.00  0.00    -0.417 N  
HETATM   31  C   UNK A   0     -10.053   5.227  70.914  1.00  0.00    -0.295 A  
HETATM   32  C   UNK A   0     -10.503   6.493  66.867  1.00  0.00    -0.277 C  
HETATM   33  O   UNK A   0     -10.865   7.644  66.638  1.00  0.00    -0.162 OA 
HETATM   34  C   UNK A   0      -9.915   4.372  66.183  1.00  0.00    -0.238 C  
ENDBRANCH  21  22
ENDBRANCH   2  21
TORSDOF 7
ENDMDL
MODEL      119
REMARK 921   NORMALIZED FREE ENERGY PREDICTED BY IDOCK:   -5.85 KCAL/MOL
REMARK 922        TOTAL FREE ENERGY PREDICTED BY IDOCK:   -9.37 KCAL/MOL
REMARK 923 INTER-LIGAND FREE ENERGY PREDICTED BY IDOCK:   -8.50 KCAL/MOL
REMARK 924 INTRA-LIGAND FREE ENERGY PREDICTED BY IDOCK:   -0.87 KCAL/MOL
REMARK 927      BINDING AFFINITY PREDICTED BY RF-SCORE:    0.00 PKD
ROOT
HETATM    1  C   UNK A   0     -14.408   7.965  71.492  1.00  0.00    -0.445 C  
HETATM    2  N   UNK A   0     -13.190   8.769  71.519  1.00  0.00    -0.416 NA 
ENDROOT
BRANCH   2   3
HETATM    3  C   UNK A   0     -11.986   8.124  71.633  1.00  0.00    -0.300 A  
HETATM    4  C   UNK A   0      -9.804   7.557  72.268  1.00  0.00    -0.213 A  
HETATM    5  C   UNK A   0     -11.016   8.237  72.613  1.00  0.00    -0.386 A  
HETATM    6  S   UNK A   0     -11.500   6.965  70.466  1.00  0.00    -0.347 SA 
HETATM    7  C   UNK A   0      -9.906   6.893  71.062  1.00  0.00    -0.178 A  
BRANCH   7   8
HETATM    8  C   UNK A   0      -8.860   6.230  70.304  1.00  0.00    -0.153 C  
HETATM    9  O   UNK A   0      -7.832   6.790  69.936  1.00  0.00    -0.110 OA 
ATOM     10  N   GLU A   1      -9.123   4.909  69.972  1.00  0.00    -0.105 N  
ATOM     11  H   GLU A   1     -10.004   4.487  70.264  1.00  0.00     0.000 HD 
BRANCH  10  12
ATOM     12  CA  GLU A   1      -8.162   4.106  69.210  1.00  0.00    -0.065 C  
ATOM     13  C   GLU A   1      -8.601   4.029  67.736  1.00  0.00    -0.097 C  
ATOM     14  O   GLU A   1      -9.934   4.198  67.552  1.00  0.00    -0.133 OA 
ATOM     15  OXT GLU A   1      -7.859   3.700  66.820  1.00  0.00    -0.083 OA 
BRANCH  12  16
ATOM     16  CB  GLU A   1      -8.077   2.701  69.817  1.00  0.00    -0.057 C  
BRANCH  16  17
ATOM     17  CG  GLU A   1      -9.406   2.235  70.411  1.00  0.00    -0.190 C  
ATOM     18  CD  GLU A   1      -9.328   2.053  71.905  1.00  0.00    -0.098 C  
ATOM     19  OE2 GLU A   1      -8.316   1.751  72.511  1.00  0.00    -0.052 OA 
ATOM     20  OE1 GLU A   1     -10.523   2.226  72.515  1.00  0.00    -0.157 OA 
ENDBRANCH  16  17
ENDBRANCH  12  16
ENDBRANCH  10  12
ENDBRANCH   7   8
ENDBRANCH   2   3
BRANCH   2  21
HETATM   21  C   UNK A   0     -13.300  10.063  72.221  1.00  0.00    -0.289 C  
BRANCH  21  22
HETATM   22  C   UNK A   0     -12.840  11.208  71.344  1.00  0.00    -0.544 A  
HETATM   23  C   UNK A   0     -12.521  13.587  70.965  1.00  0.00    -0.451 A  
HETATM   24  C   UNK A   0     -11.946  13.336  69.720  1.00  0.00    -0.324 A  
HETATM   25  C   UNK A   0     -12.968  12.538  71.773  1.00  0.00    -0.419 A  
HETATM   26  H   UNK A   0     -12.146  16.978  70.900  1.00  0.00     0.000 HD 
HETATM   27  C   UNK A   0     -11.840  12.019  69.274  1.00  0.00    -0.377 A  
HETATM   28  C   UNK A   0     -11.027  16.806  68.620  1.00  0.00    -0.298 C  
HETATM   29  N   UNK A   0     -11.519  14.415  68.945  1.00  0.00    -0.271 NA 
HETATM   30  N   UNK A   0     -12.118  16.004  70.598  1.00  0.00    -0.477 N  
HETATM   31  C   UNK A   0     -12.278  10.964  70.084  1.00  0.00    -0.423 A  
HETATM   32  C   UNK A   0     -12.634  15.005  71.399  1.00  0.00    -0.335 C  
HETATM   33  O   UNK A   0     -13.189  15.238  72.469  1.00  0.00    -0.356 OA 
HETATM   34  C   UNK A   0     -11.598  15.683  69.455  1.00  0.00    -0.357 C  
ENDBRANCH  21  22
ENDBRANCH   2  21
TORSDOF 7
ENDMDL
MODEL      120
REMARK 921   NORMALIZED FREE ENERGY PREDICTED BY IDOCK:   -5.84 KCAL/MOL
REMARK 922        TOTAL FREE ENERGY PREDICTED BY IDOCK:   -9.35 KCAL/MOL
REMARK 923 INTER-LIGAND FREE ENERGY PREDICTED BY IDOCK:   -8.17 KCAL/MOL
REMARK 924 INTRA-LIGAND FREE ENERGY PREDICTED BY IDOCK:   -1.18 KCAL/MOL
REMARK 927      BINDING AFFINITY PREDICTED BY RF-SCORE:    0.00 PKD
ROOT
HETATM    1  C   UNK A   0      -7.875  10.945  68.796  1.00  0.00    -0.132 C  
HETATM    2  N   UNK A   0      -9.293  11.245  68.622  1.00  0.00    -0.232 NA 
ENDROOT
BRANCH   2   3
HETATM    3  C   UNK A   0     -10.205  10.519  69.345  1.00  0.00    -0.221 A  
HETATM    4  C   UNK A   0     -11.814   9.890  70.926  1.00  0.00    -0.443 A  
HETATM    5  C   UNK A   0     -11.210  10.958  70.188  1.00  0.00    -0.317 A  
HETATM    6  S   UNK A   0     -10.221   8.806  69.264  1.00  0.00    -0.213 SA 
HETATM    7  C   UNK A   0     -11.293   8.659  70.580  1.00  0.00    -0.218 A  
BRANCH   7   8
HETATM    8  C   UNK A   0     -11.527   7.370  71.206  1.00  0.00    -0.272 C  
HETATM    9  O   UNK A   0     -12.644   6.934  71.461  1.00  0.00    -0.365 OA 
ATOM     10  N   GLU A   1     -10.380   6.669  71.550  1.00  0.00    -0.208 N  
ATOM     11  H   GLU A   1      -9.467   7.079  71.354  1.00  0.00     0.000 HD 
BRANCH  10  12
ATOM     12  CA  GLU A   1     -10.453   5.351  72.188  1.00  0.00    -0.218 C  
ATOM     13  C   GLU A   1     -10.544   5.517  73.717  1.00  0.00    -0.281 C  
ATOM     14  O   GLU A   1     -10.013   6.678  74.174  1.00  0.00    -0.270 OA 
ATOM     15  OXT GLU A   1     -10.919   4.635  74.477  1.00  0.00    -0.295 OA 
BRANCH  12  16
ATOM     16  CB  GLU A   1      -9.212   4.534  71.811  1.00  0.00    -0.179 C  
BRANCH  16  17
ATOM     17  CG  GLU A   1      -9.493   3.507  70.715  1.00  0.00    -0.240 C  
ATOM     18  CD  GLU A   1      -9.203   4.052  69.340  1.00  0.00    -0.148 C  
ATOM     19  OE2 GLU A   1      -9.286   5.227  69.031  1.00  0.00    -0.119 OA 
ATOM     20  OE1 GLU A   1      -8.869   3.085  68.455  1.00  0.00    -0.095 OA 
ENDBRANCH  16  17
ENDBRANCH  12  16
ENDBRANCH  10  12
ENDBRANCH   7   8
ENDBRANCH   2   3
BRANCH   2  21
HETATM   21  C   UNK A   0      -9.700  11.615  67.252  1.00  0.00    -0.180 C  
BRANCH  21  22
HETATM   22  C   UNK A   0      -9.952  13.102  67.134  1.00  0.00    -0.236 A  
HETATM   23  C   UNK A   0      -9.129  15.372  66.860  1.00  0.00    -0.265 A  
HETATM   24  C   UNK A   0     -10.431  15.872  66.877  1.00  0.00    -0.309 A  
HETATM   25  C   UNK A   0      -8.885  14.002  66.989  1.00  0.00    -0.234 A  
HETATM   26  H   UNK A   0      -7.563  18.359  66.342  1.00  0.00     0.000 HD 
HETATM   27  C   UNK A   0     -11.495  14.987  67.049  1.00  0.00    -0.288 A  
HETATM   28  C   UNK A   0      -9.823  19.531  66.297  1.00  0.00    -0.513 C  
HETATM   29  N   UNK A   0     -10.626  17.247  66.751  1.00  0.00    -0.247 NA 
HETATM   30  N   UNK A   0      -8.310  17.683  66.502  1.00  0.00    -0.259 N  
HETATM   31  C   UNK A   0     -11.256  13.613  67.169  1.00  0.00    -0.327 A  
HETATM   32  C   UNK A   0      -8.019  16.347  66.694  1.00  0.00    -0.288 C  
HETATM   33  O   UNK A   0      -6.867  15.923  66.733  1.00  0.00    -0.243 OA 
HETATM   34  C   UNK A   0      -9.548  18.063  66.531  1.00  0.00    -0.315 C  
ENDBRANCH  21  22
ENDBRANCH   2  21
TORSDOF 7
ENDMDL
MODEL      121
REMARK 921   NORMALIZED FREE ENERGY PREDICTED BY IDOCK:   -5.81 KCAL/MOL
REMARK 922        TOTAL FREE ENERGY PREDICTED BY IDOCK:   -9.32 KCAL/MOL
REMARK 923 INTER-LIGAND FREE ENERGY PREDICTED BY IDOCK:   -8.32 KCAL/MOL
REMARK 924 INTRA-LIGAND FREE ENERGY PREDICTED BY IDOCK:   -1.01 KCAL/MOL
REMARK 927      BINDING AFFINITY PREDICTED BY RF-SCORE:    0.00 PKD
ROOT
HETATM    1  C   UNK A   0     -12.621  14.035  65.428  1.00  0.00    -0.505 C  
HETATM    2  N   UNK A   0     -11.204  13.920  65.760  1.00  0.00    -0.300 NA 
ENDROOT
BRANCH   2   3
HETATM    3  C   UNK A   0     -10.511  12.837  65.285  1.00  0.00    -0.292 A  
HETATM    4  C   UNK A   0      -9.763  11.080  63.929  1.00  0.00    -0.336 A  
HETATM    5  C   UNK A   0     -10.402  12.359  63.991  1.00  0.00    -0.435 A  
HETATM    6  S   UNK A   0      -9.583  11.859  66.345  1.00  0.00    -0.229 SA 
HETATM    7  C   UNK A   0      -9.346  10.646  65.172  1.00  0.00    -0.212 A  
BRANCH   7   8
HETATM    8  C   UNK A   0      -8.809   9.349  65.543  1.00  0.00    -0.184 C  
HETATM    9  O   UNK A   0      -7.984   8.741  64.870  1.00  0.00    -0.119 OA 
ATOM     10  N   GLU A   1      -9.334   8.808  66.707  1.00  0.00    -0.166 N  
ATOM     11  H   GLU A   1     -10.045   9.327  67.223  1.00  0.00     0.000 HD 
BRANCH  10  12
ATOM     12  CA  GLU A   1      -8.890   7.506  67.213  1.00  0.00    -0.124 C  
ATOM     13  C   GLU A   1      -9.981   6.449  66.959  1.00  0.00    -0.163 C  
ATOM     14  O   GLU A   1     -11.231   6.965  66.861  1.00  0.00    -0.353 OA 
ATOM     15  OXT GLU A   1      -9.780   5.242  66.988  1.00  0.00    -0.132 OA 
BRANCH  12  16
ATOM     16  CB  GLU A   1      -8.592   7.617  68.713  1.00  0.00    -0.129 C  
BRANCH  16  17
ATOM     17  CG  GLU A   1      -8.463   9.066  69.182  1.00  0.00    -0.128 C  
ATOM     18  CD  GLU A   1      -7.773   9.171  70.518  1.00  0.00    -0.134 C  
ATOM     19  OE2 GLU A   1      -7.806   8.312  71.380  1.00  0.00    -0.087 OA 
ATOM     20  OE1 GLU A   1      -7.133  10.351  70.683  1.00  0.00    -0.300 OA 
ENDBRANCH  16  17
ENDBRANCH  12  16
ENDBRANCH  10  12
ENDBRANCH   7   8
ENDBRANCH   2   3
BRANCH   2  21
HETATM   21  C   UNK A   0     -10.829  14.388  67.108  1.00  0.00    -0.292 C  
BRANCH  21  22
HETATM   22  C   UNK A   0      -9.850  15.540  67.040  1.00  0.00    -0.236 A  
HETATM   23  C   UNK A   0      -9.391  17.926  66.983  1.00  0.00    -0.267 A  
HETATM   24  C   UNK A   0      -8.017  17.685  66.949  1.00  0.00    -0.226 A  
HETATM   25  C   UNK A   0     -10.303  16.868  67.026  1.00  0.00    -0.307 A  
HETATM   26  H   UNK A   0      -9.196  21.332  67.046  1.00  0.00     0.000 HD 
HETATM   27  C   UNK A   0      -7.559  16.368  66.934  1.00  0.00    -0.275 A  
HETATM   28  C   UNK A   0      -6.655  21.183  67.021  1.00  0.00    -0.405 C  
HETATM   29  N   UNK A   0      -7.144  18.772  66.901  1.00  0.00    -0.204 NA 
HETATM   30  N   UNK A   0      -8.904  20.356  67.003  1.00  0.00    -0.485 N  
HETATM   31  C   UNK A   0      -8.469  15.306  66.987  1.00  0.00    -0.258 A  
HETATM   32  C   UNK A   0      -9.842  19.343  66.978  1.00  0.00    -0.343 C  
HETATM   33  O   UNK A   0     -11.050  19.563  66.952  1.00  0.00    -0.406 OA 
HETATM   34  C   UNK A   0      -7.647  20.044  66.971  1.00  0.00    -0.282 C  
ENDBRANCH  21  22
ENDBRANCH   2  21
TORSDOF 7
ENDMDL
MODEL      122
REMARK 921   NORMALIZED FREE ENERGY PREDICTED BY IDOCK:   -5.80 KCAL/MOL
REMARK 922        TOTAL FREE ENERGY PREDICTED BY IDOCK:   -9.31 KCAL/MOL
REMARK 923 INTER-LIGAND FREE ENERGY PREDICTED BY IDOCK:   -8.73 KCAL/MOL
REMARK 924 INTRA-LIGAND FREE ENERGY PREDICTED BY IDOCK:   -0.58 KCAL/MOL
REMARK 927      BINDING AFFINITY PREDICTED BY RF-SCORE:    0.00 PKD
ROOT
HETATM    1  C   UNK A   0      -9.880  10.948  65.739  1.00  0.00    -0.237 C  
HETATM    2  N   UNK A   0     -10.806  11.611  66.651  1.00  0.00    -0.271 NA 
ENDROOT
BRANCH   2   3
HETATM    3  C   UNK A   0     -11.114  10.988  67.833  1.00  0.00    -0.288 A  
HETATM    4  C   UNK A   0     -11.910  10.558  69.993  1.00  0.00    -0.388 A  
HETATM    5  C   UNK A   0     -12.033  11.345  68.804  1.00  0.00    -0.353 A  
HETATM    6  S   UNK A   0     -10.329   9.531  68.284  1.00  0.00    -0.216 SA 
HETATM    7  C   UNK A   0     -10.941   9.582  69.873  1.00  0.00    -0.238 A  
BRANCH   7   8
HETATM    8  C   UNK A   0     -10.415   8.699  70.899  1.00  0.00    -0.214 C  
HETATM    9  O   UNK A   0     -10.042   9.088  72.000  1.00  0.00    -0.327 OA 
ATOM     10  N   GLU A   1     -10.313   7.365  70.530  1.00  0.00    -0.212 N  
ATOM     11  H   GLU A   1     -10.600   7.084  69.592  1.00  0.00     0.000 HD 
BRANCH  10  12
ATOM     12  CA  GLU A   1      -9.802   6.352  71.457  1.00  0.00    -0.168 C  
ATOM     13  C   GLU A   1      -8.309   6.099  71.181  1.00  0.00    -0.124 C  
ATOM     14  O   GLU A   1      -7.931   6.387  69.911  1.00  0.00    -0.111 OA 
ATOM     15  OXT GLU A   1      -7.552   5.552  71.972  1.00  0.00    -0.096 OA 
BRANCH  12  16
ATOM     16  CB  GLU A   1     -10.605   5.057  71.289  1.00  0.00    -0.151 C  
BRANCH  16  17
ATOM     17  CG  GLU A   1      -9.744   3.805  71.456  1.00  0.00    -0.241 C  
ATOM     18  CD  GLU A   1     -10.122   3.017  72.684  1.00  0.00    -0.158 C  
ATOM     19  OE2 GLU A   1     -10.595   3.501  73.696  1.00  0.00    -0.159 OA 
ATOM     20  OE1 GLU A   1      -9.844   1.699  72.564  1.00  0.00    -0.085 OA 
ENDBRANCH  16  17
ENDBRANCH  12  16
ENDBRANCH  10  12
ENDBRANCH   7   8
ENDBRANCH   2   3
BRANCH   2  21
HETATM   21  C   UNK A   0     -11.905  12.358  66.007  1.00  0.00    -0.395 C  
BRANCH  21  22
HETATM   22  C   UNK A   0     -11.568  13.826  65.870  1.00  0.00    -0.346 A  
HETATM   23  C   UNK A   0     -10.868  15.937  66.851  1.00  0.00    -0.240 A  
HETATM   24  C   UNK A   0     -10.905  16.557  65.602  1.00  0.00    -0.160 A  
HETATM   25  C   UNK A   0     -11.198  14.586  66.991  1.00  0.00    -0.342 A  
HETATM   26  H   UNK A   0      -9.755  18.644  68.605  1.00  0.00     0.000 HD 
HETATM   27  C   UNK A   0     -11.298  15.816  64.488  1.00  0.00    -0.324 A  
HETATM   28  C   UNK A   0      -9.696  20.007  66.457  1.00  0.00    -0.564 C  
HETATM   29  N   UNK A   0     -10.573  17.909  65.511  1.00  0.00    -0.611 NA 
HETATM   30  N   UNK A   0     -10.080  18.076  67.823  1.00  0.00    -0.335 N  
HETATM   31  C   UNK A   0     -11.620  14.460  64.622  1.00  0.00    -0.414 A  
HETATM   32  C   UNK A   0     -10.462  16.763  68.018  1.00  0.00    -0.333 C  
HETATM   33  O   UNK A   0     -10.480  16.240  69.129  1.00  0.00    -0.241 OA 
HETATM   34  C   UNK A   0     -10.142  18.573  66.629  1.00  0.00    -0.389 C  
ENDBRANCH  21  22
ENDBRANCH   2  21
TORSDOF 7
ENDMDL
MODEL      123
REMARK 921   NORMALIZED FREE ENERGY PREDICTED BY IDOCK:   -5.78 KCAL/MOL
REMARK 922        TOTAL FREE ENERGY PREDICTED BY IDOCK:   -9.28 KCAL/MOL
REMARK 923 INTER-LIGAND FREE ENERGY PREDICTED BY IDOCK:   -7.69 KCAL/MOL
REMARK 924 INTRA-LIGAND FREE ENERGY PREDICTED BY IDOCK:   -1.59 KCAL/MOL
REMARK 927      BINDING AFFINITY PREDICTED BY RF-SCORE:    0.00 PKD
ROOT
HETATM    1  C   UNK A   0      -9.807   9.658  65.220  1.00  0.00    -0.199 C  
HETATM    2  N   UNK A   0      -9.041   9.150  66.354  1.00  0.00    -0.159 NA 
ENDROOT
BRANCH   2   3
HETATM    3  C   UNK A   0      -9.518   8.051  67.021  1.00  0.00    -0.174 A  
HETATM    4  C   UNK A   0     -10.942   6.420  67.913  1.00  0.00    -0.416 A  
HETATM    5  C   UNK A   0     -10.729   7.397  66.888  1.00  0.00    -0.324 A  
HETATM    6  S   UNK A   0      -8.560   7.264  68.206  1.00  0.00    -0.122 SA 
HETATM    7  C   UNK A   0      -9.859   6.314  68.762  1.00  0.00    -0.137 A  
BRANCH   7   8
HETATM    8  C   UNK A   0      -9.752   5.562  70.000  1.00  0.00    -0.178 C  
HETATM    9  O   UNK A   0      -9.547   4.353  70.042  1.00  0.00    -0.166 OA 
ATOM     10  N   GLU A   1      -9.949   6.303  71.156  1.00  0.00    -0.180 N  
ATOM     11  H   GLU A   1     -10.153   7.300  71.081  1.00  0.00     0.000 HD 
BRANCH  10  12
ATOM     12  CA  GLU A   1      -9.870   5.686  72.483  1.00  0.00    -0.163 C  
ATOM     13  C   GLU A   1     -11.267   5.204  72.917  1.00  0.00    -0.294 C  
ATOM     14  O   GLU A   1     -12.286   5.879  72.330  1.00  0.00    -0.245 OA 
ATOM     15  OXT GLU A   1     -11.461   4.395  73.814  1.00  0.00    -0.202 OA 
BRANCH  12  16
ATOM     16  CB  GLU A   1      -9.320   6.705  73.487  1.00  0.00    -0.165 C  
BRANCH  16  17
ATOM     17  CG  GLU A   1      -7.836   7.002  73.272  1.00  0.00    -0.108 C  
ATOM     18  CD  GLU A   1      -7.615   8.335  72.605  1.00  0.00    -0.114 C  
ATOM     19  OE2 GLU A   1      -8.401   8.862  71.839  1.00  0.00    -0.349 OA 
ATOM     20  OE1 GLU A   1      -6.419   8.884  72.919  1.00  0.00    -0.280 OA 
ENDBRANCH  16  17
ENDBRANCH  12  16
ENDBRANCH  10  12
ENDBRANCH   7   8
ENDBRANCH   2   3
BRANCH   2  21
HETATM   21  C   UNK A   0      -8.383  10.177  67.185  1.00  0.00    -0.125 C  
BRANCH  21  22
HETATM   22  C   UNK A   0      -9.390  10.953  68.005  1.00  0.00    -0.160 A  
HETATM   23  C   UNK A   0     -11.059  11.047  69.770  1.00  0.00    -0.303 A  
HETATM   24  C   UNK A   0     -11.241  12.413  69.557  1.00  0.00    -0.100 A  
HETATM   25  C   UNK A   0     -10.146  10.317  69.003  1.00  0.00    -0.225 A  
HETATM   26  H   UNK A   0     -13.232  10.758  72.384  1.00  0.00     0.000 HD 
HETATM   27  C   UNK A   0     -10.514  13.046  68.549  1.00  0.00    -0.261 A  
HETATM   28  C   UNK A   0     -13.730  13.250  72.241  1.00  0.00    -0.686 C  
HETATM   29  N   UNK A   0     -12.168  13.099  70.342  1.00  0.00    -0.353 NA 
HETATM   30  N   UNK A   0     -12.706  11.174  71.617  1.00  0.00    -0.388 N  
HETATM   31  C   UNK A   0      -9.592  12.321  67.786  1.00  0.00    -0.200 A  
HETATM   32  C   UNK A   0     -11.865  10.402  70.840  1.00  0.00    -0.377 C  
HETATM   33  O   UNK A   0     -11.752   9.190  70.996  1.00  0.00    -0.278 OA 
HETATM   34  C   UNK A   0     -12.814  12.438  71.353  1.00  0.00    -0.260 C  
ENDBRANCH  21  22
ENDBRANCH   2  21
TORSDOF 7
ENDMDL
MODEL      124
REMARK 921   NORMALIZED FREE ENERGY PREDICTED BY IDOCK:   -5.76 KCAL/MOL
REMARK 922        TOTAL FREE ENERGY PREDICTED BY IDOCK:   -9.25 KCAL/MOL
REMARK 923 INTER-LIGAND FREE ENERGY PREDICTED BY IDOCK:   -8.52 KCAL/MOL
REMARK 924 INTRA-LIGAND FREE ENERGY PREDICTED BY IDOCK:   -0.73 KCAL/MOL
REMARK 927      BINDING AFFINITY PREDICTED BY RF-SCORE:    0.00 PKD
ROOT
HETATM    1  C   UNK A   0     -10.196  17.927  66.802  1.00  0.00    -0.360 C  
HETATM    2  N   UNK A   0      -9.789  16.526  66.748  1.00  0.00    -0.255 NA 
ENDROOT
BRANCH   2   3
HETATM    3  C   UNK A   0     -10.427  15.632  67.568  1.00  0.00    -0.285 A  
HETATM    4  C   UNK A   0     -11.183  14.478  69.461  1.00  0.00    -0.300 A  
HETATM    5  C   UNK A   0     -10.683  15.708  68.925  1.00  0.00    -0.238 A  
HETATM    6  S   UNK A   0     -11.068  14.171  66.938  1.00  0.00    -0.316 SA 
HETATM    7  C   UNK A   0     -11.352  13.517  68.485  1.00  0.00    -0.292 A  
BRANCH   7   8
HETATM    8  C   UNK A   0     -11.682  12.112  68.647  1.00  0.00    -0.330 C  
HETATM    9  O   UNK A   0     -11.920  11.360  67.708  1.00  0.00    -0.637 OA 
ATOM     10  N   GLU A   1     -11.761  11.676  69.961  1.00  0.00    -0.416 N  
ATOM     11  H   GLU A   1     -11.592  12.339  70.718  1.00  0.00     0.000 HD 
BRANCH  10  12
ATOM     12  CA  GLU A   1     -12.084  10.284  70.287  1.00  0.00    -0.249 C  
ATOM     13  C   GLU A   1     -13.172  10.242  71.376  1.00  0.00    -0.370 C  
ATOM     14  O   GLU A   1     -13.207  11.349  72.157  1.00  0.00    -0.490 OA 
ATOM     15  OXT GLU A   1     -13.849   9.253  71.625  1.00  0.00    -0.364 OA 
BRANCH  12  16
ATOM     16  CB  GLU A   1     -10.816   9.567  70.768  1.00  0.00    -0.386 C  
BRANCH  16  17
ATOM     17  CG  GLU A   1     -10.470   8.347  69.916  1.00  0.00    -0.222 C  
ATOM     18  CD  GLU A   1     -11.277   7.135  70.305  1.00  0.00    -0.276 C  
ATOM     19  OE2 GLU A   1     -11.707   6.923  71.425  1.00  0.00    -0.280 OA 
ATOM     20  OE1 GLU A   1     -11.450   6.271  69.279  1.00  0.00    -0.411 OA 
ENDBRANCH  16  17
ENDBRANCH  12  16
ENDBRANCH  10  12
ENDBRANCH   7   8
ENDBRANCH   2   3
BRANCH   2  21
HETATM   21  C   UNK A   0      -8.348  16.293  66.532  1.00  0.00    -0.308 C  
BRANCH  21  22
HETATM   22  C   UNK A   0      -7.786  15.327  67.553  1.00  0.00    -0.200 A  
HETATM   23  C   UNK A   0      -7.247  13.062  68.250  1.00  0.00    -0.113 A  
HETATM   24  C   UNK A   0      -6.703  13.534  69.444  1.00  0.00    -0.051 A  
HETATM   25  C   UNK A   0      -7.787  13.945  67.310  1.00  0.00    -0.134 A  
HETATM   26  H   UNK A   0      -6.556   9.762  68.773  1.00  0.00     0.000 HD 
HETATM   27  C   UNK A   0      -6.723  14.903  69.705  1.00  0.00    -0.172 A  
HETATM   28  C   UNK A   0      -5.468  10.347  70.999  1.00  0.00    -0.087 C  
HETATM   29  N   UNK A   0      -6.180  12.615  70.355  1.00  0.00    -0.433 NA 
HETATM   30  N   UNK A   0      -6.621  10.766  68.940  1.00  0.00    -0.053 N  
HETATM   31  C   UNK A   0      -7.254  15.792  68.763  1.00  0.00    -0.137 A  
HETATM   32  C   UNK A   0      -7.225  11.594  68.014  1.00  0.00    -0.083 C  
HETATM   33  O   UNK A   0      -7.751  11.166  66.991  1.00  0.00    -0.124 OA 
HETATM   34  C   UNK A   0      -6.138  11.287  70.023  1.00  0.00    -0.142 C  
ENDBRANCH  21  22
ENDBRANCH   2  21
TORSDOF 7
ENDMDL
MODEL      125
REMARK 921   NORMALIZED FREE ENERGY PREDICTED BY IDOCK:   -5.75 KCAL/MOL
REMARK 922        TOTAL FREE ENERGY PREDICTED BY IDOCK:   -9.24 KCAL/MOL
REMARK 923 INTER-LIGAND FREE ENERGY PREDICTED BY IDOCK:   -8.15 KCAL/MOL
REMARK 924 INTRA-LIGAND FREE ENERGY PREDICTED BY IDOCK:   -1.08 KCAL/MOL
REMARK 927      BINDING AFFINITY PREDICTED BY RF-SCORE:    0.00 PKD
ROOT
HETATM    1  C   UNK A   0      -8.938   9.698  62.575  1.00  0.00    -0.268 C  
HETATM    2  N   UNK A   0      -9.371   9.917  63.952  1.00  0.00    -0.354 NA 
ENDROOT
BRANCH   2   3
HETATM    3  C   UNK A   0     -10.322  10.876  64.190  1.00  0.00    -0.364 A  
HETATM    4  C   UNK A   0     -11.807  12.667  63.925  1.00  0.00    -0.544 A  
HETATM    5  C   UNK A   0     -11.075  11.611  63.294  1.00  0.00    -0.333 A  
HETATM    6  S   UNK A   0     -10.748  11.305  65.795  1.00  0.00    -0.182 SA 
HETATM    7  C   UNK A   0     -11.639  12.668  65.295  1.00  0.00    -0.351 A  
BRANCH   7   8
HETATM    8  C   UNK A   0     -12.081  13.660  66.260  1.00  0.00    -0.434 C  
HETATM    9  O   UNK A   0     -12.885  14.548  65.997  1.00  0.00    -0.203 OA 
ATOM     10  N   GLU A   1     -11.487  13.568  67.510  1.00  0.00    -0.311 N  
ATOM     11  H   GLU A   1     -10.795  12.838  67.681  1.00  0.00     0.000 HD 
BRANCH  10  12
ATOM     12  CA  GLU A   1     -11.831  14.498  68.590  1.00  0.00    -0.320 C  
ATOM     13  C   GLU A   1     -10.894  15.719  68.544  1.00  0.00    -0.290 C  
ATOM     14  O   GLU A   1      -9.697  15.470  67.958  1.00  0.00    -0.207 OA 
ATOM     15  OXT GLU A   1     -11.129  16.780  69.107  1.00  0.00    -0.266 OA 
BRANCH  12  16
ATOM     16  CB  GLU A   1     -11.707  13.779  69.938  1.00  0.00    -0.353 C  
BRANCH  16  17
ATOM     17  CG  GLU A   1     -12.923  14.000  70.837  1.00  0.00    -0.347 C  
ATOM     18  CD  GLU A   1     -12.728  15.159  71.781  1.00  0.00    -0.349 C  
ATOM     19  OE2 GLU A   1     -11.650  15.523  72.212  1.00  0.00    -0.430 OA 
ATOM     20  OE1 GLU A   1     -13.895  15.742  72.139  1.00  0.00    -0.465 OA 
ENDBRANCH  16  17
ENDBRANCH  12  16
ENDBRANCH  10  12
ENDBRANCH   7   8
ENDBRANCH   2   3
BRANCH   2  21
HETATM   21  C   UNK A   0      -8.318   9.781  64.977  1.00  0.00    -0.145 C  
BRANCH  21  22
HETATM   22  C   UNK A   0      -8.144   8.338  65.401  1.00  0.00    -0.135 A  
HETATM   23  C   UNK A   0      -8.979   6.343  66.509  1.00  0.00    -0.153 A  
HETATM   24  C   UNK A   0      -7.830   5.637  66.155  1.00  0.00    -0.100 A  
HETATM   25  C   UNK A   0      -9.140   7.682  66.140  1.00  0.00    -0.189 A  
HETATM   26  H   UNK A   0     -10.576   3.756  68.057  1.00  0.00     0.000 HD 
HETATM   27  C   UNK A   0      -6.823   6.290  65.445  1.00  0.00    -0.048 A  
HETATM   28  C   UNK A   0      -8.616   2.226  67.513  1.00  0.00    -0.122 C  
HETATM   29  N   UNK A   0      -7.710   4.304  66.550  1.00  0.00    -0.093 NA 
HETATM   30  N   UNK A   0      -9.851   4.279  67.567  1.00  0.00    -0.151 N  
HETATM   31  C   UNK A   0      -6.984   7.628  65.065  1.00  0.00    -0.058 A  
HETATM   32  C   UNK A   0     -10.023   5.620  67.282  1.00  0.00    -0.159 C  
HETATM   33  O   UNK A   0     -11.012   6.249  67.645  1.00  0.00    -0.314 OA 
HETATM   34  C   UNK A   0      -8.753   3.698  67.200  1.00  0.00    -0.116 C  
ENDBRANCH  21  22
ENDBRANCH   2  21
TORSDOF 7
ENDMDL
MODEL      126
REMARK 921   NORMALIZED FREE ENERGY PREDICTED BY IDOCK:   -5.74 KCAL/MOL
REMARK 922        TOTAL FREE ENERGY PREDICTED BY IDOCK:   -9.23 KCAL/MOL
REMARK 923 INTER-LIGAND FREE ENERGY PREDICTED BY IDOCK:   -9.17 KCAL/MOL
REMARK 924 INTRA-LIGAND FREE ENERGY PREDICTED BY IDOCK:   -0.05 KCAL/MOL
REMARK 927      BINDING AFFINITY PREDICTED BY RF-SCORE:    0.00 PKD
ROOT
HETATM    1  C   UNK A   0     -12.971   7.294  71.651  1.00  0.00    -0.372 C  
HETATM    2  N   UNK A   0     -12.010   8.297  72.102  1.00  0.00    -0.345 NA 
ENDROOT
BRANCH   2   3
HETATM    3  C   UNK A   0     -12.117   9.570  71.606  1.00  0.00    -0.398 A  
HETATM    4  C   UNK A   0     -12.915  11.712  71.096  1.00  0.00    -0.308 A  
HETATM    5  C   UNK A   0     -12.950  10.601  71.998  1.00  0.00    -0.466 A  
HETATM    6  S   UNK A   0     -11.110  10.095  70.321  1.00  0.00    -0.331 SA 
HETATM    7  C   UNK A   0     -12.009  11.521  70.072  1.00  0.00    -0.357 A  
BRANCH   7   8
HETATM    8  C   UNK A   0     -11.798  12.334  68.887  1.00  0.00    -0.303 C  
HETATM    9  O   UNK A   0     -11.962  11.920  67.745  1.00  0.00    -0.559 OA 
ATOM     10  N   GLU A   1     -11.344  13.622  69.132  1.00  0.00    -0.273 N  
ATOM     11  H   GLU A   1     -11.185  13.920  70.095  1.00  0.00     0.000 HD 
BRANCH  10  12
ATOM     12  CA  GLU A   1     -11.087  14.562  68.038  1.00  0.00    -0.276 C  
ATOM     13  C   GLU A   1      -9.579  14.605  67.732  1.00  0.00    -0.213 C  
ATOM     14  O   GLU A   1      -8.796  14.257  68.783  1.00  0.00    -0.168 OA 
ATOM     15  OXT GLU A   1      -9.106  15.050  66.694  1.00  0.00    -0.246 OA 
BRANCH  12  16
ATOM     16  CB  GLU A   1     -11.592  15.954  68.435  1.00  0.00    -0.317 C  
BRANCH  16  17
ATOM     17  CG  GLU A   1     -10.469  16.876  68.909  1.00  0.00    -0.346 C  
ATOM     18  CD  GLU A   1     -10.456  18.185  68.162  1.00  0.00    -0.349 C  
ATOM     19  OE2 GLU A   1     -10.843  18.330  67.017  1.00  0.00    -0.329 OA 
ATOM     20  OE1 GLU A   1      -9.928  19.195  68.890  1.00  0.00    -0.418 OA 
ENDBRANCH  16  17
ENDBRANCH  12  16
ENDBRANCH  10  12
ENDBRANCH   7   8
ENDBRANCH   2   3
BRANCH   2  21
HETATM   21  C   UNK A   0     -10.637   7.802  72.327  1.00  0.00    -0.259 C  
BRANCH  21  22
HETATM   22  C   UNK A   0     -10.351   6.571  71.496  1.00  0.00    -0.238 A  
HETATM   23  C   UNK A   0     -10.145   5.477  69.335  1.00  0.00    -0.306 A  
HETATM   24  C   UNK A   0      -9.779   4.280  69.949  1.00  0.00    -0.221 A  
HETATM   25  C   UNK A   0     -10.432   6.615  70.095  1.00  0.00    -0.248 A  
HETATM   26  H   UNK A   0      -9.853   4.381  66.117  1.00  0.00     0.000 HD 
HETATM   27  C   UNK A   0      -9.723   4.220  71.341  1.00  0.00    -0.252 A  
HETATM   28  C   UNK A   0      -9.124   2.095  66.967  1.00  0.00    -0.124 C  
HETATM   29  N   UNK A   0      -9.508   3.169  69.150  1.00  0.00    -0.152 NA 
HETATM   30  N   UNK A   0      -9.856   4.371  67.137  1.00  0.00    -0.198 N  
HETATM   31  C   UNK A   0     -10.000   5.359  72.106  1.00  0.00    -0.226 A  
HETATM   32  C   UNK A   0     -10.213   5.499  67.850  1.00  0.00    -0.181 C  
HETATM   33  O   UNK A   0     -10.587   6.532  67.304  1.00  0.00    -0.229 OA 
HETATM   34  C   UNK A   0      -9.526   3.299  67.786  1.00  0.00    -0.164 C  
ENDBRANCH  21  22
ENDBRANCH   2  21
TORSDOF 7
ENDMDL
MODEL      127
REMARK 921   NORMALIZED FREE ENERGY PREDICTED BY IDOCK:   -5.74 KCAL/MOL
REMARK 922        TOTAL FREE ENERGY PREDICTED BY IDOCK:   -9.22 KCAL/MOL
REMARK 923 INTER-LIGAND FREE ENERGY PREDICTED BY IDOCK:   -8.67 KCAL/MOL
REMARK 924 INTRA-LIGAND FREE ENERGY PREDICTED BY IDOCK:   -0.55 KCAL/MOL
REMARK 927      BINDING AFFINITY PREDICTED BY RF-SCORE:    0.00 PKD
ROOT
HETATM    1  C   UNK A   0      -8.498  11.993  67.113  1.00  0.00    -0.180 C  
HETATM    2  N   UNK A   0      -9.772  11.435  67.557  1.00  0.00    -0.177 NA 
ENDROOT
BRANCH   2   3
HETATM    3  C   UNK A   0      -9.809  10.115  67.928  1.00  0.00    -0.151 A  
HETATM    4  C   UNK A   0     -10.490   7.894  68.224  1.00  0.00    -0.212 A  
HETATM    5  C   UNK A   0     -10.584   9.083  67.432  1.00  0.00    -0.309 A  
HETATM    6  S   UNK A   0      -8.779   9.525  69.165  1.00  0.00    -0.155 SA 
HETATM    7  C   UNK A   0      -9.599   8.035  69.268  1.00  0.00    -0.157 A  
BRANCH   7   8
HETATM    8  C   UNK A   0      -9.347   7.125  70.372  1.00  0.00    -0.159 C  
HETATM    9  O   UNK A   0      -8.379   6.373  70.422  1.00  0.00    -0.123 OA 
ATOM     10  N   GLU A   1     -10.317   7.122  71.363  1.00  0.00    -0.197 N  
ATOM     11  H   GLU A   1     -11.127   7.736  71.270  1.00  0.00     0.000 HD 
BRANCH  10  12
ATOM     12  CA  GLU A   1     -10.204   6.259  72.542  1.00  0.00    -0.184 C  
ATOM     13  C   GLU A   1     -11.521   5.490  72.754  1.00  0.00    -0.280 C  
ATOM     14  O   GLU A   1     -12.607   6.111  72.231  1.00  0.00    -0.192 OA 
ATOM     15  OXT GLU A   1     -11.623   4.491  73.452  1.00  0.00    -0.300 OA 
BRANCH  12  16
ATOM     16  CB  GLU A   1      -9.880   7.115  73.771  1.00  0.00    -0.355 C  
BRANCH  16  17
ATOM     17  CG  GLU A   1      -8.642   7.989  73.572  1.00  0.00    -0.318 C  
ATOM     18  CD  GLU A   1      -7.368   7.183  73.597  1.00  0.00    -0.078 C  
ATOM     19  OE2 GLU A   1      -7.219   6.148  74.222  1.00  0.00    -0.087 OA 
ATOM     20  OE1 GLU A   1      -6.377   7.752  72.875  1.00  0.00    -0.059 OA 
ENDBRANCH  16  17
ENDBRANCH  12  16
ENDBRANCH  10  12
ENDBRANCH   7   8
ENDBRANCH   2   3
BRANCH   2  21
HETATM   21  C   UNK A   0     -10.967  11.945  66.857  1.00  0.00    -0.289 C  
BRANCH  21  22
HETATM   22  C   UNK A   0     -10.824  13.413  66.521  1.00  0.00    -0.286 A  
HETATM   23  C   UNK A   0     -10.770  15.745  67.204  1.00  0.00    -0.312 A  
HETATM   24  C   UNK A   0     -10.519  16.148  65.892  1.00  0.00    -0.352 A  
HETATM   25  C   UNK A   0     -10.924  14.393  67.521  1.00  0.00    -0.299 A  
HETATM   26  H   UNK A   0     -10.648  18.854  68.606  1.00  0.00     0.000 HD 
HETATM   27  C   UNK A   0     -10.445  15.184  64.888  1.00  0.00    -0.350 A  
HETATM   28  C   UNK A   0     -10.144  19.859  66.322  1.00  0.00    -0.613 C  
HETATM   29  N   UNK A   0     -10.378  17.509  65.622  1.00  0.00    -0.633 NA 
HETATM   30  N   UNK A   0     -10.635  18.120  67.897  1.00  0.00    -0.396 N  
HETATM   31  C   UNK A   0     -10.589  13.827  65.203  1.00  0.00    -0.385 A  
HETATM   32  C   UNK A   0     -10.860  16.803  68.245  1.00  0.00    -0.366 C  
HETATM   33  O   UNK A   0     -11.136  16.462  69.391  1.00  0.00    -0.318 OA 
HETATM   34  C   UNK A   0     -10.406  18.408  66.655  1.00  0.00    -0.396 C  
ENDBRANCH  21  22
ENDBRANCH   2  21
TORSDOF 7
ENDMDL
MODEL      128
REMARK 921   NORMALIZED FREE ENERGY PREDICTED BY IDOCK:   -5.68 KCAL/MOL
REMARK 922        TOTAL FREE ENERGY PREDICTED BY IDOCK:   -9.14 KCAL/MOL
REMARK 923 INTER-LIGAND FREE ENERGY PREDICTED BY IDOCK:   -8.36 KCAL/MOL
REMARK 924 INTRA-LIGAND FREE ENERGY PREDICTED BY IDOCK:   -0.78 KCAL/MOL
REMARK 927      BINDING AFFINITY PREDICTED BY RF-SCORE:    0.00 PKD
ROOT
HETATM    1  C   UNK A   0     -11.696  11.862  63.868  1.00  0.00    -0.415 C  
HETATM    2  N   UNK A   0     -10.573  11.761  64.795  1.00  0.00    -0.286 NA 
ENDROOT
BRANCH   2   3
HETATM    3  C   UNK A   0      -9.697  10.718  64.644  1.00  0.00    -0.289 A  
HETATM    4  C   UNK A   0      -8.501   8.913  63.753  1.00  0.00    -0.147 A  
HETATM    5  C   UNK A   0      -9.244  10.107  63.489  1.00  0.00    -0.322 A  
HETATM    6  S   UNK A   0      -8.966   9.986  66.012  1.00  0.00    -0.154 SA 
HETATM    7  C   UNK A   0      -8.355   8.680  65.106  1.00  0.00    -0.168 A  
BRANCH   7   8
HETATM    8  C   UNK A   0      -7.811   7.507  65.767  1.00  0.00    -0.107 C  
HETATM    9  O   UNK A   0      -6.671   7.450  66.215  1.00  0.00    -0.057 OA 
ATOM     10  N   GLU A   1      -8.664   6.414  65.819  1.00  0.00    -0.202 N  
ATOM     11  H   GLU A   1      -9.594   6.486  65.405  1.00  0.00     0.000 HD 
BRANCH  10  12
ATOM     12  CA  GLU A   1      -8.259   5.158  66.457  1.00  0.00    -0.108 C  
ATOM     13  C   GLU A   1      -7.686   4.198  65.399  1.00  0.00    -0.086 C  
ATOM     14  O   GLU A   1      -8.145   4.429  64.144  1.00  0.00    -0.089 OA 
ATOM     15  OXT GLU A   1      -6.999   3.221  65.665  1.00  0.00    -0.054 OA 
BRANCH  12  16
ATOM     16  CB  GLU A   1      -9.471   4.526  67.152  1.00  0.00    -0.182 C  
BRANCH  16  17
ATOM     17  CG  GLU A   1      -9.745   5.134  68.527  1.00  0.00    -0.205 C  
ATOM     18  CD  GLU A   1     -10.879   6.126  68.494  1.00  0.00    -0.314 C  
ATOM     19  OE2 GLU A   1     -11.182   6.796  67.524  1.00  0.00    -0.287 OA 
ATOM     20  OE1 GLU A   1     -11.519   6.226  69.681  1.00  0.00    -0.432 OA 
ENDBRANCH  16  17
ENDBRANCH  12  16
ENDBRANCH  10  12
ENDBRANCH   7   8
ENDBRANCH   2   3
BRANCH   2  21
HETATM   21  C   UNK A   0     -10.858  12.173  66.183  1.00  0.00    -0.282 C  
BRANCH  21  22
HETATM   22  C   UNK A   0     -10.756  13.674  66.346  1.00  0.00    -0.281 A  
HETATM   23  C   UNK A   0     -10.599  15.642  67.763  1.00  0.00    -0.281 A  
HETATM   24  C   UNK A   0     -10.527  16.471  66.644  1.00  0.00    -0.266 A  
HETATM   25  C   UNK A   0     -10.714  14.256  67.623  1.00  0.00    -0.259 A  
HETATM   26  H   UNK A   0     -10.273  18.104  70.103  1.00  0.00     0.000 HD 
HETATM   27  C   UNK A   0     -10.595  15.903  65.373  1.00  0.00    -0.439 A  
HETATM   28  C   UNK A   0     -10.081  19.836  68.248  1.00  0.00    -0.575 C  
HETATM   29  N   UNK A   0     -10.418  17.849  66.832  1.00  0.00    -0.351 NA 
HETATM   30  N   UNK A   0     -10.360  17.651  69.194  1.00  0.00    -0.373 N  
HETATM   31  C   UNK A   0     -10.701  14.515  65.227  1.00  0.00    -0.390 A  
HETATM   32  C   UNK A   0     -10.542  16.285  69.102  1.00  0.00    -0.292 C  
HETATM   33  O   UNK A   0     -10.660  15.569  70.092  1.00  0.00    -0.299 OA 
HETATM   34  C   UNK A   0     -10.301  18.348  68.103  1.00  0.00    -0.366 C  
ENDBRANCH  21  22
ENDBRANCH   2  21
TORSDOF 7
ENDMDL
MODEL      129
REMARK 921   NORMALIZED FREE ENERGY PREDICTED BY IDOCK:   -5.66 KCAL/MOL
REMARK 922        TOTAL FREE ENERGY PREDICTED BY IDOCK:   -9.10 KCAL/MOL
REMARK 923 INTER-LIGAND FREE ENERGY PREDICTED BY IDOCK:   -8.66 KCAL/MOL
REMARK 924 INTRA-LIGAND FREE ENERGY PREDICTED BY IDOCK:   -0.44 KCAL/MOL
REMARK 927      BINDING AFFINITY PREDICTED BY RF-SCORE:    0.00 PKD
ROOT
HETATM    1  C   UNK A   0     -11.173  10.103  67.603  1.00  0.00    -0.095 C  
HETATM    2  N   UNK A   0     -11.269  11.483  68.069  1.00  0.00    -0.246 NA 
ENDROOT
BRANCH   2   3
HETATM    3  C   UNK A   0     -10.157  12.279  67.979  1.00  0.00    -0.206 A  
HETATM    4  C   UNK A   0      -7.958  13.072  68.113  1.00  0.00    -0.154 A  
HETATM    5  C   UNK A   0      -8.819  11.932  68.026  1.00  0.00    -0.177 A  
HETATM    6  S   UNK A   0     -10.310  13.972  67.753  1.00  0.00    -0.239 SA 
HETATM    7  C   UNK A   0      -8.661  14.259  68.068  1.00  0.00    -0.169 A  
BRANCH   7   8
HETATM    8  C   UNK A   0      -8.171  15.609  68.284  1.00  0.00    -0.142 C  
HETATM    9  O   UNK A   0      -7.296  15.889  69.098  1.00  0.00    -0.172 OA 
ATOM     10  N   GLU A   1      -8.801  16.590  67.533  1.00  0.00    -0.190 N  
ATOM     11  H   GLU A   1      -9.549  16.324  66.892  1.00  0.00     0.000 HD 
BRANCH  10  12
ATOM     12  CA  GLU A   1      -8.416  18.000  67.639  1.00  0.00    -0.239 C  
ATOM     13  C   GLU A   1      -9.289  18.700  68.697  1.00  0.00    -0.341 C  
ATOM     14  O   GLU A   1     -10.494  18.110  68.889  1.00  0.00    -0.282 OA 
ATOM     15  OXT GLU A   1      -9.004  19.771  69.216  1.00  0.00    -0.148 OA 
BRANCH  12  16
ATOM     16  CB  GLU A   1      -8.582  18.678  66.274  1.00  0.00    -0.232 C  
BRANCH  16  17
ATOM     17  CG  GLU A   1      -7.726  19.936  66.132  1.00  0.00    -0.339 C  
ATOM     18  CD  GLU A   1      -6.696  19.801  65.040  1.00  0.00    -0.194 C  
ATOM     19  OE2 GLU A   1      -6.193  18.748  64.692  1.00  0.00    -0.459 OA 
ATOM     20  OE1 GLU A   1      -6.352  20.991  64.499  1.00  0.00    -0.284 OA 
ENDBRANCH  16  17
ENDBRANCH  12  16
ENDBRANCH  10  12
ENDBRANCH   7   8
ENDBRANCH   2   3
BRANCH   2  21
HETATM   21  C   UNK A   0     -12.122  11.693  69.256  1.00  0.00    -0.259 C  
BRANCH  21  22
HETATM   22  C   UNK A   0     -11.980  10.557  70.245  1.00  0.00    -0.411 A  
HETATM   23  C   UNK A   0     -10.591   9.067  71.572  1.00  0.00    -0.415 A  
HETATM   24  C   UNK A   0     -11.723   8.462  72.120  1.00  0.00    -0.375 A  
HETATM   25  C   UNK A   0     -10.712  10.104  70.642  1.00  0.00    -0.243 A  
HETATM   26  H   UNK A   0      -8.287   7.277  73.340  1.00  0.00     0.000 HD 
HETATM   27  C   UNK A   0     -12.986   8.888  71.710  1.00  0.00    -0.418 A  
HETATM   28  C   UNK A   0     -10.166   6.033  74.522  1.00  0.00    -0.307 C  
HETATM   29  N   UNK A   0     -11.554   7.428  73.040  1.00  0.00    -0.597 NA 
HETATM   30  N   UNK A   0      -9.190   7.595  72.989  1.00  0.00    -0.179 N  
HETATM   31  C   UNK A   0     -13.111   9.932  70.786  1.00  0.00    -0.256 A  
HETATM   32  C   UNK A   0      -9.262   8.575  72.018  1.00  0.00    -0.256 C  
HETATM   33  O   UNK A   0      -8.262   9.064  71.501  1.00  0.00    -0.303 OA 
HETATM   34  C   UNK A   0     -10.291   7.087  73.446  1.00  0.00    -0.334 C  
ENDBRANCH  21  22
ENDBRANCH   2  21
TORSDOF 7
ENDMDL
MODEL      130
REMARK 921   NORMALIZED FREE ENERGY PREDICTED BY IDOCK:   -5.64 KCAL/MOL
REMARK 922        TOTAL FREE ENERGY PREDICTED BY IDOCK:   -9.08 KCAL/MOL
REMARK 923 INTER-LIGAND FREE ENERGY PREDICTED BY IDOCK:   -7.72 KCAL/MOL
REMARK 924 INTRA-LIGAND FREE ENERGY PREDICTED BY IDOCK:   -1.36 KCAL/MOL
REMARK 927      BINDING AFFINITY PREDICTED BY RF-SCORE:    0.00 PKD
ROOT
HETATM    1  C   UNK A   0     -10.827  15.134  70.215  1.00  0.00    -0.231 C  
HETATM    2  N   UNK A   0     -11.302  13.806  69.838  1.00  0.00    -0.469 NA 
ENDROOT
BRANCH   2   3
HETATM    3  C   UNK A   0     -11.116  13.392  68.545  1.00  0.00    -0.270 A  
HETATM    4  C   UNK A   0     -11.501  12.660  66.354  1.00  0.00    -0.409 A  
HETATM    5  C   UNK A   0     -12.012  13.361  67.492  1.00  0.00    -0.381 A  
HETATM    6  S   UNK A   0      -9.585  12.823  68.021  1.00  0.00    -0.220 SA 
HETATM    7  C   UNK A   0     -10.204  12.228  66.549  1.00  0.00    -0.214 A  
BRANCH   7   8
HETATM    8  C   UNK A   0      -9.405  11.357  65.706  1.00  0.00    -0.228 C  
HETATM    9  O   UNK A   0      -9.488  11.336  64.483  1.00  0.00    -0.228 OA 
ATOM     10  N   GLU A   1      -8.558  10.496  66.388  1.00  0.00    -0.140 N  
ATOM     11  H   GLU A   1      -8.541  10.516  67.408  1.00  0.00     0.000 HD 
BRANCH  10  12
ATOM     12  CA  GLU A   1      -7.686   9.557  65.676  1.00  0.00    -0.101 C  
ATOM     13  C   GLU A   1      -8.436   8.236  65.428  1.00  0.00    -0.172 C  
ATOM     14  O   GLU A   1      -9.431   7.996  66.317  1.00  0.00    -0.204 OA 
ATOM     15  OXT GLU A   1      -8.088   7.397  64.607  1.00  0.00    -0.134 OA 
BRANCH  12  16
ATOM     16  CB  GLU A   1      -6.421   9.308  66.505  1.00  0.00    -0.067 C  
BRANCH  16  17
ATOM     17  CG  GLU A   1      -6.540   9.836  67.934  1.00  0.00    -0.061 C  
ATOM     18  CD  GLU A   1      -6.507   8.727  68.954  1.00  0.00    -0.049 C  
ATOM     19  OE2 GLU A   1      -6.896   7.591  68.751  1.00  0.00    -0.061 OA 
ATOM     20  OE1 GLU A   1      -6.027   9.133  70.151  1.00  0.00    -0.033 OA 
ENDBRANCH  16  17
ENDBRANCH  12  16
ENDBRANCH  10  12
ENDBRANCH   7   8
ENDBRANCH   2   3
BRANCH   2  21
HETATM   21  C   UNK A   0     -12.559  13.376  70.482  1.00  0.00    -0.211 C  
BRANCH  21  22
HETATM   22  C   UNK A   0     -12.494  11.924  70.902  1.00  0.00    -0.397 A  
HETATM   23  C   UNK A   0     -11.545   9.697  70.681  1.00  0.00    -0.371 A  
HETATM   24  C   UNK A   0     -12.352   9.225  71.716  1.00  0.00    -0.379 A  
HETATM   25  C   UNK A   0     -11.612  11.033  70.272  1.00  0.00    -0.414 A  
HETATM   26  H   UNK A   0      -9.865   6.781  70.122  1.00  0.00     0.000 HD 
HETATM   27  C   UNK A   0     -13.251  10.097  72.328  1.00  0.00    -0.359 A  
HETATM   28  C   UNK A   0     -11.181   5.669  71.996  1.00  0.00    -0.271 C  
HETATM   29  N   UNK A   0     -12.255   7.883  72.086  1.00  0.00    -0.369 NA 
HETATM   30  N   UNK A   0     -10.531   7.442  70.520  1.00  0.00    -0.215 N  
HETATM   31  C   UNK A   0     -13.315  11.437  71.928  1.00  0.00    -0.409 A  
HETATM   32  C   UNK A   0     -10.612   8.734  70.039  1.00  0.00    -0.223 C  
HETATM   33  O   UNK A   0      -9.938   9.128  69.092  1.00  0.00    -0.177 OA 
HETATM   34  C   UNK A   0     -11.317   7.085  71.487  1.00  0.00    -0.258 C  
ENDBRANCH  21  22
ENDBRANCH   2  21
TORSDOF 7
ENDMDL
MODEL      131
REMARK 921   NORMALIZED FREE ENERGY PREDICTED BY IDOCK:   -5.63 KCAL/MOL
REMARK 922        TOTAL FREE ENERGY PREDICTED BY IDOCK:   -9.06 KCAL/MOL
REMARK 923 INTER-LIGAND FREE ENERGY PREDICTED BY IDOCK:   -8.01 KCAL/MOL
REMARK 924 INTRA-LIGAND FREE ENERGY PREDICTED BY IDOCK:   -1.05 KCAL/MOL
REMARK 927      BINDING AFFINITY PREDICTED BY RF-SCORE:    0.00 PKD
ROOT
HETATM    1  C   UNK A   0      -7.786   7.197  64.473  1.00  0.00    -0.121 C  
HETATM    2  N   UNK A   0      -8.427   8.307  65.173  1.00  0.00    -0.250 NA 
ENDROOT
BRANCH   2   3
HETATM    3  C   UNK A   0      -8.985   9.312  64.426  1.00  0.00    -0.116 A  
HETATM    4  C   UNK A   0      -9.319  10.982  62.818  1.00  0.00    -0.372 A  
HETATM    5  C   UNK A   0      -8.633   9.776  63.171  1.00  0.00    -0.198 A  
HETATM    6  S   UNK A   0     -10.338  10.189  65.010  1.00  0.00     0.225 SA 
HETATM    7  C   UNK A   0     -10.221  11.370  63.789  1.00  0.00    -0.382 A  
BRANCH   7   8
HETATM    8  C   UNK A   0     -10.982  12.604  63.874  1.00  0.00    -0.424 C  
HETATM    9  O   UNK A   0     -11.833  12.932  63.055  1.00  0.00    -0.403 OA 
ATOM     10  N   GLU A   1     -10.643  13.430  64.937  1.00  0.00    -0.362 N  
ATOM     11  H   GLU A   1      -9.905  13.140  65.578  1.00  0.00     0.000 HD 
BRANCH  10  12
ATOM     12  CA  GLU A   1     -11.324  14.709  65.158  1.00  0.00    -0.375 C  
ATOM     13  C   GLU A   1     -10.282  15.822  65.373  1.00  0.00    -0.349 C  
ATOM     14  O   GLU A   1      -9.093  15.375  65.847  1.00  0.00    -0.311 OA 
ATOM     15  OXT GLU A   1     -10.531  17.016  65.275  1.00  0.00    -0.649 OA 
BRANCH  12  16
ATOM     16  CB  GLU A   1     -12.243  14.592  66.379  1.00  0.00    -0.274 C  
BRANCH  16  17
ATOM     17  CG  GLU A   1     -11.775  13.524  67.368  1.00  0.00    -0.419 C  
ATOM     18  CD  GLU A   1     -11.992  13.943  68.800  1.00  0.00    -0.358 C  
ATOM     19  OE2 GLU A   1     -11.987  15.097  69.189  1.00  0.00    -0.307 OA 
ATOM     20  OE1 GLU A   1     -12.158  12.890  69.632  1.00  0.00    -0.289 OA 
ENDBRANCH  16  17
ENDBRANCH  12  16
ENDBRANCH  10  12
ENDBRANCH   7   8
ENDBRANCH   2   3
BRANCH   2  21
HETATM   21  C   UNK A   0      -7.781   8.720  66.434  1.00  0.00    -0.099 C  
BRANCH  21  22
HETATM   22  C   UNK A   0      -8.637   8.373  67.632  1.00  0.00    -0.130 A  
HETATM   23  C   UNK A   0      -9.473   6.750  69.237  1.00  0.00    -0.142 A  
HETATM   24  C   UNK A   0     -10.206   7.740  69.891  1.00  0.00    -0.213 A  
HETATM   25  C   UNK A   0      -8.695   7.057  68.116  1.00  0.00    -0.127 A  
HETATM   26  H   UNK A   0     -10.295   4.190  71.337  1.00  0.00     0.000 HD 
HETATM   27  C   UNK A   0     -10.176   9.044  69.400  1.00  0.00    -0.206 A  
HETATM   28  C   UNK A   0     -11.689   5.793  72.739  1.00  0.00    -0.216 C  
HETATM   29  N   UNK A   0     -10.973   7.386  71.002  1.00  0.00    -0.247 NA 
HETATM   30  N   UNK A   0     -10.271   5.123  70.926  1.00  0.00    -0.229 N  
HETATM   31  C   UNK A   0      -9.391   9.358  68.284  1.00  0.00    -0.140 A  
HETATM   32  C   UNK A   0      -9.544   5.367  69.778  1.00  0.00    -0.168 C  
HETATM   33  O   UNK A   0      -8.946   4.480  69.176  1.00  0.00    -0.091 OA 
HETATM   34  C   UNK A   0     -10.923   6.101  71.473  1.00  0.00    -0.273 C  
ENDBRANCH  21  22
ENDBRANCH   2  21
TORSDOF 7
ENDMDL
MODEL      132
REMARK 921   NORMALIZED FREE ENERGY PREDICTED BY IDOCK:   -5.60 KCAL/MOL
REMARK 922        TOTAL FREE ENERGY PREDICTED BY IDOCK:   -9.02 KCAL/MOL
REMARK 923 INTER-LIGAND FREE ENERGY PREDICTED BY IDOCK:   -8.07 KCAL/MOL
REMARK 924 INTRA-LIGAND FREE ENERGY PREDICTED BY IDOCK:   -0.95 KCAL/MOL
REMARK 927      BINDING AFFINITY PREDICTED BY RF-SCORE:    0.00 PKD
ROOT
HETATM    1  C   UNK A   0     -14.408   8.336  71.153  1.00  0.00    -0.148 C  
HETATM    2  N   UNK A   0     -13.142   9.035  71.351  1.00  0.00    -0.438 NA 
ENDROOT
BRANCH   2   3
HETATM    3  C   UNK A   0     -12.033   8.294  71.667  1.00  0.00    -0.303 A  
HETATM    4  C   UNK A   0      -9.841   7.667  72.204  1.00  0.00    -0.226 A  
HETATM    5  C   UNK A   0     -10.834   8.698  72.227  1.00  0.00    -0.392 A  
HETATM    6  S   UNK A   0     -12.005   6.601  71.395  1.00  0.00    -0.334 SA 
HETATM    7  C   UNK A   0     -10.330   6.486  71.683  1.00  0.00    -0.207 A  
BRANCH   7   8
HETATM    8  C   UNK A   0      -9.601   5.274  71.350  1.00  0.00    -0.158 C  
HETATM    9  O   UNK A   0      -9.846   4.180  71.846  1.00  0.00    -0.165 OA 
ATOM     10  N   GLU A   1      -8.557   5.445  70.453  1.00  0.00    -0.122 N  
ATOM     11  H   GLU A   1      -8.360   6.378  70.088  1.00  0.00     0.000 HD 
BRANCH  10  12
ATOM     12  CA  GLU A   1      -7.730   4.316  70.018  1.00  0.00    -0.052 C  
ATOM     13  C   GLU A   1      -6.300   4.476  70.567  1.00  0.00    -0.026 C  
ATOM     14  O   GLU A   1      -5.953   5.761  70.825  1.00  0.00    -0.027 OA 
ATOM     15  OXT GLU A   1      -5.489   3.562  70.631  1.00  0.00    -0.011 OA 
BRANCH  12  16
ATOM     16  CB  GLU A   1      -7.712   4.259  68.486  1.00  0.00    -0.070 C  
BRANCH  16  17
ATOM     17  CG  GLU A   1      -8.720   5.215  67.849  1.00  0.00    -0.102 C  
ATOM     18  CD  GLU A   1      -8.070   6.490  67.373  1.00  0.00    -0.121 C  
ATOM     19  OE2 GLU A   1      -7.078   6.987  67.874  1.00  0.00    -0.080 OA 
ATOM     20  OE1 GLU A   1      -8.732   7.058  66.340  1.00  0.00    -0.130 OA 
ENDBRANCH  16  17
ENDBRANCH  12  16
ENDBRANCH  10  12
ENDBRANCH   7   8
ENDBRANCH   2   3
BRANCH   2  21
HETATM   21  C   UNK A   0     -13.243  10.358  71.998  1.00  0.00    -0.392 C  
BRANCH  21  22
HETATM   22  C   UNK A   0     -12.730  11.455  71.091  1.00  0.00    -0.479 A  
HETATM   23  C   UNK A   0     -12.394  13.813  70.604  1.00  0.00    -0.445 A  
HETATM   24  C   UNK A   0     -11.738  13.497  69.414  1.00  0.00    -0.325 A  
HETATM   25  C   UNK A   0     -12.889  12.806  71.438  1.00  0.00    -0.371 A  
HETATM   26  H   UNK A   0     -12.025  17.197  70.378  1.00  0.00     0.000 HD 
HETATM   27  C   UNK A   0     -11.600  12.159  69.049  1.00  0.00    -0.374 A  
HETATM   28  C   UNK A   0     -10.760  16.909  68.188  1.00  0.00    -0.375 C  
HETATM   29  N   UNK A   0     -11.265  14.535  68.611  1.00  0.00    -0.249 NA 
HETATM   30  N   UNK A   0     -11.975  16.209  70.132  1.00  0.00    -0.368 N  
HETATM   31  C   UNK A   0     -12.086  11.147  69.886  1.00  0.00    -0.418 A  
HETATM   32  C   UNK A   0     -12.539  15.251  70.952  1.00  0.00    -0.412 C  
HETATM   33  O   UNK A   0     -13.163  15.539  71.969  1.00  0.00    -0.399 OA 
HETATM   34  C   UNK A   0     -11.381  15.829  69.045  1.00  0.00    -0.354 C  
ENDBRANCH  21  22
ENDBRANCH   2  21
TORSDOF 7
ENDMDL
MODEL      133
REMARK 921   NORMALIZED FREE ENERGY PREDICTED BY IDOCK:   -5.60 KCAL/MOL
REMARK 922        TOTAL FREE ENERGY PREDICTED BY IDOCK:   -9.02 KCAL/MOL
REMARK 923 INTER-LIGAND FREE ENERGY PREDICTED BY IDOCK:   -8.64 KCAL/MOL
REMARK 924 INTRA-LIGAND FREE ENERGY PREDICTED BY IDOCK:   -0.38 KCAL/MOL
REMARK 927      BINDING AFFINITY PREDICTED BY RF-SCORE:    0.00 PKD
ROOT
HETATM    1  C   UNK A   0     -11.561  12.157  67.620  1.00  0.00    -0.343 C  
HETATM    2  N   UNK A   0     -10.589  11.327  66.914  1.00  0.00    -0.245 NA 
ENDROOT
BRANCH   2   3
HETATM    3  C   UNK A   0     -10.305  10.085  67.419  1.00  0.00    -0.238 A  
HETATM    4  C   UNK A   0      -9.864   7.792  67.601  1.00  0.00    -0.208 A  
HETATM    5  C   UNK A   0      -9.829   8.959  66.772  1.00  0.00    -0.308 A  
HETATM    6  S   UNK A   0     -10.507   9.752  69.090  1.00  0.00    -0.225 SA 
HETATM    7  C   UNK A   0     -10.308   8.074  68.877  1.00  0.00    -0.209 A  
BRANCH   7   8
HETATM    8  C   UNK A   0     -10.630   7.147  69.948  1.00  0.00    -0.230 C  
HETATM    9  O   UNK A   0     -11.712   6.579  70.049  1.00  0.00    -0.416 OA 
ATOM     10  N   GLU A   1      -9.632   6.978  70.897  1.00  0.00    -0.168 N  
ATOM     11  H   GLU A   1      -8.758   7.495  70.800  1.00  0.00     0.000 HD 
BRANCH  10  12
ATOM     12  CA  GLU A   1      -9.807   6.074  72.037  1.00  0.00    -0.156 C  
ATOM     13  C   GLU A   1      -9.890   6.889  73.341  1.00  0.00    -0.218 C  
ATOM     14  O   GLU A   1      -9.274   8.095  73.273  1.00  0.00    -0.264 OA 
ATOM     15  OXT GLU A   1     -10.334   6.450  74.393  1.00  0.00    -0.332 OA 
BRANCH  12  16
ATOM     16  CB  GLU A   1      -8.631   5.093  72.094  1.00  0.00    -0.126 C  
BRANCH  16  17
ATOM     17  CG  GLU A   1      -8.986   3.714  71.536  1.00  0.00    -0.160 C  
ATOM     18  CD  GLU A   1      -9.446   2.767  72.614  1.00  0.00    -0.105 C  
ATOM     19  OE2 GLU A   1      -9.086   2.817  73.776  1.00  0.00    -0.080 OA 
ATOM     20  OE1 GLU A   1     -10.287   1.816  72.149  1.00  0.00    -0.157 OA 
ENDBRANCH  16  17
ENDBRANCH  12  16
ENDBRANCH  10  12
ENDBRANCH   7   8
ENDBRANCH   2   3
BRANCH   2  21
HETATM   21  C   UNK A   0      -9.457  12.054  66.308  1.00  0.00    -0.229 C  
BRANCH  21  22
HETATM   22  C   UNK A   0      -9.771  13.525  66.141  1.00  0.00    -0.264 A  
HETATM   23  C   UNK A   0      -9.545  15.833  66.869  1.00  0.00    -0.243 A  
HETATM   24  C   UNK A   0     -10.330  16.271  65.803  1.00  0.00    -0.374 A  
HETATM   25  C   UNK A   0      -9.266  14.474  67.043  1.00  0.00    -0.253 A  
HETATM   26  H   UNK A   0      -8.866  18.918  68.158  1.00  0.00     0.000 HD 
HETATM   27  C   UNK A   0     -10.859  15.332  64.918  1.00  0.00    -0.444 A  
HETATM   28  C   UNK A   0     -10.224  19.992  66.292  1.00  0.00    -0.595 C  
HETATM   29  N   UNK A   0     -10.587  17.636  65.672  1.00  0.00    -0.569 NA 
HETATM   30  N   UNK A   0      -9.260  18.197  67.554  1.00  0.00    -0.256 N  
HETATM   31  C   UNK A   0     -10.574  13.971  65.083  1.00  0.00    -0.400 A  
HETATM   32  C   UNK A   0      -9.014  16.861  67.803  1.00  0.00    -0.225 C  
HETATM   33  O   UNK A   0      -8.369  16.479  68.775  1.00  0.00    -0.227 OA 
HETATM   34  C   UNK A   0      -9.998  18.518  66.539  1.00  0.00    -0.380 C  
ENDBRANCH  21  22
ENDBRANCH   2  21
TORSDOF 7
ENDMDL
MODEL      134
REMARK 921   NORMALIZED FREE ENERGY PREDICTED BY IDOCK:   -5.60 KCAL/MOL
REMARK 922        TOTAL FREE ENERGY PREDICTED BY IDOCK:   -9.02 KCAL/MOL
REMARK 923 INTER-LIGAND FREE ENERGY PREDICTED BY IDOCK:   -7.49 KCAL/MOL
REMARK 924 INTRA-LIGAND FREE ENERGY PREDICTED BY IDOCK:   -1.54 KCAL/MOL
REMARK 927      BINDING AFFINITY PREDICTED BY RF-SCORE:    0.00 PKD
ROOT
HETATM    1  C   UNK A   0      -9.537  18.789  68.818  1.00  0.00    -0.364 C  
HETATM    2  N   UNK A   0      -9.099  17.589  68.111  1.00  0.00    -0.269 NA 
ENDROOT
BRANCH   2   3
HETATM    3  C   UNK A   0      -8.203  16.758  68.732  1.00  0.00    -0.250 A  
HETATM    4  C   UNK A   0      -6.215  15.793  69.508  1.00  0.00    -0.154 A  
HETATM    5  C   UNK A   0      -6.878  16.981  69.061  1.00  0.00    -0.229 A  
HETATM    6  S   UNK A   0      -8.673  15.191  69.246  1.00  0.00    -0.172 SA 
HETATM    7  C   UNK A   0      -7.070  14.711  69.566  1.00  0.00    -0.152 A  
BRANCH   7   8
HETATM    8  C   UNK A   0      -6.748  13.317  69.814  1.00  0.00     0.131 C  
HETATM    9  O   UNK A   0      -5.797  12.953  70.498  1.00  0.00    -0.171 OA 
ATOM     10  N   GLU A   1      -7.573  12.402  69.177  1.00  0.00    -0.330 N  
ATOM     11  H   GLU A   1      -8.334  12.742  68.587  1.00  0.00     0.000 HD 
BRANCH  10  12
ATOM     12  CA  GLU A   1      -7.376  10.958  69.332  1.00  0.00    -0.116 C  
ATOM     13  C   GLU A   1      -6.468  10.432  68.205  1.00  0.00    -0.056 C  
ATOM     14  O   GLU A   1      -6.493  11.192  67.082  1.00  0.00    -0.073 OA 
ATOM     15  OXT GLU A   1      -5.888   9.356  68.243  1.00  0.00    -0.041 OA 
BRANCH  12  16
ATOM     16  CB  GLU A   1      -8.737  10.252  69.295  1.00  0.00    -0.182 C  
BRANCH  16  17
ATOM     17  CG  GLU A   1      -9.885  11.202  68.956  1.00  0.00    -0.132 C  
ATOM     18  CD  GLU A   1     -10.913  10.554  68.064  1.00  0.00    -0.290 C  
ATOM     19  OE2 GLU A   1     -10.672   9.670  67.262  1.00  0.00    -0.263 OA 
ATOM     20  OE1 GLU A   1     -12.147  11.086  68.218  1.00  0.00    -0.604 OA 
ENDBRANCH  16  17
ENDBRANCH  12  16
ENDBRANCH  10  12
ENDBRANCH   7   8
ENDBRANCH   2   3
BRANCH   2  21
HETATM   21  C   UNK A   0      -8.943  17.736  66.651  1.00  0.00    -0.266 C  
BRANCH  21  22
HETATM   22  C   UNK A   0      -9.826  16.762  65.901  1.00  0.00    -0.276 A  
HETATM   23  C   UNK A   0     -10.410  14.489  65.271  1.00  0.00    -0.435 A  
HETATM   24  C   UNK A   0     -11.499  14.949  64.530  1.00  0.00    -0.325 A  
HETATM   25  C   UNK A   0      -9.576  15.382  65.950  1.00  0.00    -0.386 A  
HETATM   26  H   UNK A   0     -10.946  11.161  64.741  1.00  0.00     0.000 HD 
HETATM   27  C   UNK A   0     -11.736  16.321  64.453  1.00  0.00     0.039 A  
HETATM   28  C   UNK A   0     -13.010  11.718  63.360  1.00  0.00    -0.177 C  
HETATM   29  N   UNK A   0     -12.300  14.022  63.863  1.00  0.00    -0.861 NA 
HETATM   30  N   UNK A   0     -11.064  12.172  64.683  1.00  0.00    -0.306 N  
HETATM   31  C   UNK A   0     -10.910  17.218  65.140  1.00  0.00     0.051 A  
HETATM   32  C   UNK A   0     -10.177  13.021  65.314  1.00  0.00    -0.279 C  
HETATM   33  O   UNK A   0      -9.190  12.612  65.918  1.00  0.00    -0.085 OA 
HETATM   34  C   UNK A   0     -12.052  12.683  64.017  1.00  0.00    -0.462 C  
ENDBRANCH  21  22
ENDBRANCH   2  21
TORSDOF 7
ENDMDL
MODEL      135
REMARK 921   NORMALIZED FREE ENERGY PREDICTED BY IDOCK:   -5.58 KCAL/MOL
REMARK 922        TOTAL FREE ENERGY PREDICTED BY IDOCK:   -8.99 KCAL/MOL
REMARK 923 INTER-LIGAND FREE ENERGY PREDICTED BY IDOCK:   -8.04 KCAL/MOL
REMARK 924 INTRA-LIGAND FREE ENERGY PREDICTED BY IDOCK:   -0.95 KCAL/MOL
REMARK 927      BINDING AFFINITY PREDICTED BY RF-SCORE:    0.00 PKD
ROOT
HETATM    1  C   UNK A   0      -9.615  10.832  69.105  1.00  0.00    -0.151 C  
HETATM    2  N   UNK A   0     -10.967  10.846  69.656  1.00  0.00    -0.323 NA 
ENDROOT
BRANCH   2   3
HETATM    3  C   UNK A   0     -11.386   9.761  70.380  1.00  0.00    -0.297 A  
HETATM    4  C   UNK A   0     -12.307   8.413  72.059  1.00  0.00    -0.413 A  
HETATM    5  C   UNK A   0     -12.298   9.693  71.418  1.00  0.00    -0.468 A  
HETATM    6  S   UNK A   0     -10.782   8.193  70.035  1.00  0.00    -0.230 SA 
HETATM    7  C   UNK A   0     -11.446   7.521  71.452  1.00  0.00    -0.265 A  
BRANCH   7   8
HETATM    8  C   UNK A   0     -11.059   6.194  71.896  1.00  0.00    -0.274 C  
HETATM    9  O   UNK A   0     -11.801   5.448  72.527  1.00  0.00    -0.207 OA 
ATOM     10  N   GLU A   1      -9.753   5.833  71.598  1.00  0.00    -0.160 N  
ATOM     11  H   GLU A   1      -9.154   6.493  71.102  1.00  0.00     0.000 HD 
BRANCH  10  12
ATOM     12  CA  GLU A   1      -9.216   4.523  71.978  1.00  0.00    -0.132 C  
ATOM     13  C   GLU A   1      -8.368   4.660  73.257  1.00  0.00    -0.103 C  
ATOM     14  O   GLU A   1      -7.852   5.900  73.442  1.00  0.00    -0.101 OA 
ATOM     15  OXT GLU A   1      -8.055   3.717  73.971  1.00  0.00    -0.077 OA 
BRANCH  12  16
ATOM     16  CB  GLU A   1      -8.366   3.968  70.830  1.00  0.00    -0.088 C  
BRANCH  16  17
ATOM     17  CG  GLU A   1      -8.488   4.798  69.552  1.00  0.00    -0.092 C  
ATOM     18  CD  GLU A   1      -9.404   4.156  68.543  1.00  0.00    -0.156 C  
ATOM     19  OE2 GLU A   1      -9.585   2.956  68.441  1.00  0.00    -0.179 OA 
ATOM     20  OE1 GLU A   1      -9.988   5.057  67.721  1.00  0.00    -0.160 OA 
ENDBRANCH  16  17
ENDBRANCH  12  16
ENDBRANCH  10  12
ENDBRANCH   7   8
ENDBRANCH   2   3
BRANCH   2  21
HETATM   21  C   UNK A   0     -11.989  11.495  68.811  1.00  0.00    -0.271 C  
BRANCH  21  22
HETATM   22  C   UNK A   0     -11.601  12.917  68.470  1.00  0.00    -0.358 A  
HETATM   23  C   UNK A   0     -11.159  15.210  69.146  1.00  0.00    -0.263 A  
HETATM   24  C   UNK A   0     -10.841  15.560  67.833  1.00  0.00    -0.307 A  
HETATM   25  C   UNK A   0     -11.538  13.903  69.467  1.00  0.00    -0.358 A  
HETATM   26  H   UNK A   0     -10.520  18.258  70.538  1.00  0.00     0.000 HD 
HETATM   27  C   UNK A   0     -10.929  14.593  66.833  1.00  0.00    -0.324 A  
HETATM   28  C   UNK A   0      -9.851  19.157  68.252  1.00  0.00    -0.462 C  
HETATM   29  N   UNK A   0     -10.474  16.877  67.559  1.00  0.00    -0.326 NA 
HETATM   30  N   UNK A   0     -10.629  17.531  69.832  1.00  0.00    -0.066 N  
HETATM   31  C   UNK A   0     -11.299  13.281  67.151  1.00  0.00    -0.351 A  
HETATM   32  C   UNK A   0     -11.072  16.271  70.183  1.00  0.00    -0.341 C  
HETATM   33  O   UNK A   0     -11.403  15.985  71.330  1.00  0.00    -0.389 OA 
HETATM   34  C   UNK A   0     -10.353  17.772  68.589  1.00  0.00    -0.350 C  
ENDBRANCH  21  22
ENDBRANCH   2  21
TORSDOF 7
ENDMDL
MODEL      136
REMARK 921   NORMALIZED FREE ENERGY PREDICTED BY IDOCK:   -5.58 KCAL/MOL
REMARK 922        TOTAL FREE ENERGY PREDICTED BY IDOCK:   -8.99 KCAL/MOL
REMARK 923 INTER-LIGAND FREE ENERGY PREDICTED BY IDOCK:   -7.56 KCAL/MOL
REMARK 924 INTRA-LIGAND FREE ENERGY PREDICTED BY IDOCK:   -1.43 KCAL/MOL
REMARK 927      BINDING AFFINITY PREDICTED BY RF-SCORE:    0.00 PKD
ROOT
HETATM    1  C   UNK A   0     -13.900  14.847  70.625  1.00  0.00     0.156 C  
HETATM    2  N   UNK A   0     -12.577  14.836  70.008  1.00  0.00    -0.538 NA 
ENDROOT
BRANCH   2   3
HETATM    3  C   UNK A   0     -12.159  13.689  69.385  1.00  0.00    -0.314 A  
HETATM    4  C   UNK A   0     -11.288  11.553  68.981  1.00  0.00    -0.339 A  
HETATM    5  C   UNK A   0     -11.920  12.435  69.915  1.00  0.00    -0.369 A  
HETATM    6  S   UNK A   0     -11.873  13.668  67.693  1.00  0.00    -0.359 SA 
HETATM    7  C   UNK A   0     -11.119  12.141  67.744  1.00  0.00    -0.250 A  
BRANCH   7   8
HETATM    8  C   UNK A   0     -10.387  11.637  66.596  1.00  0.00    -0.222 C  
HETATM    9  O   UNK A   0     -10.671  11.916  65.436  1.00  0.00    -0.267 OA 
ATOM     10  N   GLU A   1      -9.353  10.762  66.897  1.00  0.00    -0.159 N  
ATOM     11  H   GLU A   1      -9.168  10.525  67.872  1.00  0.00     0.000 HD 
BRANCH  10  12
ATOM     12  CA  GLU A   1      -8.521  10.171  65.846  1.00  0.00    -0.141 C  
ATOM     13  C   GLU A   1      -8.660   8.637  65.872  1.00  0.00    -0.157 C  
ATOM     14  O   GLU A   1      -9.017   8.141  67.082  1.00  0.00    -0.134 OA 
ATOM     15  OXT GLU A   1      -8.339   7.907  64.944  1.00  0.00    -0.142 OA 
BRANCH  12  16
ATOM     16  CB  GLU A   1      -7.060  10.580  66.063  1.00  0.00    -0.137 C  
BRANCH  16  17
ATOM     17  CG  GLU A   1      -6.734  10.846  67.532  1.00  0.00    -0.074 C  
ATOM     18  CD  GLU A   1      -6.112  12.202  67.739  1.00  0.00    -0.090 C  
ATOM     19  OE2 GLU A   1      -5.438  12.786  66.910  1.00  0.00    -0.314 OA 
ATOM     20  OE1 GLU A   1      -6.349  12.702  68.973  1.00  0.00    -0.080 OA 
ENDBRANCH  16  17
ENDBRANCH  12  16
ENDBRANCH  10  12
ENDBRANCH   7   8
ENDBRANCH   2   3
BRANCH   2  21
HETATM   21  C   UNK A   0     -11.537  15.599  70.726  1.00  0.00    -0.382 C  
BRANCH  21  22
HETATM   22  C   UNK A   0     -10.468  16.101  69.780  1.00  0.00    -0.286 A  
HETATM   23  C   UNK A   0      -9.723  17.648  68.060  1.00  0.00    -0.301 A  
HETATM   24  C   UNK A   0      -8.459  17.058  68.043  1.00  0.00    -0.216 A  
HETATM   25  C   UNK A   0     -10.723  17.178  68.916  1.00  0.00    -0.257 A  
HETATM   26  H   UNK A   0      -9.056  20.080  65.762  1.00  0.00     0.000 HD 
HETATM   27  C   UNK A   0      -8.207  15.970  68.878  1.00  0.00    -0.223 A  
HETATM   28  C   UNK A   0      -6.668  19.225  65.555  1.00  0.00    -0.305 C  
HETATM   29  N   UNK A   0      -7.494  17.557  67.168  1.00  0.00    -0.186 NA 
HETATM   30  N   UNK A   0      -8.924  19.267  66.363  1.00  0.00    -0.344 N  
HETATM   31  C   UNK A   0      -9.202  15.502  69.744  1.00  0.00    -0.101 A  
HETATM   32  C   UNK A   0      -9.961  18.794  67.143  1.00  0.00    -0.336 C  
HETATM   33  O   UNK A   0     -11.086  19.284  67.111  1.00  0.00    -0.425 OA 
HETATM   34  C   UNK A   0      -7.780  18.661  66.409  1.00  0.00    -0.268 C  
ENDBRANCH  21  22
ENDBRANCH   2  21
TORSDOF 7
ENDMDL
MODEL      137
REMARK 921   NORMALIZED FREE ENERGY PREDICTED BY IDOCK:   -5.57 KCAL/MOL
REMARK 922        TOTAL FREE ENERGY PREDICTED BY IDOCK:   -8.97 KCAL/MOL
REMARK 923 INTER-LIGAND FREE ENERGY PREDICTED BY IDOCK:   -7.85 KCAL/MOL
REMARK 924 INTRA-LIGAND FREE ENERGY PREDICTED BY IDOCK:   -1.12 KCAL/MOL
REMARK 927      BINDING AFFINITY PREDICTED BY RF-SCORE:    0.00 PKD
ROOT
HETATM    1  C   UNK A   0     -11.108  14.440  65.433  1.00  0.00    -0.331 C  
HETATM    2  N   UNK A   0     -11.476  13.108  65.904  1.00  0.00    -0.322 NA 
ENDROOT
BRANCH   2   3
HETATM    3  C   UNK A   0     -10.767  12.566  66.944  1.00  0.00    -0.243 A  
HETATM    4  C   UNK A   0      -9.016  11.888  68.343  1.00  0.00    -0.163 A  
HETATM    5  C   UNK A   0      -9.464  12.807  67.342  1.00  0.00    -0.190 A  
HETATM    6  S   UNK A   0     -11.493  11.423  67.997  1.00  0.00    -0.298 SA 
HETATM    7  C   UNK A   0     -10.010  11.010  68.725  1.00  0.00    -0.207 A  
BRANCH   7   8
HETATM    8  C   UNK A   0      -9.905   9.844  69.586  1.00  0.00    -0.232 C  
HETATM    9  O   UNK A   0      -9.116   9.762  70.521  1.00  0.00    -0.194 OA 
ATOM     10  N   GLU A   1     -10.738   8.788  69.247  1.00  0.00    -0.356 N  
ATOM     11  H   GLU A   1     -11.356   8.879  68.440  1.00  0.00     0.000 HD 
BRANCH  10  12
ATOM     12  CA  GLU A   1     -10.749   7.544  70.021  1.00  0.00    -0.240 C  
ATOM     13  C   GLU A   1     -10.796   6.336  69.067  1.00  0.00    -0.337 C  
ATOM     14  O   GLU A   1     -11.345   6.614  67.859  1.00  0.00    -0.202 OA 
ATOM     15  OXT GLU A   1     -10.509   5.194  69.398  1.00  0.00    -0.230 OA 
BRANCH  12  16
ATOM     16  CB  GLU A   1     -11.965   7.536  70.955  1.00  0.00    -0.278 C  
BRANCH  16  17
ATOM     17  CG  GLU A   1     -11.583   7.734  72.422  1.00  0.00    -0.410 C  
ATOM     18  CD  GLU A   1     -11.098   6.457  73.059  1.00  0.00    -0.200 C  
ATOM     19  OE2 GLU A   1     -11.454   5.341  72.726  1.00  0.00    -0.290 OA 
ATOM     20  OE1 GLU A   1     -10.239   6.677  74.080  1.00  0.00    -0.312 OA 
ENDBRANCH  16  17
ENDBRANCH  12  16
ENDBRANCH  10  12
ENDBRANCH   7   8
ENDBRANCH   2   3
BRANCH   2  21
HETATM   21  C   UNK A   0     -11.912  12.164  64.856  1.00  0.00    -0.290 C  
BRANCH  21  22
HETATM   22  C   UNK A   0     -10.750  11.352  64.326  1.00  0.00    -0.420 A  
HETATM   23  C   UNK A   0      -9.194   9.497  64.537  1.00  0.00    -0.223 A  
HETATM   24  C   UNK A   0      -8.607   9.820  63.314  1.00  0.00    -0.200 A  
HETATM   25  C   UNK A   0     -10.255  10.254  65.045  1.00  0.00    -0.277 A  
HETATM   26  H   UNK A   0      -7.304   6.728  65.169  1.00  0.00     0.000 HD 
HETATM   27  C   UNK A   0      -9.075  10.927  62.607  1.00  0.00    -0.364 A  
HETATM   28  C   UNK A   0      -6.082   7.064  62.961  1.00  0.00    -0.044 C  
HETATM   29  N   UNK A   0      -7.547   9.040  62.850  1.00  0.00    -0.105 NA 
HETATM   30  N   UNK A   0      -7.653   7.564  64.701  1.00  0.00    -0.103 N  
HETATM   31  C   UNK A   0     -10.143  11.681  63.107  1.00  0.00    -0.409 A  
HETATM   32  C   UNK A   0      -8.657   8.322  65.272  1.00  0.00    -0.132 C  
HETATM   33  O   UNK A   0      -9.131   8.064  66.374  1.00  0.00    -0.164 OA 
HETATM   34  C   UNK A   0      -7.164   7.933  63.559  1.00  0.00    -0.086 C  
ENDBRANCH  21  22
ENDBRANCH   2  21
TORSDOF 7
ENDMDL
MODEL      138
REMARK 921   NORMALIZED FREE ENERGY PREDICTED BY IDOCK:   -5.56 KCAL/MOL
REMARK 922        TOTAL FREE ENERGY PREDICTED BY IDOCK:   -8.96 KCAL/MOL
REMARK 923 INTER-LIGAND FREE ENERGY PREDICTED BY IDOCK:   -8.14 KCAL/MOL
REMARK 924 INTRA-LIGAND FREE ENERGY PREDICTED BY IDOCK:   -0.83 KCAL/MOL
REMARK 927      BINDING AFFINITY PREDICTED BY RF-SCORE:    0.00 PKD
ROOT
HETATM    1  C   UNK A   0     -14.280   7.583  71.234  1.00  0.00    -0.293 C  
HETATM    2  N   UNK A   0     -13.108   8.413  71.495  1.00  0.00    -0.412 NA 
ENDROOT
BRANCH   2   3
HETATM    3  C   UNK A   0     -11.915   7.791  71.756  1.00  0.00    -0.296 A  
HETATM    4  C   UNK A   0      -9.750   7.340  72.526  1.00  0.00    -0.189 A  
HETATM    5  C   UNK A   0     -10.957   8.087  72.709  1.00  0.00    -0.449 A  
HETATM    6  S   UNK A   0     -11.428   6.418  70.850  1.00  0.00    -0.323 SA 
HETATM    7  C   UNK A   0      -9.843   6.450  71.475  1.00  0.00    -0.168 A  
BRANCH   7   8
HETATM    8  C   UNK A   0      -8.796   5.638  70.881  1.00  0.00    -0.140 C  
HETATM    9  O   UNK A   0      -7.682   6.070  70.601  1.00  0.00    -0.096 OA 
ATOM     10  N   GLU A   1      -9.156   4.328  70.600  1.00  0.00    -0.104 N  
ATOM     11  H   GLU A   1     -10.102   4.014  70.814  1.00  0.00     0.000 HD 
BRANCH  10  12
ATOM     12  CA  GLU A   1      -8.206   3.386  70.001  1.00  0.00    -0.048 C  
ATOM     13  C   GLU A   1      -8.457   3.288  68.485  1.00  0.00    -0.083 C  
ATOM     14  O   GLU A   1      -9.725   3.598  68.118  1.00  0.00    -0.137 OA 
ATOM     15  OXT GLU A   1      -7.647   2.832  67.688  1.00  0.00    -0.057 OA 
BRANCH  12  16
ATOM     16  CB  GLU A   1      -8.368   2.012  70.661  1.00  0.00    -0.075 C  
BRANCH  16  17
ATOM     17  CG  GLU A   1      -9.719   1.848  71.357  1.00  0.00    -0.213 C  
ATOM     18  CD  GLU A   1      -9.740   2.502  72.715  1.00  0.00    -0.118 C  
ATOM     19  OE2 GLU A   1      -8.764   2.641  73.429  1.00  0.00    -0.076 OA 
ATOM     20  OE1 GLU A   1     -10.980   2.894  73.086  1.00  0.00    -0.160 OA 
ENDBRANCH  16  17
ENDBRANCH  12  16
ENDBRANCH  10  12
ENDBRANCH   7   8
ENDBRANCH   2   3
BRANCH   2  21
HETATM   21  C   UNK A   0     -13.367   9.658  72.245  1.00  0.00    -0.408 C  
BRANCH  21  22
HETATM   22  C   UNK A   0     -12.956  10.878  71.449  1.00  0.00    -0.527 A  
HETATM   23  C   UNK A   0     -12.102  11.883  69.408  1.00  0.00    -0.277 A  
HETATM   24  C   UNK A   0     -12.227  13.159  69.957  1.00  0.00    -0.253 A  
HETATM   25  C   UNK A   0     -12.460  10.749  70.143  1.00  0.00    -0.357 A  
HETATM   26  H   UNK A   0     -10.994  12.875  66.338  1.00  0.00     0.000 HD 
HETATM   27  C   UNK A   0     -12.693  13.294  71.264  1.00  0.00    -0.411 A  
HETATM   28  C   UNK A   0     -11.157  15.308  67.069  1.00  0.00    -0.305 C  
HETATM   29  N   UNK A   0     -11.853  14.262  69.188  1.00  0.00    -0.312 NA 
HETATM   30  N   UNK A   0     -11.307  12.928  67.307  1.00  0.00    -0.292 N  
HETATM   31  C   UNK A   0     -13.062  12.162  72.000  1.00  0.00    -0.462 A  
HETATM   32  C   UNK A   0     -11.584  11.777  68.019  1.00  0.00    -0.316 C  
HETATM   33  O   UNK A   0     -11.419  10.655  67.548  1.00  0.00    -0.460 OA 
HETATM   34  C   UNK A   0     -11.452  14.074  67.892  1.00  0.00    -0.316 C  
ENDBRANCH  21  22
ENDBRANCH   2  21
TORSDOF 7
ENDMDL
MODEL      139
REMARK 921   NORMALIZED FREE ENERGY PREDICTED BY IDOCK:   -5.55 KCAL/MOL
REMARK 922        TOTAL FREE ENERGY PREDICTED BY IDOCK:   -8.96 KCAL/MOL
REMARK 923 INTER-LIGAND FREE ENERGY PREDICTED BY IDOCK:   -7.93 KCAL/MOL
REMARK 924 INTRA-LIGAND FREE ENERGY PREDICTED BY IDOCK:   -1.02 KCAL/MOL
REMARK 927      BINDING AFFINITY PREDICTED BY RF-SCORE:    0.00 PKD
ROOT
HETATM    1  C   UNK A   0     -14.024   8.187  71.390  1.00  0.00    -0.279 C  
HETATM    2  N   UNK A   0     -12.827   9.022  71.423  1.00  0.00    -0.392 NA 
ENDROOT
BRANCH   2   3
HETATM    3  C   UNK A   0     -11.620   8.420  71.670  1.00  0.00    -0.289 A  
HETATM    4  C   UNK A   0      -9.323   8.026  71.897  1.00  0.00    -0.225 A  
HETATM    5  C   UNK A   0     -10.380   8.991  71.889  1.00  0.00    -0.357 A  
HETATM    6  S   UNK A   0     -11.498   6.712  71.768  1.00  0.00    -0.307 SA 
HETATM    7  C   UNK A   0      -9.795   6.737  71.745  1.00  0.00    -0.163 A  
BRANCH   7   8
HETATM    8  C   UNK A   0      -9.038   5.514  71.546  1.00  0.00    -0.139 C  
HETATM    9  O   UNK A   0      -8.869   4.673  72.422  1.00  0.00    -0.117 OA 
ATOM     10  N   GLU A   1      -8.463   5.378  70.291  1.00  0.00    -0.117 N  
ATOM     11  H   GLU A   1      -8.596   6.115  69.598  1.00  0.00     0.000 HD 
BRANCH  10  12
ATOM     12  CA  GLU A   1      -7.670   4.197  69.937  1.00  0.00    -0.052 C  
ATOM     13  C   GLU A   1      -6.200   4.601  69.726  1.00  0.00    -0.026 C  
ATOM     14  O   GLU A   1      -6.034   5.899  69.371  1.00  0.00    -0.024 OA 
ATOM     15  OXT GLU A   1      -5.268   3.808  69.727  1.00  0.00    -0.007 OA 
BRANCH  12  16
ATOM     16  CB  GLU A   1      -8.240   3.564  68.662  1.00  0.00    -0.081 C  
BRANCH  16  17
ATOM     17  CG  GLU A   1      -9.608   4.132  68.283  1.00  0.00    -0.191 C  
ATOM     18  CD  GLU A   1      -9.510   5.164  67.189  1.00  0.00    -0.131 C  
ATOM     19  OE2 GLU A   1      -8.543   5.879  66.999  1.00  0.00    -0.111 OA 
ATOM     20  OE1 GLU A   1     -10.638   5.245  66.446  1.00  0.00    -0.287 OA 
ENDBRANCH  16  17
ENDBRANCH  12  16
ENDBRANCH  10  12
ENDBRANCH   7   8
ENDBRANCH   2   3
BRANCH   2  21
HETATM   21  C   UNK A   0     -13.009  10.368  71.999  1.00  0.00    -0.396 C  
BRANCH  21  22
HETATM   22  C   UNK A   0     -12.647  11.448  71.003  1.00  0.00    -0.487 A  
HETATM   23  C   UNK A   0     -11.910  12.122  68.787  1.00  0.00    -0.356 A  
HETATM   24  C   UNK A   0     -12.007  13.468  69.138  1.00  0.00    -0.333 A  
HETATM   25  C   UNK A   0     -12.223  11.117  69.707  1.00  0.00    -0.369 A  
HETATM   26  H   UNK A   0     -10.976  12.622  65.544  1.00  0.00     0.000 HD 
HETATM   27  C   UNK A   0     -12.401  13.805  70.432  1.00  0.00    -0.423 A  
HETATM   28  C   UNK A   0     -11.105  15.139  65.899  1.00  0.00    -0.319 C  
HETATM   29  N   UNK A   0     -11.679  14.436  68.189  1.00  0.00    -0.330 NA 
HETATM   30  N   UNK A   0     -11.235  12.825  66.509  1.00  0.00    -0.293 N  
HETATM   31  C   UNK A   0     -12.725  12.803  71.353  1.00  0.00    -0.353 A  
HETATM   32  C   UNK A   0     -11.469  11.800  67.404  1.00  0.00    -0.305 C  
HETATM   33  O   UNK A   0     -11.328  10.618  67.104  1.00  0.00    -0.344 OA 
HETATM   34  C   UNK A   0     -11.350  14.049  66.917  1.00  0.00    -0.329 C  
ENDBRANCH  21  22
ENDBRANCH   2  21
TORSDOF 7
ENDMDL
MODEL      140
REMARK 921   NORMALIZED FREE ENERGY PREDICTED BY IDOCK:   -5.54 KCAL/MOL
REMARK 922        TOTAL FREE ENERGY PREDICTED BY IDOCK:   -8.94 KCAL/MOL
REMARK 923 INTER-LIGAND FREE ENERGY PREDICTED BY IDOCK:   -8.00 KCAL/MOL
REMARK 924 INTRA-LIGAND FREE ENERGY PREDICTED BY IDOCK:   -0.93 KCAL/MOL
REMARK 927      BINDING AFFINITY PREDICTED BY RF-SCORE:    0.00 PKD
ROOT
HETATM    1  C   UNK A   0     -10.343   8.976  71.883  1.00  0.00    -0.287 C  
HETATM    2  N   UNK A   0      -9.249   8.976  70.917  1.00  0.00    -0.238 NA 
ENDROOT
BRANCH   2   3
HETATM    3  C   UNK A   0      -9.332   9.818  69.839  1.00  0.00    -0.231 A  
HETATM    4  C   UNK A   0      -8.787  11.319  68.126  1.00  0.00    -0.159 A  
HETATM    5  C   UNK A   0      -8.331  10.288  69.008  1.00  0.00    -0.148 A  
HETATM    6  S   UNK A   0     -10.848  10.436  69.327  1.00  0.00    -0.258 SA 
HETATM    7  C   UNK A   0     -10.138  11.563  68.266  1.00  0.00    -0.199 A  
BRANCH   7   8
HETATM    8  C   UNK A   0     -10.931  12.626  67.673  1.00  0.00    -0.241 C  
HETATM    9  O   UNK A   0     -11.992  12.433  67.089  1.00  0.00    -0.528 OA 
ATOM     10  N   GLU A   1     -10.377  13.894  67.768  1.00  0.00    -0.237 N  
ATOM     11  H   GLU A   1      -9.475  14.012  68.230  1.00  0.00     0.000 HD 
BRANCH  10  12
ATOM     12  CA  GLU A   1     -11.060  15.069  67.219  1.00  0.00    -0.334 C  
ATOM     13  C   GLU A   1     -10.143  15.778  66.205  1.00  0.00    -0.318 C  
ATOM     14  O   GLU A   1      -8.821  15.558  66.415  1.00  0.00    -0.289 OA 
ATOM     15  OXT GLU A   1     -10.539  16.586  65.376  1.00  0.00    -0.509 OA 
BRANCH  12  16
ATOM     16  CB  GLU A   1     -11.432  16.022  68.361  1.00  0.00    -0.331 C  
BRANCH  16  17
ATOM     17  CG  GLU A   1     -12.490  15.435  69.296  1.00  0.00    -0.004 C  
ATOM     18  CD  GLU A   1     -12.124  15.610  70.747  1.00  0.00    -0.412 C  
ATOM     19  OE2 GLU A   1     -10.983  15.665  71.169  1.00  0.00    -0.326 OA 
ATOM     20  OE1 GLU A   1     -13.207  15.664  71.555  1.00  0.00    -0.483 OA 
ENDBRANCH  16  17
ENDBRANCH  12  16
ENDBRANCH  10  12
ENDBRANCH   7   8
ENDBRANCH   2   3
BRANCH   2  21
HETATM   21  C   UNK A   0      -8.625   7.662  70.665  1.00  0.00    -0.135 C  
BRANCH  21  22
HETATM   22  C   UNK A   0      -9.258   6.969  69.478  1.00  0.00    -0.149 A  
HETATM   23  C   UNK A   0      -9.087   6.000  67.255  1.00  0.00    -0.111 A  
HETATM   24  C   UNK A   0     -10.435   5.644  67.281  1.00  0.00    -0.258 A  
HETATM   25  C   UNK A   0      -8.498   6.659  68.339  1.00  0.00    -0.125 A  
HETATM   26  H   UNK A   0      -8.377   4.651  64.203  1.00  0.00     0.000 HD 
HETATM   27  C   UNK A   0     -11.203   5.974  68.397  1.00  0.00    -0.120 A  
HETATM   28  C   UNK A   0     -10.785   3.851  64.001  1.00  0.00    -0.226 C  
HETATM   29  N   UNK A   0     -10.981   4.993  66.175  1.00  0.00    -0.682 NA 
HETATM   30  N   UNK A   0      -8.910   4.939  65.023  1.00  0.00    -0.152 N  
HETATM   31  C   UNK A   0     -10.616   6.624  69.489  1.00  0.00    -0.281 A  
HETATM   32  C   UNK A   0      -8.304   5.649  66.041  1.00  0.00    -0.124 C  
HETATM   33  O   UNK A   0      -7.132   6.008  65.987  1.00  0.00    -0.070 OA 
HETATM   34  C   UNK A   0     -10.168   4.647  65.128  1.00  0.00    -0.039 C  
ENDBRANCH  21  22
ENDBRANCH   2  21
TORSDOF 7
ENDMDL
MODEL      141
REMARK 921   NORMALIZED FREE ENERGY PREDICTED BY IDOCK:   -5.54 KCAL/MOL
REMARK 922        TOTAL FREE ENERGY PREDICTED BY IDOCK:   -8.93 KCAL/MOL
REMARK 923 INTER-LIGAND FREE ENERGY PREDICTED BY IDOCK:   -8.14 KCAL/MOL
REMARK 924 INTRA-LIGAND FREE ENERGY PREDICTED BY IDOCK:   -0.79 KCAL/MOL
REMARK 927      BINDING AFFINITY PREDICTED BY RF-SCORE:    0.00 PKD
ROOT
HETATM    1  C   UNK A   0      -8.071   8.770  63.750  1.00  0.00    -0.165 C  
HETATM    2  N   UNK A   0      -8.450   8.819  65.159  1.00  0.00    -0.166 NA 
ENDROOT
BRANCH   2   3
HETATM    3  C   UNK A   0      -8.542  10.045  65.766  1.00  0.00    -0.145 A  
HETATM    4  C   UNK A   0      -8.254  11.832  67.252  1.00  0.00    -0.163 A  
HETATM    5  C   UNK A   0      -7.705  10.632  66.697  1.00  0.00    -0.132 A  
HETATM    6  S   UNK A   0      -9.828  11.115  65.386  1.00  0.00    -0.256 SA 
HETATM    7  C   UNK A   0      -9.467  12.160  66.682  1.00  0.00    -0.223 A  
BRANCH   7   8
HETATM    8  C   UNK A   0     -10.401  13.199  67.078  1.00  0.00    -0.249 C  
HETATM    9  O   UNK A   0     -10.998  13.913  66.280  1.00  0.00    -0.295 OA 
ATOM     10  N   GLU A   1     -10.541  13.371  68.448  1.00  0.00    -0.243 N  
ATOM     11  H   GLU A   1     -10.001  12.782  69.082  1.00  0.00     0.000 HD 
BRANCH  10  12
ATOM     12  CA  GLU A   1     -11.448  14.380  69.003  1.00  0.00    -0.283 C  
ATOM     13  C   GLU A   1     -10.650  15.635  69.400  1.00  0.00    -0.253 C  
ATOM     14  O   GLU A   1      -9.346  15.390  69.678  1.00  0.00    -0.267 OA 
ATOM     15  OXT GLU A   1     -11.157  16.731  69.598  1.00  0.00    -0.237 OA 
BRANCH  12  16
ATOM     16  CB  GLU A   1     -12.171  13.797  70.223  1.00  0.00    -0.429 C  
BRANCH  16  17
ATOM     17  CG  GLU A   1     -13.234  14.741  70.784  1.00  0.00    -0.355 C  
ATOM     18  CD  GLU A   1     -13.691  14.329  72.160  1.00  0.00    -0.474 C  
ATOM     19  OE2 GLU A   1     -13.699  13.182  72.569  1.00  0.00    -0.610 OA 
ATOM     20  OE1 GLU A   1     -14.133  15.373  72.897  1.00  0.00    -0.416 OA 
ENDBRANCH  16  17
ENDBRANCH  12  16
ENDBRANCH  10  12
ENDBRANCH   7   8
ENDBRANCH   2   3
BRANCH   2  21
HETATM   21  C   UNK A   0      -7.927   7.721  65.994  1.00  0.00    -0.108 C  
BRANCH  21  22
HETATM   22  C   UNK A   0      -8.927   7.309  67.054  1.00  0.00    -0.140 A  
HETATM   23  C   UNK A   0      -9.864   7.545  69.284  1.00  0.00    -0.170 A  
HETATM   24  C   UNK A   0     -10.818   6.564  69.012  1.00  0.00    -0.306 A  
HETATM   25  C   UNK A   0      -8.923   7.917  68.319  1.00  0.00    -0.132 A  
HETATM   26  H   UNK A   0     -10.941   8.286  72.435  1.00  0.00     0.000 HD 
HETATM   27  C   UNK A   0     -10.810   5.936  67.767  1.00  0.00    -0.326 A  
HETATM   28  C   UNK A   0     -12.806   6.570  72.197  1.00  0.00    -0.038 C  
HETATM   29  N   UNK A   0     -11.733   6.221  70.007  1.00  0.00    -0.401 NA 
HETATM   30  N   UNK A   0     -10.879   7.828  71.526  1.00  0.00    -0.226 N  
HETATM   31  C   UNK A   0      -9.876   6.312  66.795  1.00  0.00    -0.208 A  
HETATM   32  C   UNK A   0      -9.891   8.179  70.628  1.00  0.00    -0.181 C  
HETATM   33  O   UNK A   0      -9.021   9.004  70.894  1.00  0.00    -0.205 OA 
HETATM   34  C   UNK A   0     -11.728   6.908  71.192  1.00  0.00    -0.336 C  
ENDBRANCH  21  22
ENDBRANCH   2  21
TORSDOF 7
ENDMDL
MODEL      142
REMARK 921   NORMALIZED FREE ENERGY PREDICTED BY IDOCK:   -5.53 KCAL/MOL
REMARK 922        TOTAL FREE ENERGY PREDICTED BY IDOCK:   -8.92 KCAL/MOL
REMARK 923 INTER-LIGAND FREE ENERGY PREDICTED BY IDOCK:   -8.07 KCAL/MOL
REMARK 924 INTRA-LIGAND FREE ENERGY PREDICTED BY IDOCK:   -0.84 KCAL/MOL
REMARK 927      BINDING AFFINITY PREDICTED BY RF-SCORE:    0.00 PKD
ROOT
HETATM    1  C   UNK A   0     -10.451   8.031  67.002  1.00  0.00    -0.340 C  
HETATM    2  N   UNK A   0     -10.434   9.245  67.812  1.00  0.00    -0.247 NA 
ENDROOT
BRANCH   2   3
HETATM    3  C   UNK A   0     -10.776  10.430  67.215  1.00  0.00    -0.273 A  
HETATM    4  C   UNK A   0     -10.983  12.178  65.670  1.00  0.00    -0.337 A  
HETATM    5  C   UNK A   0     -10.762  10.779  65.877  1.00  0.00    -0.143 A  
HETATM    6  S   UNK A   0     -11.339  11.751  68.153  1.00  0.00    -0.311 SA 
HETATM    7  C   UNK A   0     -11.221  12.847  66.854  1.00  0.00    -0.291 A  
BRANCH   7   8
HETATM    8  C   UNK A   0     -11.331  14.278  67.078  1.00  0.00    -0.341 C  
HETATM    9  O   UNK A   0     -12.107  14.779  67.884  1.00  0.00    -0.288 OA 
ATOM     10  N   GLU A   1     -10.520  15.062  66.270  1.00  0.00    -0.294 N  
ATOM     11  H   GLU A   1      -9.912  14.611  65.586  1.00  0.00     0.000 HD 
BRANCH  10  12
ATOM     12  CA  GLU A   1     -10.517  16.523  66.379  1.00  0.00    -0.274 C  
ATOM     13  C   GLU A   1     -11.011  17.145  65.060  1.00  0.00     0.103 C  
ATOM     14  O   GLU A   1     -10.822  16.352  63.976  1.00  0.00    -0.372 OA 
ATOM     15  OXT GLU A   1     -11.403  18.300  64.954  1.00  0.00    -0.232 OA 
BRANCH  12  16
ATOM     16  CB  GLU A   1      -9.098  17.007  66.700  1.00  0.00    -0.278 C  
BRANCH  16  17
ATOM     17  CG  GLU A   1      -9.047  17.904  67.937  1.00  0.00    -0.260 C  
ATOM     18  CD  GLU A   1      -9.356  19.342  67.607  1.00  0.00    -0.309 C  
ATOM     19  OE2 GLU A   1      -9.128  19.868  66.533  1.00  0.00    -0.350 OA 
ATOM     20  OE1 GLU A   1      -9.888  20.014  68.653  1.00  0.00    -0.349 OA 
ENDBRANCH  16  17
ENDBRANCH  12  16
ENDBRANCH  10  12
ENDBRANCH   7   8
ENDBRANCH   2   3
BRANCH   2  21
HETATM   21  C   UNK A   0      -9.364   9.315  68.827  1.00  0.00    -0.139 C  
BRANCH  21  22
HETATM   22  C   UNK A   0      -9.433   8.143  69.783  1.00  0.00    -0.159 A  
HETATM   23  C   UNK A   0     -10.656   6.796  71.394  1.00  0.00    -0.247 A  
HETATM   24  C   UNK A   0      -9.567   5.935  71.536  1.00  0.00    -0.153 A  
HETATM   25  C   UNK A   0     -10.595   7.892  70.529  1.00  0.00    -0.223 A  
HETATM   26  H   UNK A   0     -12.761   5.125  73.495  1.00  0.00     0.000 HD 
HETATM   27  C   UNK A   0      -8.399   6.194  70.819  1.00  0.00    -0.126 A  
HETATM   28  C   UNK A   0     -10.954   3.381  73.913  1.00  0.00    -0.275 C  
HETATM   29  N   UNK A   0      -9.671   4.858  72.415  1.00  0.00    -0.153 NA 
HETATM   30  N   UNK A   0     -11.916   5.368  72.978  1.00  0.00    -0.524 N  
HETATM   31  C   UNK A   0      -8.337   7.285  69.944  1.00  0.00    -0.135 A  
HETATM   32  C   UNK A   0     -11.877   6.500  72.188  1.00  0.00    -0.305 C  
HETATM   33  O   UNK A   0     -12.819   7.282  72.111  1.00  0.00    -0.202 OA 
HETATM   34  C   UNK A   0     -10.860   4.621  73.052  1.00  0.00    -0.247 C  
ENDBRANCH  21  22
ENDBRANCH   2  21
TORSDOF 7
ENDMDL
MODEL      143
REMARK 921   NORMALIZED FREE ENERGY PREDICTED BY IDOCK:   -5.51 KCAL/MOL
REMARK 922        TOTAL FREE ENERGY PREDICTED BY IDOCK:   -8.90 KCAL/MOL
REMARK 923 INTER-LIGAND FREE ENERGY PREDICTED BY IDOCK:   -8.53 KCAL/MOL
REMARK 924 INTRA-LIGAND FREE ENERGY PREDICTED BY IDOCK:   -0.37 KCAL/MOL
REMARK 927      BINDING AFFINITY PREDICTED BY RF-SCORE:    0.00 PKD
ROOT
HETATM    1  C   UNK A   0     -12.189  13.604  69.898  1.00  0.00    -0.304 C  
HETATM    2  N   UNK A   0     -11.608  12.498  69.144  1.00  0.00    -0.301 NA 
ENDROOT
BRANCH   2   3
HETATM    3  C   UNK A   0     -11.739  11.229  69.645  1.00  0.00    -0.350 A  
HETATM    4  C   UNK A   0     -12.096   9.421  71.090  1.00  0.00    -0.406 A  
HETATM    5  C   UNK A   0     -12.357  10.799  70.805  1.00  0.00    -0.480 A  
HETATM    6  S   UNK A   0     -11.103   9.883  68.793  1.00  0.00    -0.077 SA 
HETATM    7  C   UNK A   0     -11.335   8.822  70.105  1.00  0.00    -0.090 A  
BRANCH   7   8
HETATM    8  C   UNK A   0     -10.736   7.499  70.106  1.00  0.00    -0.239 C  
HETATM    9  O   UNK A   0     -10.852   6.703  69.180  1.00  0.00    -0.241 OA 
ATOM     10  N   GLU A   1     -10.048   7.167  71.264  1.00  0.00    -0.190 N  
ATOM     11  H   GLU A   1     -10.002   7.841  72.028  1.00  0.00     0.000 HD 
BRANCH  10  12
ATOM     12  CA  GLU A   1      -9.387   5.868  71.414  1.00  0.00    -0.149 C  
ATOM     13  C   GLU A   1     -10.317   4.893  72.160  1.00  0.00    -0.200 C  
ATOM     14  O   GLU A   1     -11.224   5.506  72.959  1.00  0.00    -0.285 OA 
ATOM     15  OXT GLU A   1     -10.172   3.678  72.161  1.00  0.00    -0.167 OA 
BRANCH  12  16
ATOM     16  CB  GLU A   1      -8.074   6.051  72.185  1.00  0.00    -0.107 C  
BRANCH  16  17
ATOM     17  CG  GLU A   1      -7.759   7.519  72.471  1.00  0.00    -0.108 C  
ATOM     18  CD  GLU A   1      -8.208   7.938  73.848  1.00  0.00    -0.233 C  
ATOM     19  OE2 GLU A   1      -9.149   7.448  74.445  1.00  0.00    -0.211 OA 
ATOM     20  OE1 GLU A   1      -7.471   8.955  74.349  1.00  0.00    -0.420 OA 
ENDBRANCH  16  17
ENDBRANCH  12  16
ENDBRANCH  10  12
ENDBRANCH   7   8
ENDBRANCH   2   3
BRANCH   2  21
HETATM   21  C   UNK A   0     -10.334  12.797  68.461  1.00  0.00    -0.221 C  
BRANCH  21  22
HETATM   22  C   UNK A   0     -10.427  14.074  67.653  1.00  0.00    -0.245 A  
HETATM   23  C   UNK A   0     -10.426  16.501  67.526  1.00  0.00    -0.310 A  
HETATM   24  C   UNK A   0     -10.563  16.451  66.138  1.00  0.00    -0.255 A  
HETATM   25  C   UNK A   0     -10.361  15.327  68.282  1.00  0.00    -0.234 A  
HETATM   26  H   UNK A   0     -10.251  19.898  67.787  1.00  0.00     0.000 HD 
HETATM   27  C   UNK A   0     -10.657  15.210  65.509  1.00  0.00    -0.383 A  
HETATM   28  C   UNK A   0     -10.454  20.099  65.258  1.00  0.00     0.063 C  
HETATM   29  N   UNK A   0     -10.630  17.648  65.425  1.00  0.00    -0.625 NA 
HETATM   30  N   UNK A   0     -10.349  18.972  67.371  1.00  0.00    -0.396 N  
HETATM   31  C   UNK A   0     -10.582  14.032  66.262  1.00  0.00    -0.281 A  
HETATM   32  C   UNK A   0     -10.348  17.841  68.163  1.00  0.00    -0.391 C  
HETATM   33  O   UNK A   0     -10.283  17.895  69.388  1.00  0.00    -0.241 OA 
HETATM   34  C   UNK A   0     -10.478  18.837  66.089  1.00  0.00    -0.446 C  
ENDBRANCH  21  22
ENDBRANCH   2  21
TORSDOF 7
ENDMDL
MODEL      144
REMARK 921   NORMALIZED FREE ENERGY PREDICTED BY IDOCK:   -5.49 KCAL/MOL
REMARK 922        TOTAL FREE ENERGY PREDICTED BY IDOCK:   -8.87 KCAL/MOL
REMARK 923 INTER-LIGAND FREE ENERGY PREDICTED BY IDOCK:   -8.47 KCAL/MOL
REMARK 924 INTRA-LIGAND FREE ENERGY PREDICTED BY IDOCK:   -0.40 KCAL/MOL
REMARK 927      BINDING AFFINITY PREDICTED BY RF-SCORE:    0.00 PKD
ROOT
HETATM    1  C   UNK A   0      -8.944  12.183  66.946  1.00  0.00    -0.201 C  
HETATM    2  N   UNK A   0     -10.184  11.454  67.194  1.00  0.00    -0.198 NA 
ENDROOT
BRANCH   2   3
HETATM    3  C   UNK A   0     -10.178  10.091  67.046  1.00  0.00    -0.237 A  
HETATM    4  C   UNK A   0     -10.321   7.794  67.479  1.00  0.00    -0.333 A  
HETATM    5  C   UNK A   0     -10.722   9.115  67.861  1.00  0.00    -0.224 A  
HETATM    6  S   UNK A   0      -9.438   9.363  65.681  1.00  0.00    -0.253 SA 
HETATM    7  C   UNK A   0      -9.533   7.797  66.346  1.00  0.00    -0.180 A  
BRANCH   7   8
HETATM    8  C   UNK A   0      -8.809   6.691  65.746  1.00  0.00    -0.077 C  
HETATM    9  O   UNK A   0      -7.644   6.770  65.368  1.00  0.00    -0.080 OA 
ATOM     10  N   GLU A   1      -9.547   5.529  65.577  1.00  0.00    -0.365 N  
ATOM     11  H   GLU A   1     -10.524   5.511  65.871  1.00  0.00     0.000 HD 
BRANCH  10  12
ATOM     12  CA  GLU A   1      -8.954   4.325  64.987  1.00  0.00    -0.141 C  
ATOM     13  C   GLU A   1      -9.940   3.697  63.984  1.00  0.00    -0.190 C  
ATOM     14  O   GLU A   1     -11.239   3.995  64.235  1.00  0.00    -0.325 OA 
ATOM     15  OXT GLU A   1      -9.618   2.884  63.129  1.00  0.00    -0.093 OA 
BRANCH  12  16
ATOM     16  CB  GLU A   1      -8.613   3.327  66.099  1.00  0.00    -0.121 C  
BRANCH  16  17
ATOM     17  CG  GLU A   1      -9.548   3.445  67.303  1.00  0.00    -0.133 C  
ATOM     18  CD  GLU A   1      -8.796   3.441  68.609  1.00  0.00    -0.114 C  
ATOM     19  OE2 GLU A   1      -7.731   2.879  68.789  1.00  0.00    -0.048 OA 
ATOM     20  OE1 GLU A   1      -9.449   4.104  69.589  1.00  0.00    -0.155 OA 
ENDBRANCH  16  17
ENDBRANCH  12  16
ENDBRANCH  10  12
ENDBRANCH   7   8
ENDBRANCH   2   3
BRANCH   2  21
HETATM   21  C   UNK A   0     -11.420  12.146  66.777  1.00  0.00    -0.356 C  
BRANCH  21  22
HETATM   22  C   UNK A   0     -11.158  13.603  66.464  1.00  0.00    -0.310 A  
HETATM   23  C   UNK A   0     -10.838  15.899  67.192  1.00  0.00    -0.267 A  
HETATM   24  C   UNK A   0     -10.632  16.313  65.876  1.00  0.00    -0.297 A  
HETATM   25  C   UNK A   0     -11.101  14.559  67.490  1.00  0.00    -0.316 A  
HETATM   26  H   UNK A   0     -10.330  18.942  68.650  1.00  0.00     0.000 HD 
HETATM   27  C   UNK A   0     -10.714  15.374  64.849  1.00  0.00    -0.416 A  
HETATM   28  C   UNK A   0      -9.877  19.958  66.360  1.00  0.00    -0.572 C  
HETATM   29  N   UNK A   0     -10.378  17.661  65.626  1.00  0.00    -0.635 NA 
HETATM   30  N   UNK A   0     -10.432  18.231  67.926  1.00  0.00    -0.394 N  
HETATM   31  C   UNK A   0     -10.968  14.029  65.143  1.00  0.00    -0.357 A  
HETATM   32  C   UNK A   0     -10.761  16.931  68.259  1.00  0.00    -0.377 C  
HETATM   33  O   UNK A   0     -10.995  16.586  69.414  1.00  0.00    -0.310 OA 
HETATM   34  C   UNK A   0     -10.255  18.530  66.678  1.00  0.00    -0.399 C  
ENDBRANCH  21  22
ENDBRANCH   2  21
TORSDOF 7
ENDMDL
MODEL      145
REMARK 921   NORMALIZED FREE ENERGY PREDICTED BY IDOCK:   -5.49 KCAL/MOL
REMARK 922        TOTAL FREE ENERGY PREDICTED BY IDOCK:   -8.86 KCAL/MOL
REMARK 923 INTER-LIGAND FREE ENERGY PREDICTED BY IDOCK:   -7.97 KCAL/MOL
REMARK 924 INTRA-LIGAND FREE ENERGY PREDICTED BY IDOCK:   -0.89 KCAL/MOL
REMARK 927      BINDING AFFINITY PREDICTED BY RF-SCORE:    0.00 PKD
ROOT
HETATM    1  C   UNK A   0     -12.790  15.392  69.841  1.00  0.00     0.024 C  
HETATM    2  N   UNK A   0     -11.578  14.620  69.585  1.00  0.00    -0.290 NA 
ENDROOT
BRANCH   2   3
HETATM    3  C   UNK A   0     -11.631  13.258  69.730  1.00  0.00    -0.227 A  
HETATM    4  C   UNK A   0     -12.045  11.114  70.576  1.00  0.00    -0.474 A  
HETATM    5  C   UNK A   0     -12.436  12.490  70.553  1.00  0.00    -0.266 A  
HETATM    6  S   UNK A   0     -10.615  12.238  68.797  1.00  0.00    -0.150 SA 
HETATM    7  C   UNK A   0     -10.991  10.858  69.723  1.00  0.00    -0.226 A  
BRANCH   7   8
HETATM    8  C   UNK A   0     -10.216   9.638  69.583  1.00  0.00    -0.222 C  
HETATM    9  O   UNK A   0      -8.994   9.598  69.678  1.00  0.00    -0.171 OA 
ATOM     10  N   GLU A   1     -10.955   8.504  69.279  1.00  0.00    -0.425 N  
ATOM     11  H   GLU A   1     -11.967   8.583  69.172  1.00  0.00     0.000 HD 
BRANCH  10  12
ATOM     12  CA  GLU A   1     -10.315   7.197  69.109  1.00  0.00    -0.200 C  
ATOM     13  C   GLU A   1     -10.140   6.894  67.609  1.00  0.00    -0.161 C  
ATOM     14  O   GLU A   1     -11.028   7.540  66.813  1.00  0.00    -0.220 OA 
ATOM     15  OXT GLU A   1      -9.378   6.043  67.170  1.00  0.00    -0.115 OA 
BRANCH  12  16
ATOM     16  CB  GLU A   1     -11.177   6.118  69.775  1.00  0.00    -0.494 C  
BRANCH  16  17
ATOM     17  CG  GLU A   1     -11.860   6.614  71.050  1.00  0.00    -0.427 C  
ATOM     18  CD  GLU A   1     -11.187   6.092  72.294  1.00  0.00    -0.293 C  
ATOM     19  OE2 GLU A   1     -10.591   5.032  72.363  1.00  0.00    -0.211 OA 
ATOM     20  OE1 GLU A   1     -11.345   6.913  73.356  1.00  0.00    -0.064 OA 
ENDBRANCH  16  17
ENDBRANCH  12  16
ENDBRANCH  10  12
ENDBRANCH   7   8
ENDBRANCH   2   3
BRANCH   2  21
HETATM   21  C   UNK A   0     -10.316  15.267  69.995  1.00  0.00    -0.221 C  
BRANCH  21  22
HETATM   22  C   UNK A   0      -9.683  16.020  68.846  1.00  0.00    -0.232 A  
HETATM   23  C   UNK A   0      -7.976  17.520  67.985  1.00  0.00    -0.234 A  
HETATM   24  C   UNK A   0      -8.483  17.393  66.692  1.00  0.00    -0.261 A  
HETATM   25  C   UNK A   0      -8.567  16.844  69.057  1.00  0.00    -0.148 A  
HETATM   26  H   UNK A   0      -5.352  19.550  67.186  1.00  0.00     0.000 HD 
HETATM   27  C   UNK A   0      -9.608  16.598  66.479  1.00  0.00    -0.292 A  
HETATM   28  C   UNK A   0      -6.038  19.466  64.737  1.00  0.00    -0.310 C  
HETATM   29  N   UNK A   0      -7.864  18.091  65.655  1.00  0.00    -0.483 NA 
HETATM   30  N   UNK A   0      -6.195  18.986  67.080  1.00  0.00    -0.178 N  
HETATM   31  C   UNK A   0     -10.197  15.912  67.547  1.00  0.00    -0.269 A  
HETATM   32  C   UNK A   0      -6.786  18.391  68.177  1.00  0.00    -0.228 C  
HETATM   33  O   UNK A   0      -6.367  18.552  69.319  1.00  0.00    -0.246 OA 
HETATM   34  C   UNK A   0      -6.730  18.815  65.912  1.00  0.00    -0.259 C  
ENDBRANCH  21  22
ENDBRANCH   2  21
TORSDOF 7
ENDMDL
MODEL      146
REMARK 921   NORMALIZED FREE ENERGY PREDICTED BY IDOCK:   -5.46 KCAL/MOL
REMARK 922        TOTAL FREE ENERGY PREDICTED BY IDOCK:   -8.83 KCAL/MOL
REMARK 923 INTER-LIGAND FREE ENERGY PREDICTED BY IDOCK:   -7.48 KCAL/MOL
REMARK 924 INTRA-LIGAND FREE ENERGY PREDICTED BY IDOCK:   -1.35 KCAL/MOL
REMARK 927      BINDING AFFINITY PREDICTED BY RF-SCORE:    0.00 PKD
ROOT
HETATM    1  C   UNK A   0      -9.076   8.554  65.451  1.00  0.00    -0.043 C  
HETATM    2  N   UNK A   0      -7.856   9.151  65.987  1.00  0.00    -0.101 NA 
ENDROOT
BRANCH   2   3
HETATM    3  C   UNK A   0      -7.495   8.848  67.274  1.00  0.00    -0.084 A  
HETATM    4  C   UNK A   0      -6.284   8.138  69.149  1.00  0.00    -0.039 A  
HETATM    5  C   UNK A   0      -6.236   8.647  67.811  1.00  0.00    -0.056 A  
HETATM    6  S   UNK A   0      -8.682   8.688  68.502  1.00  0.00    -0.139 SA 
HETATM    7  C   UNK A   0      -7.578   8.024  69.616  1.00  0.00    -0.096 A  
BRANCH   7   8
HETATM    8  C   UNK A   0      -8.044   7.408  70.845  1.00  0.00    -0.105 C  
HETATM    9  O   UNK A   0      -7.311   6.799  71.617  1.00  0.00    -0.083 OA 
ATOM     10  N   GLU A   1      -9.409   7.511  71.073  1.00  0.00    -0.156 N  
ATOM     11  H   GLU A   1      -9.993   7.994  70.390  1.00  0.00     0.000 HD 
BRANCH  10  12
ATOM     12  CA  GLU A   1     -10.029   6.941  72.272  1.00  0.00    -0.161 C  
ATOM     13  C   GLU A   1     -10.665   5.580  71.932  1.00  0.00    -0.231 C  
ATOM     14  O   GLU A   1     -11.008   5.446  70.627  1.00  0.00    -0.190 OA 
ATOM     15  OXT GLU A   1     -10.977   4.745  72.770  1.00  0.00    -0.222 OA 
BRANCH  12  16
ATOM     16  CB  GLU A   1     -11.091   7.910  72.805  1.00  0.00    -0.462 C  
BRANCH  16  17
ATOM     17  CG  GLU A   1     -11.382   9.056  71.837  1.00  0.00    -0.438 C  
ATOM     18  CD  GLU A   1     -12.861   9.285  71.656  1.00  0.00    -0.372 C  
ATOM     19  OE2 GLU A   1     -13.710   8.418  71.757  1.00  0.00    -0.364 OA 
ATOM     20  OE1 GLU A   1     -13.154  10.563  71.327  1.00  0.00    -0.377 OA 
ENDBRANCH  16  17
ENDBRANCH  12  16
ENDBRANCH  10  12
ENDBRANCH   7   8
ENDBRANCH   2   3
BRANCH   2  21
HETATM   21  C   UNK A   0      -7.579  10.532  65.545  1.00  0.00    -0.120 C  
BRANCH  21  22
HETATM   22  C   UNK A   0      -8.234  11.546  66.458  1.00  0.00    -0.129 A  
HETATM   23  C   UNK A   0     -10.210  12.726  67.237  1.00  0.00    -0.232 A  
HETATM   24  C   UNK A   0      -9.455  13.411  68.189  1.00  0.00    -0.218 A  
HETATM   25  C   UNK A   0      -9.611  11.803  66.375  1.00  0.00    -0.234 A  
HETATM   26  H   UNK A   0     -13.233  14.052  68.099  1.00  0.00     0.000 HD 
HETATM   27  C   UNK A   0      -8.081  13.182  68.258  1.00  0.00    -0.152 A  
HETATM   28  C   UNK A   0     -12.111  15.401  69.943  1.00  0.00    -0.382 C  
HETATM   29  N   UNK A   0     -10.094  14.328  69.023  1.00  0.00    -0.381 NA 
HETATM   30  N   UNK A   0     -12.228  13.880  68.094  1.00  0.00    -0.494 N  
HETATM   31  C   UNK A   0      -7.479  12.251  67.404  1.00  0.00    -0.160 A  
HETATM   32  C   UNK A   0     -11.668  13.010  67.180  1.00  0.00    -0.382 C  
HETATM   33  O   UNK A   0     -12.330  12.453  66.309  1.00  0.00    -0.577 OA 
HETATM   34  C   UNK A   0     -11.454  14.473  68.947  1.00  0.00    -0.300 C  
ENDBRANCH  21  22
ENDBRANCH   2  21
TORSDOF 7
ENDMDL
MODEL      147
REMARK 921   NORMALIZED FREE ENERGY PREDICTED BY IDOCK:   -5.46 KCAL/MOL
REMARK 922        TOTAL FREE ENERGY PREDICTED BY IDOCK:   -8.83 KCAL/MOL
REMARK 923 INTER-LIGAND FREE ENERGY PREDICTED BY IDOCK:   -7.94 KCAL/MOL
REMARK 924 INTRA-LIGAND FREE ENERGY PREDICTED BY IDOCK:   -0.89 KCAL/MOL
REMARK 927      BINDING AFFINITY PREDICTED BY RF-SCORE:    0.00 PKD
ROOT
HETATM    1  C   UNK A   0     -12.744  12.447  64.520  1.00  0.00    -0.314 C  
HETATM    2  N   UNK A   0     -11.553  12.536  65.360  1.00  0.00    -0.357 NA 
ENDROOT
BRANCH   2   3
HETATM    3  C   UNK A   0     -10.533  11.647  65.139  1.00  0.00    -0.279 A  
HETATM    4  C   UNK A   0      -9.018  10.196  64.099  1.00  0.00    -0.267 A  
HETATM    5  C   UNK A   0      -9.883  11.327  63.960  1.00  0.00    -0.334 A  
HETATM    6  S   UNK A   0      -9.858  10.750  66.435  1.00  0.00    -0.216 SA 
HETATM    7  C   UNK A   0      -8.985   9.722  65.395  1.00  0.00    -0.190 A  
BRANCH   7   8
HETATM    8  C   UNK A   0      -8.360   8.512  65.900  1.00  0.00    -0.138 C  
HETATM    9  O   UNK A   0      -7.286   8.501  66.490  1.00  0.00    -0.078 OA 
ATOM     10  N   GLU A   1      -9.047   7.338  65.624  1.00  0.00    -0.385 N  
ATOM     11  H   GLU A   1      -9.920   7.383  65.099  1.00  0.00     0.000 HD 
BRANCH  10  12
ATOM     12  CA  GLU A   1      -8.544   6.036  66.069  1.00  0.00    -0.147 C  
ATOM     13  C   GLU A   1      -7.880   5.302  64.889  1.00  0.00    -0.095 C  
ATOM     14  O   GLU A   1      -8.343   5.688  63.675  1.00  0.00    -0.118 OA 
ATOM     15  OXT GLU A   1      -7.115   4.356  65.018  1.00  0.00    -0.060 OA 
BRANCH  12  16
ATOM     16  CB  GLU A   1      -9.706   5.207  66.630  1.00  0.00    -0.181 C  
BRANCH  16  17
ATOM     17  CG  GLU A   1      -9.244   4.141  67.623  1.00  0.00    -0.184 C  
ATOM     18  CD  GLU A   1      -9.376   4.603  69.052  1.00  0.00    -0.142 C  
ATOM     19  OE2 GLU A   1      -9.302   5.763  69.412  1.00  0.00    -0.123 OA 
ATOM     20  OE1 GLU A   1      -9.553   3.578  69.917  1.00  0.00    -0.188 OA 
ENDBRANCH  16  17
ENDBRANCH  12  16
ENDBRANCH  10  12
ENDBRANCH   7   8
ENDBRANCH   2   3
BRANCH   2  21
HETATM   21  C   UNK A   0     -11.796  12.905  66.768  1.00  0.00    -0.385 C  
BRANCH  21  22
HETATM   22  C   UNK A   0     -11.008  14.136  67.160  1.00  0.00    -0.304 A  
HETATM   23  C   UNK A   0     -10.284  16.414  66.718  1.00  0.00    -0.285 A  
HETATM   24  C   UNK A   0      -9.566  16.443  67.914  1.00  0.00    -0.228 A  
HETATM   25  C   UNK A   0     -10.999  15.274  66.338  1.00  0.00    -0.299 A  
HETATM   26  H   UNK A   0      -9.616  19.625  65.776  1.00  0.00     0.000 HD 
HETATM   27  C   UNK A   0      -9.548  15.306  68.722  1.00  0.00    -0.214 A  
HETATM   28  C   UNK A   0      -8.265  19.964  67.906  1.00  0.00    -0.318 C  
HETATM   29  N   UNK A   0      -8.863  17.600  68.250  1.00  0.00    -0.269 NA 
HETATM   30  N   UNK A   0      -9.602  18.763  66.321  1.00  0.00    -0.323 N  
HETATM   31  C   UNK A   0     -10.269  14.166  68.350  1.00  0.00    -0.247 A  
HETATM   32  C   UNK A   0     -10.266  17.637  65.874  1.00  0.00    -0.232 C  
HETATM   33  O   UNK A   0     -10.849  17.602  64.794  1.00  0.00    -0.762 OA 
HETATM   34  C   UNK A   0      -8.960  18.704  67.445  1.00  0.00    -0.272 C  
ENDBRANCH  21  22
ENDBRANCH   2  21
TORSDOF 7
ENDMDL
MODEL      148
REMARK 921   NORMALIZED FREE ENERGY PREDICTED BY IDOCK:   -5.45 KCAL/MOL
REMARK 922        TOTAL FREE ENERGY PREDICTED BY IDOCK:   -8.82 KCAL/MOL
REMARK 923 INTER-LIGAND FREE ENERGY PREDICTED BY IDOCK:   -7.54 KCAL/MOL
REMARK 924 INTRA-LIGAND FREE ENERGY PREDICTED BY IDOCK:   -1.28 KCAL/MOL
REMARK 927      BINDING AFFINITY PREDICTED BY RF-SCORE:    0.00 PKD
ROOT
HETATM    1  C   UNK A   0     -10.897   7.627  73.314  1.00  0.00    -0.321 C  
HETATM    2  N   UNK A   0     -10.926   7.572  71.856  1.00  0.00    -0.230 NA 
ENDROOT
BRANCH   2   3
HETATM    3  C   UNK A   0      -9.783   7.893  71.170  1.00  0.00    -0.158 A  
HETATM    4  C   UNK A   0      -7.833   8.975  70.456  1.00  0.00    -0.138 A  
HETATM    5  C   UNK A   0      -8.744   8.731  71.532  1.00  0.00    -0.274 A  
HETATM    6  S   UNK A   0      -9.464   7.204  69.632  1.00  0.00    -0.150 SA 
HETATM    7  C   UNK A   0      -8.169   8.266  69.320  1.00  0.00    -0.118 A  
BRANCH   7   8
HETATM    8  C   UNK A   0      -7.594   8.364  67.990  1.00  0.00    -0.098 C  
HETATM    9  O   UNK A   0      -6.507   8.883  67.759  1.00  0.00    -0.059 OA 
ATOM     10  N   GLU A   1      -8.390   7.866  66.968  1.00  0.00    -0.116 N  
ATOM     11  H   GLU A   1      -9.304   7.473  67.194  1.00  0.00     0.000 HD 
BRANCH  10  12
ATOM     12  CA  GLU A   1      -7.946   7.893  65.572  1.00  0.00    -0.119 C  
ATOM     13  C   GLU A   1      -8.642   9.047  64.826  1.00  0.00    -0.175 C  
ATOM     14  O   GLU A   1      -9.828   9.414  65.370  1.00  0.00    -0.270 OA 
ATOM     15  OXT GLU A   1      -8.252   9.502  63.759  1.00  0.00    -0.140 OA 
BRANCH  12  16
ATOM     16  CB  GLU A   1      -8.276   6.551  64.907  1.00  0.00    -0.097 C  
BRANCH  16  17
ATOM     17  CG  GLU A   1      -8.242   5.382  65.892  1.00  0.00    -0.119 C  
ATOM     18  CD  GLU A   1      -9.625   4.901  66.249  1.00  0.00    -0.174 C  
ATOM     19  OE2 GLU A   1     -10.619   5.605  66.261  1.00  0.00    -0.202 OA 
ATOM     20  OE1 GLU A   1      -9.649   3.595  66.598  1.00  0.00    -0.199 OA 
ENDBRANCH  16  17
ENDBRANCH  12  16
ENDBRANCH  10  12
ENDBRANCH   7   8
ENDBRANCH   2   3
BRANCH   2  21
HETATM   21  C   UNK A   0     -12.195   7.991  71.231  1.00  0.00    -0.287 C  
BRANCH  21  22
HETATM   22  C   UNK A   0     -12.256   9.493  71.058  1.00  0.00    -0.385 A  
HETATM   23  C   UNK A   0     -11.619  11.513  69.865  1.00  0.00    -0.387 A  
HETATM   24  C   UNK A   0     -12.402  12.292  70.717  1.00  0.00    -0.290 A  
HETATM   25  C   UNK A   0     -11.541  10.127  70.029  1.00  0.00    -0.323 A  
HETATM   26  H   UNK A   0     -10.580  14.058  67.844  1.00  0.00     0.000 HD 
HETATM   27  C   UNK A   0     -13.093  11.673  71.758  1.00  0.00    -0.487 A  
HETATM   28  C   UNK A   0     -11.953  15.704  69.216  1.00  0.00    -0.338 C  
HETATM   29  N   UNK A   0     -12.445  13.672  70.519  1.00  0.00    -0.339 NA 
HETATM   30  N   UNK A   0     -11.042  13.571  68.611  1.00  0.00    -0.258 N  
HETATM   31  C   UNK A   0     -13.025  10.284  71.921  1.00  0.00    -0.554 A  
HETATM   32  C   UNK A   0     -10.882  12.209  68.778  1.00  0.00    -0.228 C  
HETATM   33  O   UNK A   0     -10.148  11.539  68.058  1.00  0.00    -0.177 OA 
HETATM   34  C   UNK A   0     -11.790  14.219  69.448  1.00  0.00    -0.326 C  
ENDBRANCH  21  22
ENDBRANCH   2  21
TORSDOF 7
ENDMDL
MODEL      149
REMARK 921   NORMALIZED FREE ENERGY PREDICTED BY IDOCK:   -5.45 KCAL/MOL
REMARK 922        TOTAL FREE ENERGY PREDICTED BY IDOCK:   -8.81 KCAL/MOL
REMARK 923 INTER-LIGAND FREE ENERGY PREDICTED BY IDOCK:   -7.39 KCAL/MOL
REMARK 924 INTRA-LIGAND FREE ENERGY PREDICTED BY IDOCK:   -1.42 KCAL/MOL
REMARK 927      BINDING AFFINITY PREDICTED BY RF-SCORE:    0.00 PKD
ROOT
HETATM    1  C   UNK A   0     -12.941  12.252  72.062  1.00  0.00    -0.270 C  
HETATM    2  N   UNK A   0     -12.575  11.417  70.922  1.00  0.00    -0.371 NA 
ENDROOT
BRANCH   2   3
HETATM    3  C   UNK A   0     -11.954  12.010  69.854  1.00  0.00    -0.318 A  
HETATM    4  C   UNK A   0     -11.537  13.291  67.938  1.00  0.00    -0.370 A  
HETATM    5  C   UNK A   0     -12.342  13.108  69.108  1.00  0.00     0.026 A  
HETATM    6  S   UNK A   0     -10.458  11.410  69.268  1.00  0.00     0.012 SA 
HETATM    7  C   UNK A   0     -10.519  12.362  67.857  1.00  0.00    -0.215 A  
BRANCH   7   8
HETATM    8  C   UNK A   0      -9.603  12.119  66.757  1.00  0.00    -0.211 C  
HETATM    9  O   UNK A   0      -8.552  12.733  66.604  1.00  0.00    -0.136 OA 
ATOM     10  N   GLU A   1     -10.022  11.163  65.843  1.00  0.00    -0.228 N  
ATOM     11  H   GLU A   1     -10.919  10.698  65.984  1.00  0.00     0.000 HD 
BRANCH  10  12
ATOM     12  CA  GLU A   1      -9.205  10.806  64.681  1.00  0.00    -0.219 C  
ATOM     13  C   GLU A   1      -9.776  11.476  63.417  1.00  0.00    -0.361 C  
ATOM     14  O   GLU A   1     -11.100  11.757  63.497  1.00  0.00    -0.407 OA 
ATOM     15  OXT GLU A   1      -9.148  11.614  62.376  1.00  0.00    -0.259 OA 
BRANCH  12  16
ATOM     16  CB  GLU A   1      -9.189   9.282  64.518  1.00  0.00    -0.065 C  
BRANCH  16  17
ATOM     17  CG  GLU A   1      -8.444   8.576  65.651  1.00  0.00    -0.170 C  
ATOM     18  CD  GLU A   1      -9.385   7.885  66.604  1.00  0.00    -0.193 C  
ATOM     19  OE2 GLU A   1     -10.525   8.248  66.834  1.00  0.00    -0.319 OA 
ATOM     20  OE1 GLU A   1      -8.818   6.823  67.219  1.00  0.00    -0.117 OA 
ENDBRANCH  16  17
ENDBRANCH  12  16
ENDBRANCH  10  12
ENDBRANCH   7   8
ENDBRANCH   2   3
BRANCH   2  21
HETATM   21  C   UNK A   0     -13.524  10.333  70.600  1.00  0.00     0.129 C  
BRANCH  21  22
HETATM   22  C   UNK A   0     -13.099   9.023  71.228  1.00  0.00    -0.271 A  
HETATM   23  C   UNK A   0     -11.441   7.667  72.377  1.00  0.00    -0.392 A  
HETATM   24  C   UNK A   0     -12.325   6.590  72.431  1.00  0.00     0.001 A  
HETATM   25  C   UNK A   0     -11.817   8.874  71.780  1.00  0.00    -0.429 A  
HETATM   26  H   UNK A   0      -8.887   6.172  74.075  1.00  0.00     0.000 HD 
HETATM   27  C   UNK A   0     -13.590   6.721  71.860  1.00  0.00    -0.117 A  
HETATM   28  C   UNK A   0     -10.303   4.074  74.349  1.00  0.00    -0.272 C  
HETATM   29  N   UNK A   0     -11.904   5.403  73.031  1.00  0.00    -0.534 NA 
HETATM   30  N   UNK A   0      -9.789   6.298  73.617  1.00  0.00    -0.174 N  
HETATM   31  C   UNK A   0     -13.975   7.930  71.271  1.00  0.00    -0.296 A  
HETATM   32  C   UNK A   0     -10.094   7.484  72.979  1.00  0.00    -0.288 C  
HETATM   33  O   UNK A   0      -9.291   8.408  72.887  1.00  0.00    -0.260 OA 
HETATM   34  C   UNK A   0     -10.670   5.348  73.623  1.00  0.00    -0.293 C  
ENDBRANCH  21  22
ENDBRANCH   2  21
TORSDOF 7
ENDMDL
MODEL      150
REMARK 921   NORMALIZED FREE ENERGY PREDICTED BY IDOCK:   -5.44 KCAL/MOL
REMARK 922        TOTAL FREE ENERGY PREDICTED BY IDOCK:   -8.79 KCAL/MOL
REMARK 923 INTER-LIGAND FREE ENERGY PREDICTED BY IDOCK:   -7.84 KCAL/MOL
REMARK 924 INTRA-LIGAND FREE ENERGY PREDICTED BY IDOCK:   -0.95 KCAL/MOL
REMARK 927      BINDING AFFINITY PREDICTED BY RF-SCORE:    0.00 PKD
ROOT
HETATM    1  C   UNK A   0     -10.603   5.099  72.057  1.00  0.00    -0.200 C  
HETATM    2  N   UNK A   0      -9.827   6.331  71.947  1.00  0.00    -0.156 NA 
ENDROOT
BRANCH   2   3
HETATM    3  C   UNK A   0     -10.500   7.525  71.938  1.00  0.00    -0.202 A  
HETATM    4  C   UNK A   0     -12.152   9.163  72.204  1.00  0.00    -0.389 A  
HETATM    5  C   UNK A   0     -11.625   7.908  72.646  1.00  0.00    -0.435 A  
HETATM    6  S   UNK A   0      -9.957   8.828  70.963  1.00  0.00    -0.258 SA 
HETATM    7  C   UNK A   0     -11.378   9.732  71.213  1.00  0.00    -0.375 A  
BRANCH   7   8
HETATM    8  C   UNK A   0     -11.662  10.907  70.407  1.00  0.00    -0.350 C  
HETATM    9  O   UNK A   0     -12.520  11.734  70.695  1.00  0.00    -0.324 OA 
ATOM     10  N   GLU A   1     -10.919  11.011  69.240  1.00  0.00    -0.237 N  
ATOM     11  H   GLU A   1     -10.239  10.285  69.015  1.00  0.00     0.000 HD 
BRANCH  10  12
ATOM     12  CA  GLU A   1     -11.089  12.142  68.324  1.00  0.00    -0.243 C  
ATOM     13  C   GLU A   1     -11.526  11.629  66.939  1.00  0.00    -0.247 C  
ATOM     14  O   GLU A   1     -11.150  10.351  66.685  1.00  0.00    -0.079 OA 
ATOM     15  OXT GLU A   1     -12.033  12.336  66.079  1.00  0.00    -0.570 OA 
BRANCH  12  16
ATOM     16  CB  GLU A   1      -9.769  12.914  68.217  1.00  0.00    -0.217 C  
BRANCH  16  17
ATOM     17  CG  GLU A   1      -9.962  14.427  68.318  1.00  0.00    -0.232 C  
ATOM     18  CD  GLU A   1     -10.170  15.064  66.968  1.00  0.00    -0.257 C  
ATOM     19  OE2 GLU A   1      -9.714  14.634  65.924  1.00  0.00    -0.312 OA 
ATOM     20  OE1 GLU A   1     -10.897  16.202  67.035  1.00  0.00    -0.292 OA 
ENDBRANCH  16  17
ENDBRANCH  12  16
ENDBRANCH  10  12
ENDBRANCH   7   8
ENDBRANCH   2   3
BRANCH   2  21
HETATM   21  C   UNK A   0      -8.634   6.253  71.082  1.00  0.00    -0.125 C  
BRANCH  21  22
HETATM   22  C   UNK A   0      -8.903   5.426  69.844  1.00  0.00    -0.140 A  
HETATM   23  C   UNK A   0      -9.915   5.169  67.649  1.00  0.00    -0.203 A  
HETATM   24  C   UNK A   0      -9.370   3.891  67.521  1.00  0.00    -0.191 A  
HETATM   25  C   UNK A   0      -9.688   5.933  68.797  1.00  0.00    -0.161 A  
HETATM   26  H   UNK A   0     -11.395   5.281  64.577  1.00  0.00     0.000 HD 
HETATM   27  C   UNK A   0      -8.612   3.369  68.568  1.00  0.00    -0.122 A  
HETATM   28  C   UNK A   0     -10.496   2.955  64.064  1.00  0.00    -0.075 C  
HETATM   29  N   UNK A   0      -9.627   3.163  66.360  1.00  0.00    -0.405 NA 
HETATM   30  N   UNK A   0     -10.874   4.924  65.378  1.00  0.00    -0.658 N  
HETATM   31  C   UNK A   0      -8.375   4.134  69.716  1.00  0.00    -0.079 A  
HETATM   32  C   UNK A   0     -10.733   5.686  66.521  1.00  0.00    -0.226 C  
HETATM   33  O   UNK A   0     -11.261   6.787  66.648  1.00  0.00    -0.205 OA 
HETATM   34  C   UNK A   0     -10.334   3.746  65.341  1.00  0.00     0.121 C  
ENDBRANCH  21  22
ENDBRANCH   2  21
TORSDOF 7
ENDMDL
MODEL      151
REMARK 921   NORMALIZED FREE ENERGY PREDICTED BY IDOCK:   -5.42 KCAL/MOL
REMARK 922        TOTAL FREE ENERGY PREDICTED BY IDOCK:   -8.77 KCAL/MOL
REMARK 923 INTER-LIGAND FREE ENERGY PREDICTED BY IDOCK:   -8.46 KCAL/MOL
REMARK 924 INTRA-LIGAND FREE ENERGY PREDICTED BY IDOCK:   -0.31 KCAL/MOL
REMARK 927      BINDING AFFINITY PREDICTED BY RF-SCORE:    0.00 PKD
ROOT
HETATM    1  C   UNK A   0     -13.383  15.293  70.727  1.00  0.00    -0.353 C  
HETATM    2  N   UNK A   0     -12.152  14.707  70.205  1.00  0.00    -0.299 NA 
ENDROOT
BRANCH   2   3
HETATM    3  C   UNK A   0     -12.137  13.365  69.926  1.00  0.00    -0.322 A  
HETATM    4  C   UNK A   0     -12.096  11.035  70.150  1.00  0.00    -0.438 A  
HETATM    5  C   UNK A   0     -12.437  12.292  70.744  1.00  0.00    -0.356 A  
HETATM    6  S   UNK A   0     -11.721  12.803  68.360  1.00  0.00    -0.332 SA 
HETATM    7  C   UNK A   0     -11.602  11.182  68.870  1.00  0.00    -0.317 A  
BRANCH   7   8
HETATM    8  C   UNK A   0     -11.006  10.175  68.009  1.00  0.00    -0.270 C  
HETATM    9  O   UNK A   0     -10.720  10.373  66.834  1.00  0.00    -0.252 OA 
ATOM     10  N   GLU A   1     -10.823   8.933  68.599  1.00  0.00    -0.431 N  
ATOM     11  H   GLU A   1     -11.106   8.794  69.570  1.00  0.00     0.000 HD 
BRANCH  10  12
ATOM     12  CA  GLU A   1     -10.231   7.815  67.859  1.00  0.00    -0.206 C  
ATOM     13  C   GLU A   1     -10.916   6.498  68.269  1.00  0.00    -0.281 C  
ATOM     14  O   GLU A   1     -11.464   6.529  69.509  1.00  0.00    -0.371 OA 
ATOM     15  OXT GLU A   1     -10.854   5.465  67.615  1.00  0.00    -0.127 OA 
BRANCH  12  16
ATOM     16  CB  GLU A   1      -8.728   7.750  68.152  1.00  0.00    -0.126 C  
BRANCH  16  17
ATOM     17  CG  GLU A   1      -8.395   6.823  69.321  1.00  0.00    -0.125 C  
ATOM     18  CD  GLU A   1      -8.803   7.412  70.647  1.00  0.00    -0.150 C  
ATOM     19  OE2 GLU A   1      -8.855   8.605  70.885  1.00  0.00    -0.150 OA 
ATOM     20  OE1 GLU A   1      -9.077   6.467  71.575  1.00  0.00    -0.144 OA 
ENDBRANCH  16  17
ENDBRANCH  12  16
ENDBRANCH  10  12
ENDBRANCH   7   8
ENDBRANCH   2   3
BRANCH   2  21
HETATM   21  C   UNK A   0     -10.901  15.269  70.753  1.00  0.00    -0.214 C  
BRANCH  21  22
HETATM   22  C   UNK A   0     -10.095  15.970  69.681  1.00  0.00    -0.244 A  
HETATM   23  C   UNK A   0      -9.551  17.970  68.412  1.00  0.00    -0.338 A  
HETATM   24  C   UNK A   0      -8.564  17.282  67.706  1.00  0.00    -0.225 A  
HETATM   25  C   UNK A   0     -10.314  17.325  69.390  1.00  0.00    -0.158 A  
HETATM   26  H   UNK A   0      -9.025  21.015  66.966  1.00  0.00     0.000 HD 
HETATM   27  C   UNK A   0      -8.359  15.928  67.970  1.00  0.00    -0.161 A  
HETATM   28  C   UNK A   0      -7.145  20.022  65.567  1.00  0.00    -0.336 C  
HETATM   29  N   UNK A   0      -7.831  17.965  66.736  1.00  0.00    -0.220 NA 
HETATM   30  N   UNK A   0      -8.931  20.020  67.166  1.00  0.00    -0.332 N  
HETATM   31  C   UNK A   0      -9.115  15.281  68.955  1.00  0.00    -0.209 A  
HETATM   32  C   UNK A   0      -9.753  19.408  68.091  1.00  0.00    -0.383 C  
HETATM   33  O   UNK A   0     -10.656  20.006  68.668  1.00  0.00    -0.296 OA 
HETATM   34  C   UNK A   0      -8.037  19.307  66.556  1.00  0.00    -0.299 C  
ENDBRANCH  21  22
ENDBRANCH   2  21
TORSDOF 7
ENDMDL
MODEL      152
REMARK 921   NORMALIZED FREE ENERGY PREDICTED BY IDOCK:   -5.41 KCAL/MOL
REMARK 922        TOTAL FREE ENERGY PREDICTED BY IDOCK:   -8.75 KCAL/MOL
REMARK 923 INTER-LIGAND FREE ENERGY PREDICTED BY IDOCK:   -7.69 KCAL/MOL
REMARK 924 INTRA-LIGAND FREE ENERGY PREDICTED BY IDOCK:   -1.06 KCAL/MOL
REMARK 927      BINDING AFFINITY PREDICTED BY RF-SCORE:    0.00 PKD
ROOT
HETATM    1  C   UNK A   0     -12.760  14.055  65.439  1.00  0.00    -0.471 C  
HETATM    2  N   UNK A   0     -11.647  13.881  66.367  1.00  0.00    -0.351 NA 
ENDROOT
BRANCH   2   3
HETATM    3  C   UNK A   0     -11.082  12.637  66.479  1.00  0.00    -0.280 A  
HETATM    4  C   UNK A   0     -10.278  10.493  65.986  1.00  0.00    -0.310 A  
HETATM    5  C   UNK A   0     -10.594  11.799  65.493  1.00  0.00    -0.323 A  
HETATM    6  S   UNK A   0     -10.872  11.907  68.017  1.00  0.00    -0.230 SA 
HETATM    7  C   UNK A   0     -10.477  10.390  67.348  1.00  0.00    -0.249 A  
BRANCH   7   8
HETATM    8  C   UNK A   0     -10.423   9.203  68.183  1.00  0.00    -0.211 C  
HETATM    9  O   UNK A   0     -10.124   8.091  67.760  1.00  0.00    -0.172 OA 
ATOM     10  N   GLU A   1     -10.787   9.399  69.507  1.00  0.00    -0.288 N  
ATOM     11  H   GLU A   1     -11.064  10.332  69.815  1.00  0.00     0.000 HD 
BRANCH  10  12
ATOM     12  CA  GLU A   1     -10.781   8.297  70.473  1.00  0.00    -0.225 C  
ATOM     13  C   GLU A   1     -12.142   8.224  71.188  1.00  0.00    -0.252 C  
ATOM     14  O   GLU A   1     -12.810   9.404  71.218  1.00  0.00    -0.324 OA 
ATOM     15  OXT GLU A   1     -12.536   7.244  71.806  1.00  0.00    -0.326 OA 
BRANCH  12  16
ATOM     16  CB  GLU A   1      -9.654   8.517  71.489  1.00  0.00    -0.297 C  
BRANCH  16  17
ATOM     17  CG  GLU A   1      -8.866   7.240  71.781  1.00  0.00    -0.124 C  
ATOM     18  CD  GLU A   1      -7.598   7.158  70.969  1.00  0.00    -0.085 C  
ATOM     19  OE2 GLU A   1      -7.449   7.661  69.870  1.00  0.00    -0.079 OA 
ATOM     20  OE1 GLU A   1      -6.637   6.426  71.577  1.00  0.00    -0.052 OA 
ENDBRANCH  16  17
ENDBRANCH  12  16
ENDBRANCH  10  12
ENDBRANCH   7   8
ENDBRANCH   2   3
BRANCH   2  21
HETATM   21  C   UNK A   0     -11.732  14.668  67.613  1.00  0.00    -0.363 C  
BRANCH  21  22
HETATM   22  C   UNK A   0     -10.654  15.729  67.669  1.00  0.00    -0.301 A  
HETATM   23  C   UNK A   0      -8.316  16.378  67.533  1.00  0.00    -0.176 A  
HETATM   24  C   UNK A   0      -8.651  17.716  67.739  1.00  0.00    -0.228 A  
HETATM   25  C   UNK A   0      -9.303  15.389  67.500  1.00  0.00    -0.204 A  
HETATM   26  H   UNK A   0      -4.961  16.863  67.146  1.00  0.00     0.000 HD 
HETATM   27  C   UNK A   0      -9.988  18.058  67.936  1.00  0.00    -0.335 A  
HETATM   28  C   UNK A   0      -5.291  19.368  67.459  1.00  0.00    -0.170 C  
HETATM   29  N   UNK A   0      -7.632  18.669  67.770  1.00  0.00    -0.231 NA 
HETATM   30  N   UNK A   0      -5.945  17.066  67.319  1.00  0.00    -0.139 N  
HETATM   31  C   UNK A   0     -10.981  17.072  67.894  1.00  0.00    -0.226 A  
HETATM   32  C   UNK A   0      -6.878  16.049  67.345  1.00  0.00    -0.189 C  
HETATM   33  O   UNK A   0      -6.569  14.868  67.219  1.00  0.00    -0.297 OA 
HETATM   34  C   UNK A   0      -6.342  18.284  67.517  1.00  0.00    -0.181 C  
ENDBRANCH  21  22
ENDBRANCH   2  21
TORSDOF 7
ENDMDL
MODEL      153
REMARK 921   NORMALIZED FREE ENERGY PREDICTED BY IDOCK:   -5.40 KCAL/MOL
REMARK 922        TOTAL FREE ENERGY PREDICTED BY IDOCK:   -8.74 KCAL/MOL
REMARK 923 INTER-LIGAND FREE ENERGY PREDICTED BY IDOCK:   -7.20 KCAL/MOL
REMARK 924 INTRA-LIGAND FREE ENERGY PREDICTED BY IDOCK:   -1.54 KCAL/MOL
REMARK 927      BINDING AFFINITY PREDICTED BY RF-SCORE:    0.00 PKD
ROOT
HETATM    1  C   UNK A   0      -6.357  18.566  65.680  1.00  0.00    -0.273 C  
HETATM    2  N   UNK A   0      -6.622  17.646  66.782  1.00  0.00    -0.174 NA 
ENDROOT
BRANCH   2   3
HETATM    3  C   UNK A   0      -7.872  17.647  67.344  1.00  0.00    -0.205 A  
HETATM    4  C   UNK A   0      -9.677  18.044  68.783  1.00  0.00    -0.336 A  
HETATM    5  C   UNK A   0      -8.412  18.498  68.291  1.00  0.00    -0.341 A  
HETATM    6  S   UNK A   0      -9.042  16.484  66.876  1.00  0.00    -0.234 SA 
HETATM    7  C   UNK A   0     -10.096  16.890  68.151  1.00  0.00    -0.299 A  
BRANCH   7   8
HETATM    8  C   UNK A   0     -11.231  16.044  68.474  1.00  0.00    -0.374 C  
HETATM    9  O   UNK A   0     -12.285  16.058  67.846  1.00  0.00     0.397 OA 
ATOM     10  N   GLU A   1     -11.065  15.238  69.590  1.00  0.00    -0.257 N  
ATOM     11  H   GLU A   1     -10.187  15.280  70.109  1.00  0.00     0.000 HD 
BRANCH  10  12
ATOM     12  CA  GLU A   1     -12.121  14.328  70.041  1.00  0.00    -0.340 C  
ATOM     13  C   GLU A   1     -12.494  14.644  71.501  1.00  0.00    -0.346 C  
ATOM     14  O   GLU A   1     -11.498  15.238  72.204  1.00  0.00    -0.439 OA 
ATOM     15  OXT GLU A   1     -13.528  14.270  72.037  1.00  0.00    -0.347 OA 
BRANCH  12  16
ATOM     16  CB  GLU A   1     -11.633  12.880  69.914  1.00  0.00    -0.246 C  
BRANCH  16  17
ATOM     17  CG  GLU A   1     -10.726  12.667  68.702  1.00  0.00    -0.269 C  
ATOM     18  CD  GLU A   1     -11.344  11.740  67.687  1.00  0.00    -0.302 C  
ATOM     19  OE2 GLU A   1     -12.126  10.846  67.955  1.00  0.00    -0.563 OA 
ATOM     20  OE1 GLU A   1     -10.907  11.978  66.430  1.00  0.00    -0.256 OA 
ENDBRANCH  16  17
ENDBRANCH  12  16
ENDBRANCH  10  12
ENDBRANCH   7   8
ENDBRANCH   2   3
BRANCH   2  21
HETATM   21  C   UNK A   0      -5.495  17.428  67.710  1.00  0.00    -0.121 C  
BRANCH  21  22
HETATM   22  C   UNK A   0      -5.677  16.156  68.510  1.00  0.00    -0.109 A  
HETATM   23  C   UNK A   0      -5.715  13.730  68.647  1.00  0.00    -0.084 A  
HETATM   24  C   UNK A   0      -5.980  13.788  70.015  1.00  0.00    -0.144 A  
HETATM   25  C   UNK A   0      -5.566  14.899  67.895  1.00  0.00    -0.127 A  
HETATM   26  H   UNK A   0      -5.553  10.330  68.416  1.00  0.00     0.000 HD 
HETATM   27  C   UNK A   0      -6.120  15.033  70.627  1.00  0.00    -0.032 A  
HETATM   28  C   UNK A   0      -5.995  10.143  70.916  1.00  0.00    -0.070 C  
HETATM   29  N   UNK A   0      -6.127  12.595  70.723  1.00  0.00    -0.534 NA 
HETATM   30  N   UNK A   0      -5.680  11.258  68.818  1.00  0.00    -0.043 N  
HETATM   31  C   UNK A   0      -5.961  16.206  69.881  1.00  0.00    -0.182 A  
HETATM   32  C   UNK A   0      -5.592  12.385  68.025  1.00  0.00    -0.073 C  
HETATM   33  O   UNK A   0      -5.413  12.325  66.812  1.00  0.00    -0.329 OA 
HETATM   34  C   UNK A   0      -5.927  11.402  70.082  1.00  0.00    -0.152 C  
ENDBRANCH  21  22
ENDBRANCH   2  21
TORSDOF 7
ENDMDL
MODEL      154
REMARK 921   NORMALIZED FREE ENERGY PREDICTED BY IDOCK:   -5.37 KCAL/MOL
REMARK 922        TOTAL FREE ENERGY PREDICTED BY IDOCK:   -8.70 KCAL/MOL
REMARK 923 INTER-LIGAND FREE ENERGY PREDICTED BY IDOCK:   -7.80 KCAL/MOL
REMARK 924 INTRA-LIGAND FREE ENERGY PREDICTED BY IDOCK:   -0.90 KCAL/MOL
REMARK 927      BINDING AFFINITY PREDICTED BY RF-SCORE:    0.00 PKD
ROOT
HETATM    1  C   UNK A   0     -10.970  13.337  64.923  1.00  0.00    -0.330 C  
HETATM    2  N   UNK A   0      -9.986  13.150  65.985  1.00  0.00    -0.282 NA 
ENDROOT
BRANCH   2   3
HETATM    3  C   UNK A   0      -9.587  11.874  66.284  1.00  0.00    -0.229 A  
HETATM    4  C   UNK A   0      -9.440   9.538  66.368  1.00  0.00    -0.251 A  
HETATM    5  C   UNK A   0      -9.859  10.688  65.626  1.00  0.00    -0.307 A  
HETATM    6  S   UNK A   0      -8.580  11.567  67.639  1.00  0.00    -0.141 SA 
HETATM    7  C   UNK A   0      -8.804   9.881  67.544  1.00  0.00    -0.128 A  
BRANCH   7   8
HETATM    8  C   UNK A   0      -8.382   9.014  68.630  1.00  0.00    -0.123 C  
HETATM    9  O   UNK A   0      -7.217   8.675  68.812  1.00  0.00    -0.072 OA 
ATOM     10  N   GLU A   1      -9.407   8.544  69.438  1.00  0.00    -0.153 N  
ATOM     11  H   GLU A   1     -10.368   8.819  69.235  1.00  0.00     0.000 HD 
BRANCH  10  12
ATOM     12  CA  GLU A   1      -9.139   7.661  70.576  1.00  0.00    -0.151 C  
ATOM     13  C   GLU A   1     -10.103   6.461  70.543  1.00  0.00    -0.186 C  
ATOM     14  O   GLU A   1     -11.265   6.710  69.889  1.00  0.00    -0.311 OA 
ATOM     15  OXT GLU A   1      -9.924   5.424  71.168  1.00  0.00    -0.179 OA 
BRANCH  12  16
ATOM     16  CB  GLU A   1      -9.308   8.447  71.882  1.00  0.00    -0.313 C  
BRANCH  16  17
ATOM     17  CG  GLU A   1      -8.364   7.969  72.984  1.00  0.00    -0.243 C  
ATOM     18  CD  GLU A   1      -9.050   7.047  73.959  1.00  0.00    -0.208 C  
ATOM     19  OE2 GLU A   1     -10.237   7.086  74.227  1.00  0.00    -0.313 OA 
ATOM     20  OE1 GLU A   1      -8.196   6.178  74.545  1.00  0.00    -0.120 OA 
ENDBRANCH  16  17
ENDBRANCH  12  16
ENDBRANCH  10  12
ENDBRANCH   7   8
ENDBRANCH   2   3
BRANCH   2  21
HETATM   21  C   UNK A   0     -10.103  14.077  67.128  1.00  0.00    -0.259 C  
BRANCH  21  22
HETATM   22  C   UNK A   0      -9.227  15.297  66.940  1.00  0.00    -0.255 A  
HETATM   23  C   UNK A   0      -8.978  17.680  66.529  1.00  0.00    -0.283 A  
HETATM   24  C   UNK A   0      -7.591  17.576  66.629  1.00  0.00    -0.251 A  
HETATM   25  C   UNK A   0      -9.794  16.554  66.680  1.00  0.00    -0.279 A  
HETATM   26  H   UNK A   0      -9.092  21.056  66.052  1.00  0.00     0.000 HD 
HETATM   27  C   UNK A   0      -7.018  16.325  66.859  1.00  0.00    -0.226 A  
HETATM   28  C   UNK A   0      -6.554  21.162  66.226  1.00  0.00    -0.193 C  
HETATM   29  N   UNK A   0      -6.816  18.724  66.465  1.00  0.00    -0.198 NA 
HETATM   30  N   UNK A   0      -8.712  20.119  66.188  1.00  0.00    -0.560 N  
HETATM   31  C   UNK A   0      -7.832  15.198  67.021  1.00  0.00    -0.197 A  
HETATM   32  C   UNK A   0      -9.552  19.025  66.264  1.00  0.00    -0.335 C  
HETATM   33  O   UNK A   0     -10.767  19.116  66.120  1.00  0.00    -0.421 OA 
HETATM   34  C   UNK A   0      -7.434  19.935  66.294  1.00  0.00    -0.300 C  
ENDBRANCH  21  22
ENDBRANCH   2  21
TORSDOF 7
ENDMDL
MODEL      155
REMARK 921   NORMALIZED FREE ENERGY PREDICTED BY IDOCK:   -5.37 KCAL/MOL
REMARK 922        TOTAL FREE ENERGY PREDICTED BY IDOCK:   -8.70 KCAL/MOL
REMARK 923 INTER-LIGAND FREE ENERGY PREDICTED BY IDOCK:   -7.32 KCAL/MOL
REMARK 924 INTRA-LIGAND FREE ENERGY PREDICTED BY IDOCK:   -1.38 KCAL/MOL
REMARK 927      BINDING AFFINITY PREDICTED BY RF-SCORE:    0.00 PKD
ROOT
HETATM    1  C   UNK A   0     -10.098   3.326  71.713  1.00  0.00    -0.055 C  
HETATM    2  N   UNK A   0      -9.963   4.714  71.281  1.00  0.00    -0.196 NA 
ENDROOT
BRANCH   2   3
HETATM    3  C   UNK A   0      -9.329   4.967  70.093  1.00  0.00    -0.154 A  
HETATM    4  C   UNK A   0      -7.687   5.422  68.486  1.00  0.00    -0.084 A  
HETATM    5  C   UNK A   0      -7.988   4.863  69.769  1.00  0.00    -0.070 A  
HETATM    6  S   UNK A   0     -10.220   5.475  68.718  1.00  0.00    -0.194 SA 
HETATM    7  C   UNK A   0      -8.817   5.881  67.841  1.00  0.00    -0.105 A  
BRANCH   7   8
HETATM    8  C   UNK A   0      -8.907   6.645  66.609  1.00  0.00    -0.136 C  
HETATM    9  O   UNK A   0      -8.837   6.142  65.493  1.00  0.00    -0.138 OA 
ATOM     10  N   GLU A   1      -9.031   8.017  66.778  1.00  0.00    -0.137 N  
ATOM     11  H   GLU A   1      -9.050   8.404  67.722  1.00  0.00     0.000 HD 
BRANCH  10  12
ATOM     12  CA  GLU A   1      -9.134   8.922  65.630  1.00  0.00    -0.212 C  
ATOM     13  C   GLU A   1      -7.830   9.726  65.481  1.00  0.00    -0.120 C  
ATOM     14  O   GLU A   1      -7.136   9.863  66.638  1.00  0.00    -0.084 OA 
ATOM     15  OXT GLU A   1      -7.507  10.319  64.460  1.00  0.00    -0.143 OA 
BRANCH  12  16
ATOM     16  CB  GLU A   1     -10.325   9.866  65.832  1.00  0.00    -0.184 C  
BRANCH  16  17
ATOM     17  CG  GLU A   1      -9.902  11.253  66.313  1.00  0.00    -0.248 C  
ATOM     18  CD  GLU A   1     -10.739  11.732  67.472  1.00  0.00    -0.221 C  
ATOM     19  OE2 GLU A   1     -11.897  11.409  67.666  1.00  0.00    -0.609 OA 
ATOM     20  OE1 GLU A   1     -10.077  12.601  68.269  1.00  0.00    -0.224 OA 
ENDBRANCH  16  17
ENDBRANCH  12  16
ENDBRANCH  10  12
ENDBRANCH   7   8
ENDBRANCH   2   3
BRANCH   2  21
HETATM   21  C   UNK A   0      -9.731   5.693  72.361  1.00  0.00    -0.156 C  
BRANCH  21  22
HETATM   22  C   UNK A   0     -10.140   7.088  71.938  1.00  0.00    -0.198 A  
HETATM   23  C   UNK A   0     -11.765   8.894  71.896  1.00  0.00    -0.439 A  
HETATM   24  C   UNK A   0     -10.883   9.703  71.179  1.00  0.00    -0.334 A  
HETATM   25  C   UNK A   0     -11.404   7.597  72.273  1.00  0.00    -0.355 A  
HETATM   26  H   UNK A   0     -14.269  11.194  72.183  1.00  0.00     0.000 HD 
HETATM   27  C   UNK A   0      -9.636   9.194  70.819  1.00  0.00    -0.338 A  
HETATM   28  C   UNK A   0     -12.853  12.889  70.919  1.00  0.00    -0.203 C  
HETATM   29  N   UNK A   0     -11.289  10.988  70.819  1.00  0.00    -0.289 NA 
HETATM   30  N   UNK A   0     -13.382  10.772  71.911  1.00  0.00    -0.426 N  
HETATM   31  C   UNK A   0      -9.266   7.899  71.202  1.00  0.00    -0.165 A  
HETATM   32  C   UNK A   0     -13.093   9.464  72.246  1.00  0.00    -0.428 C  
HETATM   33  O   UNK A   0     -13.896   8.740  72.828  1.00  0.00    -0.361 OA 
HETATM   34  C   UNK A   0     -12.504  11.455  71.246  1.00  0.00    -0.318 C  
ENDBRANCH  21  22
ENDBRANCH   2  21
TORSDOF 7
ENDMDL
MODEL      156
REMARK 921   NORMALIZED FREE ENERGY PREDICTED BY IDOCK:   -5.37 KCAL/MOL
REMARK 922        TOTAL FREE ENERGY PREDICTED BY IDOCK:   -8.70 KCAL/MOL
REMARK 923 INTER-LIGAND FREE ENERGY PREDICTED BY IDOCK:   -7.46 KCAL/MOL
REMARK 924 INTRA-LIGAND FREE ENERGY PREDICTED BY IDOCK:   -1.23 KCAL/MOL
REMARK 927      BINDING AFFINITY PREDICTED BY RF-SCORE:    0.00 PKD
ROOT
HETATM    1  C   UNK A   0      -9.390   9.750  64.055  1.00  0.00    -0.155 C  
HETATM    2  N   UNK A   0      -9.403   9.331  65.454  1.00  0.00    -0.335 NA 
ENDROOT
BRANCH   2   3
HETATM    3  C   UNK A   0      -9.972  10.168  66.378  1.00  0.00    -0.234 A  
HETATM    4  C   UNK A   0     -11.360  11.038  68.052  1.00  0.00    -0.374 A  
HETATM    5  C   UNK A   0     -10.799   9.869  67.446  1.00  0.00    -0.293 A  
HETATM    6  S   UNK A   0      -9.678  11.857  66.328  1.00  0.00    -0.233 SA 
HETATM    7  C   UNK A   0     -10.897  12.199  67.468  1.00  0.00    -0.243 A  
BRANCH   7   8
HETATM    8  C   UNK A   0     -11.343  13.563  67.690  1.00  0.00    -0.296 C  
HETATM    9  O   UNK A   0     -12.306  14.062  67.117  1.00  0.00    -0.373 OA 
ATOM     10  N   GLU A   1     -10.566  14.298  68.574  1.00  0.00    -0.250 N  
ATOM     11  H   GLU A   1      -9.752  13.861  69.005  1.00  0.00     0.000 HD 
BRANCH  10  12
ATOM     12  CA  GLU A   1     -10.891  15.689  68.902  1.00  0.00    -0.252 C  
ATOM     13  C   GLU A   1      -9.784  16.621  68.373  1.00  0.00    -0.243 C  
ATOM     14  O   GLU A   1      -8.578  16.016  68.238  1.00  0.00    -0.171 OA 
ATOM     15  OXT GLU A   1      -9.922  17.828  68.225  1.00  0.00    -0.314 OA 
BRANCH  12  16
ATOM     16  CB  GLU A   1     -11.031  15.835  70.422  1.00  0.00    -0.369 C  
BRANCH  16  17
ATOM     17  CG  GLU A   1     -12.488  15.803  70.884  1.00  0.00    -0.451 C  
ATOM     18  CD  GLU A   1     -12.914  14.425  71.321  1.00  0.00    -0.344 C  
ATOM     19  OE2 GLU A   1     -12.451  13.388  70.882  1.00  0.00    -0.361 OA 
ATOM     20  OE1 GLU A   1     -13.907  14.452  72.239  1.00  0.00    -0.413 OA 
ENDBRANCH  16  17
ENDBRANCH  12  16
ENDBRANCH  10  12
ENDBRANCH   7   8
ENDBRANCH   2   3
BRANCH   2  21
HETATM   21  C   UNK A   0      -8.211   8.585  65.902  1.00  0.00    -0.125 C  
BRANCH  21  22
HETATM   22  C   UNK A   0      -8.573   7.532  66.927  1.00  0.00    -0.124 A  
HETATM   23  C   UNK A   0      -8.411   6.623  69.175  1.00  0.00    -0.124 A  
HETATM   24  C   UNK A   0      -9.281   5.584  68.843  1.00  0.00    -0.119 A  
HETATM   25  C   UNK A   0      -8.054   7.589  68.230  1.00  0.00    -0.124 A  
HETATM   26  H   UNK A   0      -8.003   5.769  72.453  1.00  0.00     0.000 HD 
HETATM   27  C   UNK A   0      -9.778   5.505  67.543  1.00  0.00    -0.140 A  
HETATM   28  C   UNK A   0      -9.592   3.806  72.135  1.00  0.00    -0.212 C  
HETATM   29  N   UNK A   0      -9.604   4.640  69.817  1.00  0.00    -0.169 NA 
HETATM   30  N   UNK A   0      -8.318   5.729  71.484  1.00  0.00    -0.126 N  
HETATM   31  C   UNK A   0      -9.432   6.475  66.596  1.00  0.00    -0.193 A  
HETATM   32  C   UNK A   0      -7.886   6.665  70.565  1.00  0.00    -0.106 C  
HETATM   33  O   UNK A   0      -7.077   7.543  70.850  1.00  0.00    -0.057 OA 
HETATM   34  C   UNK A   0      -9.129   4.797  71.093  1.00  0.00    -0.137 C  
ENDBRANCH  21  22
ENDBRANCH   2  21
TORSDOF 7
ENDMDL
MODEL      157
REMARK 921   NORMALIZED FREE ENERGY PREDICTED BY IDOCK:   -5.36 KCAL/MOL
REMARK 922        TOTAL FREE ENERGY PREDICTED BY IDOCK:   -8.68 KCAL/MOL
REMARK 923 INTER-LIGAND FREE ENERGY PREDICTED BY IDOCK:   -8.10 KCAL/MOL
REMARK 924 INTRA-LIGAND FREE ENERGY PREDICTED BY IDOCK:   -0.58 KCAL/MOL
REMARK 927      BINDING AFFINITY PREDICTED BY RF-SCORE:    0.00 PKD
ROOT
HETATM    1  C   UNK A   0     -10.707   9.558  67.396  1.00  0.00    -0.227 C  
HETATM    2  N   UNK A   0     -10.443  10.881  67.953  1.00  0.00    -0.184 NA 
ENDROOT
BRANCH   2   3
HETATM    3  C   UNK A   0      -9.260  11.497  67.635  1.00  0.00    -0.171 A  
HETATM    4  C   UNK A   0      -6.987  11.916  67.262  1.00  0.00    -0.145 A  
HETATM    5  C   UNK A   0      -8.032  10.940  67.328  1.00  0.00    -0.123 A  
HETATM    6  S   UNK A   0      -9.160  13.207  67.549  1.00  0.00    -0.217 SA 
HETATM    7  C   UNK A   0      -7.459  13.198  67.459  1.00  0.00    -0.160 A  
BRANCH   7   8
HETATM    8  C   UNK A   0      -6.701  14.426  67.623  1.00  0.00    -0.169 C  
HETATM    9  O   UNK A   0      -5.600  14.475  68.160  1.00  0.00    -0.107 OA 
ATOM     10  N   GLU A   1      -7.336  15.572  67.166  1.00  0.00    -0.211 N  
ATOM     11  H   GLU A   1      -8.267  15.498  66.756  1.00  0.00     0.000 HD 
BRANCH  10  12
ATOM     12  CA  GLU A   1      -6.697  16.888  67.260  1.00  0.00    -0.169 C  
ATOM     13  C   GLU A   1      -6.972  17.503  68.645  1.00  0.00    -0.232 C  
ATOM     14  O   GLU A   1      -8.101  17.039  69.235  1.00  0.00    -0.116 OA 
ATOM     15  OXT GLU A   1      -6.330  18.431  69.119  1.00  0.00    -0.234 OA 
BRANCH  12  16
ATOM     16  CB  GLU A   1      -7.241  17.798  66.152  1.00  0.00    -0.346 C  
BRANCH  16  17
ATOM     17  CG  GLU A   1      -8.716  18.149  66.349  1.00  0.00    -0.252 C  
ATOM     18  CD  GLU A   1      -8.922  19.624  66.580  1.00  0.00    -0.369 C  
ATOM     19  OE2 GLU A   1      -8.105  20.362  67.099  1.00  0.00    -0.329 OA 
ATOM     20  OE1 GLU A   1     -10.142  20.048  66.180  1.00  0.00    -0.454 OA 
ENDBRANCH  16  17
ENDBRANCH  12  16
ENDBRANCH  10  12
ENDBRANCH   7   8
ENDBRANCH   2   3
BRANCH   2  21
HETATM   21  C   UNK A   0     -10.937  11.100  69.327  1.00  0.00    -0.247 C  
BRANCH  21  22
HETATM   22  C   UNK A   0     -10.762   9.863  70.181  1.00  0.00    -0.361 A  
HETATM   23  C   UNK A   0     -11.699   7.956  71.361  1.00  0.00    -0.311 A  
HETATM   24  C   UNK A   0     -10.425   7.536  71.742  1.00  0.00    -0.193 A  
HETATM   25  C   UNK A   0     -11.873   9.109  70.589  1.00  0.00    -0.222 A  
HETATM   26  H   UNK A   0     -13.412   5.364  72.770  1.00  0.00     0.000 HD 
HETATM   27  C   UNK A   0      -9.319   8.295  71.364  1.00  0.00    -0.223 A  
HETATM   28  C   UNK A   0     -11.217   4.352  73.567  1.00  0.00    -0.375 C  
HETATM   29  N   UNK A   0     -10.301   6.383  72.517  1.00  0.00    -0.188 NA 
HETATM   30  N   UNK A   0     -12.634   5.965  72.502  1.00  0.00    -0.431 N  
HETATM   31  C   UNK A   0      -9.487   9.445  70.584  1.00  0.00    -0.325 A  
HETATM   32  C   UNK A   0     -12.857   7.132  71.798  1.00  0.00    -0.330 C  
HETATM   33  O   UNK A   0     -13.985   7.525  71.513  1.00  0.00    -0.408 OA 
HETATM   34  C   UNK A   0     -11.417   5.647  72.814  1.00  0.00    -0.274 C  
ENDBRANCH  21  22
ENDBRANCH   2  21
TORSDOF 7
ENDMDL
MODEL      158
REMARK 921   NORMALIZED FREE ENERGY PREDICTED BY IDOCK:   -5.35 KCAL/MOL
REMARK 922        TOTAL FREE ENERGY PREDICTED BY IDOCK:   -8.67 KCAL/MOL
REMARK 923 INTER-LIGAND FREE ENERGY PREDICTED BY IDOCK:   -7.96 KCAL/MOL
REMARK 924 INTRA-LIGAND FREE ENERGY PREDICTED BY IDOCK:   -0.71 KCAL/MOL
REMARK 927      BINDING AFFINITY PREDICTED BY RF-SCORE:    0.00 PKD
ROOT
HETATM    1  C   UNK A   0     -14.391   7.311  71.640  1.00  0.00    -0.421 C  
HETATM    2  N   UNK A   0     -13.187   8.129  71.533  1.00  0.00    -0.425 NA 
ENDROOT
BRANCH   2   3
HETATM    3  C   UNK A   0     -11.978   7.495  71.414  1.00  0.00    -0.309 A  
HETATM    4  C   UNK A   0      -9.761   6.824  71.761  1.00  0.00    -0.164 A  
HETATM    5  C   UNK A   0     -10.950   7.379  72.333  1.00  0.00    -0.319 A  
HETATM    6  S   UNK A   0     -11.562   6.666  69.971  1.00  0.00    -0.304 SA 
HETATM    7  C   UNK A   0      -9.935   6.474  70.437  1.00  0.00    -0.179 A  
BRANCH   7   8
HETATM    8  C   UNK A   0      -8.936   6.035  69.479  1.00  0.00    -0.131 C  
HETATM    9  O   UNK A   0      -8.398   4.933  69.519  1.00  0.00    -0.082 OA 
ATOM     10  N   GLU A   1      -8.583   6.978  68.524  1.00  0.00    -0.124 N  
ATOM     11  H   GLU A   1      -9.026   7.897  68.544  1.00  0.00     0.000 HD 
BRANCH  10  12
ATOM     12  CA  GLU A   1      -7.590   6.682  67.488  1.00  0.00    -0.105 C  
ATOM     13  C   GLU A   1      -6.177   6.994  68.017  1.00  0.00    -0.035 C  
ATOM     14  O   GLU A   1      -6.156   7.923  69.005  1.00  0.00    -0.037 OA 
ATOM     15  OXT GLU A   1      -5.149   6.569  67.508  1.00  0.00    -0.004 OA 
BRANCH  12  16
ATOM     16  CB  GLU A   1      -7.891   7.519  66.240  1.00  0.00    -0.102 C  
BRANCH  16  17
ATOM     17  CG  GLU A   1      -7.373   6.872  64.957  1.00  0.00    -0.086 C  
ATOM     18  CD  GLU A   1      -6.416   7.769  64.214  1.00  0.00    -0.056 C  
ATOM     19  OE2 GLU A   1      -6.446   8.986  64.246  1.00  0.00    -0.078 OA 
ATOM     20  OE1 GLU A   1      -5.526   7.078  63.466  1.00  0.00    -0.031 OA 
ENDBRANCH  16  17
ENDBRANCH  12  16
ENDBRANCH  10  12
ENDBRANCH   7   8
ENDBRANCH   2   3
BRANCH   2  21
HETATM   21  C   UNK A   0     -13.191   9.372  72.330  1.00  0.00    -0.446 C  
BRANCH  21  22
HETATM   22  C   UNK A   0     -12.811  10.570  71.487  1.00  0.00    -0.568 A  
HETATM   23  C   UNK A   0     -12.676  12.975  71.168  1.00  0.00    -0.372 A  
HETATM   24  C   UNK A   0     -12.066  12.800  69.926  1.00  0.00    -0.259 A  
HETATM   25  C   UNK A   0     -13.050  11.875  71.945  1.00  0.00    -0.474 A  
HETATM   26  H   UNK A   0     -12.570  16.385  71.187  1.00  0.00     0.000 HD 
HETATM   27  C   UNK A   0     -11.851  11.507  69.452  1.00  0.00    -0.417 A  
HETATM   28  C   UNK A   0     -11.411  16.358  68.921  1.00  0.00    -0.272 C  
HETATM   29  N   UNK A   0     -11.716  13.928  69.183  1.00  0.00    -0.313 NA 
HETATM   30  N   UNK A   0     -12.461  15.425  70.863  1.00  0.00    -0.384 N  
HETATM   31  C   UNK A   0     -12.214  10.402  70.230  1.00  0.00    -0.349 A  
HETATM   32  C   UNK A   0     -12.907  14.368  71.633  1.00  0.00    -0.343 C  
HETATM   33  O   UNK A   0     -13.493  14.531  72.699  1.00  0.00    -0.437 OA 
HETATM   34  C   UNK A   0     -11.902  15.174  69.721  1.00  0.00    -0.333 C  
ENDBRANCH  21  22
ENDBRANCH   2  21
TORSDOF 7
ENDMDL
MODEL      159
REMARK 921   NORMALIZED FREE ENERGY PREDICTED BY IDOCK:   -5.34 KCAL/MOL
REMARK 922        TOTAL FREE ENERGY PREDICTED BY IDOCK:   -8.65 KCAL/MOL
REMARK 923 INTER-LIGAND FREE ENERGY PREDICTED BY IDOCK:   -6.93 KCAL/MOL
REMARK 924 INTRA-LIGAND FREE ENERGY PREDICTED BY IDOCK:   -1.72 KCAL/MOL
REMARK 927      BINDING AFFINITY PREDICTED BY RF-SCORE:    0.00 PKD
ROOT
HETATM    1  C   UNK A   0      -8.234   6.244  64.460  1.00  0.00    -0.062 C  
HETATM    2  N   UNK A   0      -8.011   6.932  65.728  1.00  0.00    -0.109 NA 
ENDROOT
BRANCH   2   3
HETATM    3  C   UNK A   0      -7.938   8.301  65.722  1.00  0.00    -0.099 A  
HETATM    4  C   UNK A   0      -7.130  10.497  65.801  1.00  0.00    -0.124 A  
HETATM    5  C   UNK A   0      -6.845   9.124  65.517  1.00  0.00    -0.073 A  
HETATM    6  S   UNK A   0      -9.342   9.253  65.973  1.00  0.00    -0.241 SA 
HETATM    7  C   UNK A   0      -8.449  10.692  66.156  1.00  0.00    -0.159 A  
BRANCH   7   8
HETATM    8  C   UNK A   0      -9.081  11.898  66.663  1.00  0.00    -0.203 C  
HETATM    9  O   UNK A   0      -8.490  12.963  66.803  1.00  0.00    -0.137 OA 
ATOM     10  N   GLU A   1     -10.410  11.752  67.034  1.00  0.00    -0.210 N  
ATOM     11  H   GLU A   1     -10.858  10.841  66.937  1.00  0.00     0.000 HD 
BRANCH  10  12
ATOM     12  CA  GLU A   1     -11.183  12.879  67.563  1.00  0.00    -0.290 C  
ATOM     13  C   GLU A   1     -11.629  12.574  69.005  1.00  0.00    -0.314 C  
ATOM     14  O   GLU A   1     -11.721  11.249  69.281  1.00  0.00    -0.275 OA 
ATOM     15  OXT GLU A   1     -12.013  13.426  69.795  1.00  0.00    -0.309 OA 
BRANCH  12  16
ATOM     16  CB  GLU A   1     -12.402  13.125  66.666  1.00  0.00    -0.207 C  
BRANCH  16  17
ATOM     17  CG  GLU A   1     -12.062  13.945  65.422  1.00  0.00    -0.423 C  
ATOM     18  CD  GLU A   1     -12.132  13.120  64.162  1.00  0.00    -0.430 C  
ATOM     19  OE2 GLU A   1     -11.920  11.922  64.110  1.00  0.00    -0.353 OA 
ATOM     20  OE1 GLU A   1     -12.422  13.860  63.069  1.00  0.00    -0.689 OA 
ENDBRANCH  16  17
ENDBRANCH  12  16
ENDBRANCH  10  12
ENDBRANCH   7   8
ENDBRANCH   2   3
BRANCH   2  21
HETATM   21  C   UNK A   0      -7.116   6.240  66.675  1.00  0.00    -0.069 C  
BRANCH  21  22
HETATM   22  C   UNK A   0      -7.554   6.456  68.107  1.00  0.00    -0.103 A  
HETATM   23  C   UNK A   0      -9.298   6.529  69.798  1.00  0.00    -0.149 A  
HETATM   24  C   UNK A   0      -8.360   6.825  70.787  1.00  0.00    -0.128 A  
HETATM   25  C   UNK A   0      -8.906   6.348  68.469  1.00  0.00    -0.119 A  
HETATM   26  H   UNK A   0     -12.018   6.406  71.854  1.00  0.00     0.000 HD 
HETATM   27  C   UNK A   0      -7.019   6.962  70.431  1.00  0.00    -0.063 A  
HETATM   28  C   UNK A   0     -10.525   6.907  73.854  1.00  0.00    -0.352 C  
HETATM   29  N   UNK A   0      -8.798   7.003  72.099  1.00  0.00    -0.130 NA 
HETATM   30  N   UNK A   0     -11.054   6.530  71.546  1.00  0.00    -0.254 N  
HETATM   31  C   UNK A   0      -6.620   6.771  69.103  1.00  0.00    -0.048 A  
HETATM   32  C   UNK A   0     -10.721   6.409  70.212  1.00  0.00    -0.266 C  
HETATM   33  O   UNK A   0     -11.560   6.204  69.339  1.00  0.00    -0.372 OA 
HETATM   34  C   UNK A   0     -10.120   6.804  72.401  1.00  0.00    -0.170 C  
ENDBRANCH  21  22
ENDBRANCH   2  21
TORSDOF 7
ENDMDL
MODEL      160
REMARK 921   NORMALIZED FREE ENERGY PREDICTED BY IDOCK:   -5.33 KCAL/MOL
REMARK 922        TOTAL FREE ENERGY PREDICTED BY IDOCK:   -8.64 KCAL/MOL
REMARK 923 INTER-LIGAND FREE ENERGY PREDICTED BY IDOCK:   -7.76 KCAL/MOL
REMARK 924 INTRA-LIGAND FREE ENERGY PREDICTED BY IDOCK:   -0.89 KCAL/MOL
REMARK 927      BINDING AFFINITY PREDICTED BY RF-SCORE:    0.00 PKD
ROOT
HETATM    1  C   UNK A   0      -8.400   6.732  70.278  1.00  0.00    -0.134 C  
HETATM    2  N   UNK A   0      -7.863   7.818  69.463  1.00  0.00    -0.109 NA 
ENDROOT
BRANCH   2   3
HETATM    3  C   UNK A   0      -8.710   8.828  69.086  1.00  0.00    -0.136 A  
HETATM    4  C   UNK A   0     -10.486  10.018  68.130  1.00  0.00    -0.250 A  
HETATM    5  C   UNK A   0     -10.011   8.760  68.622  1.00  0.00    -0.197 A  
HETATM    6  S   UNK A   0      -8.210  10.466  69.175  1.00  0.00    -0.156 SA 
HETATM    7  C   UNK A   0      -9.554  11.024  68.289  1.00  0.00    -0.171 A  
BRANCH   7   8
HETATM    8  C   UNK A   0      -9.595  12.383  67.781  1.00  0.00    -0.202 C  
HETATM    9  O   UNK A   0      -8.593  13.034  67.508  1.00  0.00    -0.169 OA 
ATOM     10  N   GLU A   1     -10.866  12.929  67.666  1.00  0.00    -0.228 N  
ATOM     11  H   GLU A   1     -11.675  12.369  67.936  1.00  0.00     0.000 HD 
BRANCH  10  12
ATOM     12  CA  GLU A   1     -11.071  14.291  67.166  1.00  0.00    -0.311 C  
ATOM     13  C   GLU A   1     -11.507  15.210  68.322  1.00  0.00    -0.336 C  
ATOM     14  O   GLU A   1     -12.116  14.556  69.342  1.00  0.00    -0.308 OA 
ATOM     15  OXT GLU A   1     -11.454  16.432  68.279  1.00  0.00    -0.312 OA 
BRANCH  12  16
ATOM     16  CB  GLU A   1     -12.137  14.273  66.065  1.00  0.00    -0.423 C  
BRANCH  16  17
ATOM     17  CG  GLU A   1     -12.314  12.891  65.438  1.00  0.00    -0.538 C  
ATOM     18  CD  GLU A   1     -12.366  12.952  63.933  1.00  0.00    -0.396 C  
ATOM     19  OE2 GLU A   1     -12.777  13.904  63.295  1.00  0.00    -0.775 OA 
ATOM     20  OE1 GLU A   1     -11.938  11.809  63.350  1.00  0.00    -0.474 OA 
ENDBRANCH  16  17
ENDBRANCH  12  16
ENDBRANCH  10  12
ENDBRANCH   7   8
ENDBRANCH   2   3
BRANCH   2  21
HETATM   21  C   UNK A   0      -6.846   7.421  68.470  1.00  0.00    -0.073 C  
BRANCH  21  22
HETATM   22  C   UNK A   0      -7.478   6.757  67.266  1.00  0.00    -0.096 A  
HETATM   23  C   UNK A   0      -8.678   4.895  66.264  1.00  0.00    -0.115 A  
HETATM   24  C   UNK A   0      -8.690   5.539  65.026  1.00  0.00    -0.094 A  
HETATM   25  C   UNK A   0      -8.077   5.492  67.376  1.00  0.00    -0.101 A  
HETATM   26  H   UNK A   0     -10.459   2.149  65.301  1.00  0.00     0.000 HD 
HETATM   27  C   UNK A   0      -8.072   6.783  64.902  1.00  0.00    -0.112 A  
HETATM   28  C   UNK A   0     -10.662   3.109  62.953  1.00  0.00    -0.198 C  
HETATM   29  N   UNK A   0      -9.295   4.903  63.943  1.00  0.00    -0.357 NA 
HETATM   30  N   UNK A   0      -9.968   3.041  65.246  1.00  0.00    -0.370 N  
HETATM   31  C   UNK A   0      -7.479   7.389  66.016  1.00  0.00    -0.083 A  
HETATM   32  C   UNK A   0      -9.329   3.562  66.354  1.00  0.00    -0.171 C  
HETATM   33  O   UNK A   0      -9.275   2.965  67.425  1.00  0.00    -0.170 OA 
HETATM   34  C   UNK A   0      -9.933   3.706  64.134  1.00  0.00    -0.192 C  
ENDBRANCH  21  22
ENDBRANCH   2  21
TORSDOF 7
ENDMDL
MODEL      161
REMARK 921   NORMALIZED FREE ENERGY PREDICTED BY IDOCK:   -5.33 KCAL/MOL
REMARK 922        TOTAL FREE ENERGY PREDICTED BY IDOCK:   -8.64 KCAL/MOL
REMARK 923 INTER-LIGAND FREE ENERGY PREDICTED BY IDOCK:   -7.92 KCAL/MOL
REMARK 924 INTRA-LIGAND FREE ENERGY PREDICTED BY IDOCK:   -0.72 KCAL/MOL
REMARK 927      BINDING AFFINITY PREDICTED BY RF-SCORE:    0.00 PKD
ROOT
HETATM    1  C   UNK A   0      -7.723  10.672  65.495  1.00  0.00    -0.083 C  
HETATM    2  N   UNK A   0      -7.823  10.226  66.881  1.00  0.00    -0.111 NA 
ENDROOT
BRANCH   2   3
HETATM    3  C   UNK A   0      -8.774   9.290  67.197  1.00  0.00    -0.127 A  
HETATM    4  C   UNK A   0     -10.658   7.902  67.118  1.00  0.00    -0.383 A  
HETATM    5  C   UNK A   0      -9.690   8.654  66.379  1.00  0.00    -0.333 A  
HETATM    6  S   UNK A   0      -8.943   8.724  68.808  1.00  0.00    -0.138 SA 
HETATM    7  C   UNK A   0     -10.415   7.935  68.476  1.00  0.00    -0.167 A  
BRANCH   7   8
HETATM    8  C   UNK A   0     -11.249   7.435  69.556  1.00  0.00     0.008 C  
HETATM    9  O   UNK A   0     -11.783   6.332  69.544  1.00  0.00    -0.360 OA 
ATOM     10  N   GLU A   1     -11.447   8.324  70.603  1.00  0.00    -0.360 N  
ATOM     11  H   GLU A   1     -11.016   9.247  70.562  1.00  0.00     0.000 HD 
BRANCH  10  12
ATOM     12  CA  GLU A   1     -12.263   7.964  71.766  1.00  0.00    -0.310 C  
ATOM     13  C   GLU A   1     -13.320   9.056  72.018  1.00  0.00    -0.438 C  
ATOM     14  O   GLU A   1     -12.969  10.277  71.544  1.00  0.00    -0.381 OA 
ATOM     15  OXT GLU A   1     -14.317   8.893  72.708  1.00  0.00    -0.600 OA 
BRANCH  12  16
ATOM     16  CB  GLU A   1     -11.358   7.802  72.992  1.00  0.00    -0.331 C  
BRANCH  16  17
ATOM     17  CG  GLU A   1     -10.196   6.840  72.744  1.00  0.00    -0.210 C  
ATOM     18  CD  GLU A   1     -10.667   5.424  72.533  1.00  0.00    -0.237 C  
ATOM     19  OE2 GLU A   1     -11.679   4.954  73.019  1.00  0.00    -0.278 OA 
ATOM     20  OE1 GLU A   1      -9.820   4.702  71.764  1.00  0.00    -0.167 OA 
ENDBRANCH  16  17
ENDBRANCH  12  16
ENDBRANCH  10  12
ENDBRANCH   7   8
ENDBRANCH   2   3
BRANCH   2  21
HETATM   21  C   UNK A   0      -7.571  11.264  67.901  1.00  0.00    -0.100 C  
BRANCH  21  22
HETATM   22  C   UNK A   0      -8.355  12.525  67.609  1.00  0.00    -0.172 A  
HETATM   23  C   UNK A   0      -8.436  14.923  67.220  1.00  0.00    -0.229 A  
HETATM   24  C   UNK A   0      -9.816  14.869  67.027  1.00  0.00    -0.237 A  
HETATM   25  C   UNK A   0      -7.706  13.766  67.511  1.00  0.00    -0.187 A  
HETATM   26  H   UNK A   0      -8.079  18.261  66.614  1.00  0.00     0.000 HD 
HETATM   27  C   UNK A   0     -10.471  13.644  67.150  1.00  0.00    -0.264 A  
HETATM   28  C   UNK A   0     -10.580  18.445  66.174  1.00  0.00    -0.346 C  
HETATM   29  N   UNK A   0     -10.503  16.049  66.744  1.00  0.00    -0.307 NA 
HETATM   30  N   UNK A   0      -8.523  17.353  66.745  1.00  0.00    -0.241 N  
HETATM   31  C   UNK A   0      -9.744  12.482  67.431  1.00  0.00    -0.194 A  
HETATM   32  C   UNK A   0      -7.774  16.249  67.099  1.00  0.00    -0.188 C  
HETATM   33  O   UNK A   0      -6.569  16.314  67.322  1.00  0.00    -0.163 OA 
HETATM   34  C   UNK A   0      -9.801  17.215  66.582  1.00  0.00    -0.289 C  
ENDBRANCH  21  22
ENDBRANCH   2  21
TORSDOF 7
ENDMDL
MODEL      162
REMARK 921   NORMALIZED FREE ENERGY PREDICTED BY IDOCK:   -5.33 KCAL/MOL
REMARK 922        TOTAL FREE ENERGY PREDICTED BY IDOCK:   -8.64 KCAL/MOL
REMARK 923 INTER-LIGAND FREE ENERGY PREDICTED BY IDOCK:   -7.54 KCAL/MOL
REMARK 924 INTRA-LIGAND FREE ENERGY PREDICTED BY IDOCK:   -1.09 KCAL/MOL
REMARK 927      BINDING AFFINITY PREDICTED BY RF-SCORE:    0.00 PKD
ROOT
HETATM    1  C   UNK A   0      -9.968  14.468  69.283  1.00  0.00    -0.038 C  
HETATM    2  N   UNK A   0     -10.674  13.224  68.991  1.00  0.00    -0.407 NA 
ENDROOT
BRANCH   2   3
HETATM    3  C   UNK A   0     -10.551  12.686  67.736  1.00  0.00    -0.220 A  
HETATM    4  C   UNK A   0     -11.042  11.827  65.614  1.00  0.00    -0.340 A  
HETATM    5  C   UNK A   0     -11.456  12.675  66.690  1.00  0.00    -0.409 A  
HETATM    6  S   UNK A   0      -9.103  11.899  67.260  1.00  0.00    -0.184 SA 
HETATM    7  C   UNK A   0      -9.803  11.263  65.843  1.00  0.00    -0.232 A  
BRANCH   7   8
HETATM    8  C   UNK A   0      -9.121  10.238  65.074  1.00  0.00    -0.207 C  
HETATM    9  O   UNK A   0      -8.898  10.330  63.871  1.00  0.00    -0.184 OA 
ATOM     10  N   GLU A   1      -8.772   9.102  65.789  1.00  0.00    -0.154 N  
ATOM     11  H   GLU A   1      -9.005   9.046  66.781  1.00  0.00     0.000 HD 
BRANCH  10  12
ATOM     12  CA  GLU A   1      -8.076   7.981  65.152  1.00  0.00    -0.143 C  
ATOM     13  C   GLU A   1      -8.890   6.687  65.341  1.00  0.00     0.085 C  
ATOM     14  O   GLU A   1      -9.701   6.704  66.428  1.00  0.00    -0.153 OA 
ATOM     15  OXT GLU A   1      -8.725   5.674  64.674  1.00  0.00    -0.091 OA 
BRANCH  12  16
ATOM     16  CB  GLU A   1      -6.681   7.830  65.770  1.00  0.00    -0.046 C  
BRANCH  16  17
ATOM     17  CG  GLU A   1      -5.870   9.125  65.717  1.00  0.00    -0.050 C  
ATOM     18  CD  GLU A   1      -5.451   9.475  64.312  1.00  0.00    -0.063 C  
ATOM     19  OE2 GLU A   1      -5.251   8.661  63.429  1.00  0.00    -0.060 OA 
ATOM     20  OE1 GLU A   1      -5.281  10.805  64.135  1.00  0.00    -0.162 OA 
ENDBRANCH  16  17
ENDBRANCH  12  16
ENDBRANCH  10  12
ENDBRANCH   7   8
ENDBRANCH   2   3
BRANCH   2  21
HETATM   21  C   UNK A   0     -11.996  13.079  69.632  1.00  0.00    -0.302 C  
BRANCH  21  22
HETATM   22  C   UNK A   0     -12.118  11.753  70.350  1.00  0.00    -0.440 A  
HETATM   23  C   UNK A   0     -11.510   9.412  70.589  1.00  0.00    -0.344 A  
HETATM   24  C   UNK A   0     -12.322   9.292  71.717  1.00  0.00    -0.379 A  
HETATM   25  C   UNK A   0     -11.407  10.627  69.906  1.00  0.00    -0.386 A  
HETATM   26  H   UNK A   0     -10.297   6.223  70.630  1.00  0.00     0.000 HD 
HETATM   27  C   UNK A   0     -13.053  10.398  72.148  1.00  0.00    -0.427 A  
HETATM   28  C   UNK A   0     -11.659   5.736  72.724  1.00  0.00    -0.266 C  
HETATM   29  N   UNK A   0     -12.399   8.058  72.363  1.00  0.00    -0.524 NA 
HETATM   30  N   UNK A   0     -10.840   7.046  70.892  1.00  0.00    -0.236 N  
HETATM   31  C   UNK A   0     -12.945  11.619  71.473  1.00  0.00    -0.463 A  
HETATM   32  C   UNK A   0     -10.760   8.207  70.148  1.00  0.00    -0.243 C  
HETATM   33  O   UNK A   0     -10.087   8.289  69.125  1.00  0.00    -0.192 OA 
HETATM   34  C   UNK A   0     -11.617   7.020  71.928  1.00  0.00    -0.284 C  
ENDBRANCH  21  22
ENDBRANCH   2  21
TORSDOF 7
ENDMDL
MODEL      163
REMARK 921   NORMALIZED FREE ENERGY PREDICTED BY IDOCK:   -5.31 KCAL/MOL
REMARK 922        TOTAL FREE ENERGY PREDICTED BY IDOCK:   -8.62 KCAL/MOL
REMARK 923 INTER-LIGAND FREE ENERGY PREDICTED BY IDOCK:   -7.37 KCAL/MOL
REMARK 924 INTRA-LIGAND FREE ENERGY PREDICTED BY IDOCK:   -1.25 KCAL/MOL
REMARK 927      BINDING AFFINITY PREDICTED BY RF-SCORE:    0.00 PKD
ROOT
HETATM    1  C   UNK A   0     -12.228  15.449  64.303  1.00  0.00    -0.126 C  
HETATM    2  N   UNK A   0     -12.029  14.409  65.307  1.00  0.00    -0.378 NA 
ENDROOT
BRANCH   2   3
HETATM    3  C   UNK A   0     -10.863  14.414  66.028  1.00  0.00    -0.309 A  
HETATM    4  C   UNK A   0      -8.627  14.700  66.661  1.00  0.00    -0.129 A  
HETATM    5  C   UNK A   0      -9.698  15.128  65.813  1.00  0.00    -0.379 A  
HETATM    6  S   UNK A   0     -10.703  13.452  67.438  1.00  0.00    -0.264 SA 
HETATM    7  C   UNK A   0      -9.023  13.713  67.541  1.00  0.00    -0.209 A  
BRANCH   7   8
HETATM    8  C   UNK A   0      -8.202  12.921  68.440  1.00  0.00    -0.121 C  
HETATM    9  O   UNK A   0      -7.213  13.359  69.017  1.00  0.00    -0.094 OA 
ATOM     10  N   GLU A   1      -8.586  11.594  68.569  1.00  0.00    -0.228 N  
ATOM     11  H   GLU A   1      -9.394  11.255  68.045  1.00  0.00     0.000 HD 
BRANCH  10  12
ATOM     12  CA  GLU A   1      -7.858  10.668  69.441  1.00  0.00    -0.121 C  
ATOM     13  C   GLU A   1      -6.790   9.915  68.625  1.00  0.00    -0.051 C  
ATOM     14  O   GLU A   1      -7.076   9.824  67.303  1.00  0.00    -0.084 OA 
ATOM     15  OXT GLU A   1      -5.845   9.321  69.125  1.00  0.00    -0.036 OA 
BRANCH  12  16
ATOM     16  CB  GLU A   1      -8.845   9.680  70.072  1.00  0.00    -0.259 C  
BRANCH  16  17
ATOM     17  CG  GLU A   1     -10.261  10.246  70.175  1.00  0.00    -0.150 C  
ATOM     18  CD  GLU A   1     -11.222   9.264  70.795  1.00  0.00    -0.288 C  
ATOM     19  OE2 GLU A   1     -11.115   8.054  70.719  1.00  0.00    -0.251 OA 
ATOM     20  OE1 GLU A   1     -12.253   9.870  71.425  1.00  0.00    -0.352 OA 
ENDBRANCH  16  17
ENDBRANCH  12  16
ENDBRANCH  10  12
ENDBRANCH   7   8
ENDBRANCH   2   3
BRANCH   2  21
HETATM   21  C   UNK A   0     -12.569  13.080  64.958  1.00  0.00    -0.454 C  
BRANCH  21  22
HETATM   22  C   UNK A   0     -11.466  12.123  64.560  1.00  0.00    -0.397 A  
HETATM   23  C   UNK A   0     -10.123  10.144  64.993  1.00  0.00    -0.305 A  
HETATM   24  C   UNK A   0      -9.434  10.321  63.793  1.00  0.00    -0.300 A  
HETATM   25  C   UNK A   0     -11.130  11.035  65.379  1.00  0.00     0.001 A  
HETATM   26  H   UNK A   0      -8.567   7.255  65.926  1.00  0.00     0.000 HD 
HETATM   27  C   UNK A   0      -9.743  11.416  62.987  1.00  0.00    -0.393 A  
HETATM   28  C   UNK A   0      -7.187   7.313  63.787  1.00  0.00    -0.075 C  
HETATM   29  N   UNK A   0      -8.433   9.411  63.452  1.00  0.00    -0.189 NA 
HETATM   30  N   UNK A   0      -8.800   8.086  65.382  1.00  0.00    -0.373 N  
HETATM   31  C   UNK A   0     -10.756  12.305  63.365  1.00  0.00    -0.438 A  
HETATM   32  C   UNK A   0      -9.754   8.977  65.835  1.00  0.00    -0.236 C  
HETATM   33  O   UNK A   0     -10.317   8.845  66.918  1.00  0.00    -0.262 OA 
HETATM   34  C   UNK A   0      -8.208   8.324  64.255  1.00  0.00    -0.113 C  
ENDBRANCH  21  22
ENDBRANCH   2  21
TORSDOF 7
ENDMDL
MODEL      164
REMARK 921   NORMALIZED FREE ENERGY PREDICTED BY IDOCK:   -5.30 KCAL/MOL
REMARK 922        TOTAL FREE ENERGY PREDICTED BY IDOCK:   -8.59 KCAL/MOL
REMARK 923 INTER-LIGAND FREE ENERGY PREDICTED BY IDOCK:   -8.06 KCAL/MOL
REMARK 924 INTRA-LIGAND FREE ENERGY PREDICTED BY IDOCK:   -0.53 KCAL/MOL
REMARK 927      BINDING AFFINITY PREDICTED BY RF-SCORE:    0.00 PKD
ROOT
HETATM    1  C   UNK A   0      -9.068   9.843  69.568  1.00  0.00    -0.223 C  
HETATM    2  N   UNK A   0     -10.499  10.119  69.639  1.00  0.00    -0.236 NA 
ENDROOT
BRANCH   2   3
HETATM    3  C   UNK A   0     -10.910  11.427  69.657  1.00  0.00    -0.047 A  
HETATM    4  C   UNK A   0     -12.187  13.366  69.965  1.00  0.00    -0.367 A  
HETATM    5  C   UNK A   0     -11.929  12.020  70.379  1.00  0.00    -0.379 A  
HETATM    6  S   UNK A   0     -10.111  12.608  68.703  1.00  0.00    -0.055 SA 
HETATM    7  C   UNK A   0     -11.314  13.782  68.979  1.00  0.00    -0.289 A  
BRANCH   7   8
HETATM    8  C   UNK A   0     -11.350  15.005  68.197  1.00  0.00    -0.330 C  
HETATM    9  O   UNK A   0     -11.880  16.041  68.585  1.00  0.00    -0.367 OA 
ATOM     10  N   GLU A   1     -10.778  14.914  66.937  1.00  0.00    -0.302 N  
ATOM     11  H   GLU A   1     -10.377  14.025  66.634  1.00  0.00     0.000 HD 
BRANCH  10  12
ATOM     12  CA  GLU A   1     -10.735  16.065  66.031  1.00  0.00    -0.267 C  
ATOM     13  C   GLU A   1     -11.274  15.658  64.647  1.00  0.00    -0.369 C  
ATOM     14  O   GLU A   1     -11.152  14.335  64.379  1.00  0.00    -0.335 OA 
ATOM     15  OXT GLU A   1     -11.642  16.458  63.797  1.00  0.00    -1.055 OA 
BRANCH  12  16
ATOM     16  CB  GLU A   1      -9.292  16.570  65.917  1.00  0.00    -0.226 C  
BRANCH  16  17
ATOM     17  CG  GLU A   1      -8.379  15.993  66.999  1.00  0.00    -0.251 C  
ATOM     18  CD  GLU A   1      -7.050  16.702  67.056  1.00  0.00    -0.203 C  
ATOM     19  OE2 GLU A   1      -6.510  17.234  66.104  1.00  0.00    -0.214 OA 
ATOM     20  OE1 GLU A   1      -6.488  16.657  68.286  1.00  0.00    -0.128 OA 
ENDBRANCH  16  17
ENDBRANCH  12  16
ENDBRANCH  10  12
ENDBRANCH   7   8
ENDBRANCH   2   3
BRANCH   2  21
HETATM   21  C   UNK A   0     -11.285   9.182  70.465  1.00  0.00    -0.264 C  
BRANCH  21  22
HETATM   22  C   UNK A   0     -10.847   7.751  70.244  1.00  0.00    -0.252 A  
HETATM   23  C   UNK A   0      -9.757   5.726  71.031  1.00  0.00    -0.213 A  
HETATM   24  C   UNK A   0     -10.066   5.068  69.840  1.00  0.00    -0.274 A  
HETATM   25  C   UNK A   0     -10.139   7.055  71.236  1.00  0.00    -0.199 A  
HETATM   26  H   UNK A   0      -8.250   3.078  72.568  1.00  0.00     0.000 HD 
HETATM   27  C   UNK A   0     -10.745   5.761  68.839  1.00  0.00    -0.334 A  
HETATM   28  C   UNK A   0      -8.716   1.633  70.525  1.00  0.00    -0.107 C  
HETATM   29  N   UNK A   0      -9.660   3.744  69.677  1.00  0.00    -0.194 NA 
HETATM   30  N   UNK A   0      -8.718   3.631  71.849  1.00  0.00    -0.092 N  
HETATM   31  C   UNK A   0     -11.138   7.089  69.044  1.00  0.00    -0.121 A  
HETATM   32  C   UNK A   0      -9.016   4.961  72.068  1.00  0.00    -0.131 C  
HETATM   33  O   UNK A   0      -8.692   5.548  73.096  1.00  0.00    -0.121 OA 
HETATM   34  C   UNK A   0      -9.043   3.096  70.715  1.00  0.00    -0.116 C  
ENDBRANCH  21  22
ENDBRANCH   2  21
TORSDOF 7
ENDMDL
MODEL      165
REMARK 921   NORMALIZED FREE ENERGY PREDICTED BY IDOCK:   -5.29 KCAL/MOL
REMARK 922        TOTAL FREE ENERGY PREDICTED BY IDOCK:   -8.58 KCAL/MOL
REMARK 923 INTER-LIGAND FREE ENERGY PREDICTED BY IDOCK:   -7.84 KCAL/MOL
REMARK 924 INTRA-LIGAND FREE ENERGY PREDICTED BY IDOCK:   -0.74 KCAL/MOL
REMARK 927      BINDING AFFINITY PREDICTED BY RF-SCORE:    0.00 PKD
ROOT
HETATM    1  C   UNK A   0      -8.620   9.743  69.951  1.00  0.00    -0.218 C  
HETATM    2  N   UNK A   0      -9.957   9.884  69.381  1.00  0.00    -0.199 NA 
ENDROOT
BRANCH   2   3
HETATM    3  C   UNK A   0     -10.564  11.111  69.444  1.00  0.00    -0.134 A  
HETATM    4  C   UNK A   0     -12.154  12.808  69.727  1.00  0.00    -0.305 A  
HETATM    5  C   UNK A   0     -11.742  11.480  70.068  1.00  0.00    -0.414 A  
HETATM    6  S   UNK A   0      -9.851  12.480  68.696  1.00  0.00     0.002 SA 
HETATM    7  C   UNK A   0     -11.245  13.437  68.899  1.00  0.00    -0.276 A  
BRANCH   7   8
HETATM    8  C   UNK A   0     -11.377  14.711  68.215  1.00  0.00    -0.297 C  
HETATM    9  O   UNK A   0     -11.908  15.696  68.715  1.00  0.00    -0.370 OA 
ATOM     10  N   GLU A   1     -10.897  14.730  66.913  1.00  0.00    -0.309 N  
ATOM     11  H   GLU A   1     -10.494  13.881  66.517  1.00  0.00     0.000 HD 
BRANCH  10  12
ATOM     12  CA  GLU A   1     -10.958  15.944  66.094  1.00  0.00    -0.126 C  
ATOM     13  C   GLU A   1     -11.245  15.570  64.628  1.00  0.00    -0.371 C  
ATOM     14  O   GLU A   1     -10.854  14.314  64.297  1.00  0.00    -0.238 OA 
ATOM     15  OXT GLU A   1     -11.649  16.363  63.788  1.00  0.00    -1.055 OA 
BRANCH  12  16
ATOM     16  CB  GLU A   1      -9.628  16.699  66.203  1.00  0.00    -0.323 C  
BRANCH  16  17
ATOM     17  CG  GLU A   1      -9.816  18.211  66.320  1.00  0.00    -0.311 C  
ATOM     18  CD  GLU A   1      -8.645  18.878  66.993  1.00  0.00    -0.289 C  
ATOM     19  OE2 GLU A   1      -7.930  18.345  67.822  1.00  0.00    -0.242 OA 
ATOM     20  OE1 GLU A   1      -8.484  20.164  66.607  1.00  0.00    -0.313 OA 
ENDBRANCH  16  17
ENDBRANCH  12  16
ENDBRANCH  10  12
ENDBRANCH   7   8
ENDBRANCH   2   3
BRANCH   2  21
HETATM   21  C   UNK A   0     -10.842   8.714  69.543  1.00  0.00    -0.129 C  
BRANCH  21  22
HETATM   22  C   UNK A   0     -10.577   7.670  68.480  1.00  0.00    -0.162 A  
HETATM   23  C   UNK A   0      -9.512   6.987  66.405  1.00  0.00    -0.176 A  
HETATM   24  C   UNK A   0     -10.056   5.707  66.520  1.00  0.00    -0.185 A  
HETATM   25  C   UNK A   0      -9.768   7.964  67.371  1.00  0.00    -0.210 A  
HETATM   26  H   UNK A   0      -7.746   6.414  63.543  1.00  0.00     0.000 HD 
HETATM   27  C   UNK A   0     -10.883   5.416  67.604  1.00  0.00     0.021 A  
HETATM   28  C   UNK A   0      -8.566   4.004  63.524  1.00  0.00    -0.100 C  
HETATM   29  N   UNK A   0      -9.778   4.767  65.528  1.00  0.00    -0.233 NA 
HETATM   30  N   UNK A   0      -8.371   6.252  64.332  1.00  0.00    -0.316 N  
HETATM   31  C   UNK A   0     -11.134   6.389  68.579  1.00  0.00    -0.385 A  
HETATM   32  C   UNK A   0      -8.651   7.267  65.226  1.00  0.00     0.014 C  
HETATM   33  O   UNK A   0      -8.214   8.405  65.088  1.00  0.00    -0.141 OA 
HETATM   34  C   UNK A   0      -8.916   5.091  64.514  1.00  0.00    -0.052 C  
ENDBRANCH  21  22
ENDBRANCH   2  21
TORSDOF 7
ENDMDL
MODEL      166
REMARK 921   NORMALIZED FREE ENERGY PREDICTED BY IDOCK:   -5.23 KCAL/MOL
REMARK 922        TOTAL FREE ENERGY PREDICTED BY IDOCK:   -8.50 KCAL/MOL
REMARK 923 INTER-LIGAND FREE ENERGY PREDICTED BY IDOCK:   -7.20 KCAL/MOL
REMARK 924 INTRA-LIGAND FREE ENERGY PREDICTED BY IDOCK:   -1.30 KCAL/MOL
REMARK 927      BINDING AFFINITY PREDICTED BY RF-SCORE:    0.00 PKD
ROOT
HETATM    1  C   UNK A   0     -11.399   4.766  73.335  1.00  0.00    -0.312 C  
HETATM    2  N   UNK A   0     -10.836   5.892  72.596  1.00  0.00    -0.235 NA 
ENDROOT
BRANCH   2   3
HETATM    3  C   UNK A   0      -9.739   5.669  71.805  1.00  0.00    -0.158 A  
HETATM    4  C   UNK A   0      -7.539   5.574  71.008  1.00  0.00    -0.091 A  
HETATM    5  C   UNK A   0      -8.401   5.615  72.150  1.00  0.00    -0.115 A  
HETATM    6  S   UNK A   0      -9.916   5.379  70.124  1.00  0.00    -0.254 SA 
HETATM    7  C   UNK A   0      -8.247   5.536  69.824  1.00  0.00    -0.101 A  
BRANCH   7   8
HETATM    8  C   UNK A   0      -7.744   5.646  68.466  1.00  0.00    -0.089 C  
HETATM    9  O   UNK A   0      -6.620   5.290  68.129  1.00  0.00    -0.046 OA 
ATOM     10  N   GLU A   1      -8.617   6.238  67.564  1.00  0.00    -0.108 N  
ATOM     11  H   GLU A   1      -9.531   6.554  67.888  1.00  0.00     0.000 HD 
BRANCH  10  12
ATOM     12  CA  GLU A   1      -8.253   6.418  66.155  1.00  0.00    -0.122 C  
ATOM     13  C   GLU A   1      -8.681   7.820  65.682  1.00  0.00    -0.104 C  
ATOM     14  O   GLU A   1      -9.711   8.345  66.390  1.00  0.00    -0.233 OA 
ATOM     15  OXT GLU A   1      -8.247   8.361  64.674  1.00  0.00    -0.156 OA 
BRANCH  12  16
ATOM     16  CB  GLU A   1      -8.937   5.336  65.311  1.00  0.00    -0.130 C  
BRANCH  16  17
ATOM     17  CG  GLU A   1      -9.822   4.410  66.145  1.00  0.00    -0.243 C  
ATOM     18  CD  GLU A   1      -9.126   3.117  66.486  1.00  0.00    -0.158 C  
ATOM     19  OE2 GLU A   1      -8.270   2.591  65.798  1.00  0.00    -0.083 OA 
ATOM     20  OE1 GLU A   1      -9.581   2.568  67.635  1.00  0.00    -0.146 OA 
ENDBRANCH  16  17
ENDBRANCH  12  16
ENDBRANCH  10  12
ENDBRANCH   7   8
ENDBRANCH   2   3
BRANCH   2  21
HETATM   21  C   UNK A   0     -10.879   7.192  73.293  1.00  0.00    -0.338 C  
BRANCH  21  22
HETATM   22  C   UNK A   0     -11.254   8.313  72.348  1.00  0.00    -0.451 A  
HETATM   23  C   UNK A   0     -10.663   9.890  70.595  1.00  0.00    -0.372 A  
HETATM   24  C   UNK A   0     -11.969  10.379  70.562  1.00  0.00    -0.334 A  
HETATM   25  C   UNK A   0     -10.302   8.868  71.479  1.00  0.00    -0.394 A  
HETATM   26  H   UNK A   0      -9.446  11.836  68.072  1.00  0.00     0.000 HD 
HETATM   27  C   UNK A   0     -12.914   9.852  71.442  1.00  0.00    -0.504 A  
HETATM   28  C   UNK A   0     -11.748  12.881  67.772  1.00  0.00    -0.412 C  
HETATM   29  N   UNK A   0     -12.283  11.402  69.668  1.00  0.00    -0.280 NA 
HETATM   30  N   UNK A   0     -10.096  11.448  68.754  1.00  0.00    -0.262 N  
HETATM   31  C   UNK A   0     -12.559   8.823  72.322  1.00  0.00    -0.460 A  
HETATM   32  C   UNK A   0      -9.679  10.488  69.655  1.00  0.00    -0.056 C  
HETATM   33  O   UNK A   0      -8.516  10.102  69.715  1.00  0.00    -0.177 OA 
HETATM   34  C   UNK A   0     -11.329  11.845  68.790  1.00  0.00    -0.274 C  
ENDBRANCH  21  22
ENDBRANCH   2  21
TORSDOF 7
ENDMDL
MODEL      167
REMARK 921   NORMALIZED FREE ENERGY PREDICTED BY IDOCK:   -5.21 KCAL/MOL
REMARK 922        TOTAL FREE ENERGY PREDICTED BY IDOCK:   -8.47 KCAL/MOL
REMARK 923 INTER-LIGAND FREE ENERGY PREDICTED BY IDOCK:   -8.41 KCAL/MOL
REMARK 924 INTRA-LIGAND FREE ENERGY PREDICTED BY IDOCK:   -0.06 KCAL/MOL
REMARK 927      BINDING AFFINITY PREDICTED BY RF-SCORE:    0.00 PKD
ROOT
HETATM    1  C   UNK A   0     -12.108  12.901  65.759  1.00  0.00    -0.457 C  
HETATM    2  N   UNK A   0     -11.030  12.288  66.528  1.00  0.00    -0.266 NA 
ENDROOT
BRANCH   2   3
HETATM    3  C   UNK A   0     -11.346  11.652  67.700  1.00  0.00    -0.295 A  
HETATM    4  C   UNK A   0     -12.024  11.227  69.901  1.00  0.00    -0.440 A  
HETATM    5  C   UNK A   0     -12.100  12.101  68.770  1.00  0.00    -0.166 A  
HETATM    6  S   UNK A   0     -10.806  10.052  68.001  1.00  0.00    -0.240 SA 
HETATM    7  C   UNK A   0     -11.263  10.105  69.641  1.00  0.00    -0.261 A  
BRANCH   7   8
HETATM    8  C   UNK A   0     -10.823   9.077  70.568  1.00  0.00    -0.251 C  
HETATM    9  O   UNK A   0     -10.769   9.238  71.782  1.00  0.00    -0.363 OA 
ATOM     10  N   GLU A   1     -10.412   7.891  69.976  1.00  0.00    -0.226 N  
ATOM     11  H   GLU A   1     -10.438   7.805  68.960  1.00  0.00     0.000 HD 
BRANCH  10  12
ATOM     12  CA  GLU A   1      -9.943   6.758  70.779  1.00  0.00    -0.187 C  
ATOM     13  C   GLU A   1      -8.428   6.886  71.024  1.00  0.00    -0.131 C  
ATOM     14  O   GLU A   1      -7.780   7.611  70.079  1.00  0.00    -0.089 OA 
ATOM     15  OXT GLU A   1      -7.824   6.276  71.896  1.00  0.00    -0.100 OA 
BRANCH  12  16
ATOM     16  CB  GLU A   1     -10.259   5.449  70.047  1.00  0.00    -0.349 C  
BRANCH  16  17
ATOM     17  CG  GLU A   1     -10.815   5.680  68.642  1.00  0.00    -0.190 C  
ATOM     18  CD  GLU A   1      -9.941   5.066  67.578  1.00  0.00    -0.167 C  
ATOM     19  OE2 GLU A   1      -8.738   4.914  67.677  1.00  0.00    -0.104 OA 
ATOM     20  OE1 GLU A   1     -10.633   4.729  66.466  1.00  0.00    -0.259 OA 
ENDBRANCH  16  17
ENDBRANCH  12  16
ENDBRANCH  10  12
ENDBRANCH   7   8
ENDBRANCH   2   3
BRANCH   2  21
HETATM   21  C   UNK A   0      -9.746  13.017  66.512  1.00  0.00    -0.266 C  
BRANCH  21  22
HETATM   22  C   UNK A   0      -9.935  14.474  66.875  1.00  0.00    -0.259 A  
HETATM   23  C   UNK A   0      -9.263  16.803  66.697  1.00  0.00    -0.279 A  
HETATM   24  C   UNK A   0     -10.315  17.194  67.525  1.00  0.00    -0.341 A  
HETATM   25  C   UNK A   0      -9.068  15.457  66.373  1.00  0.00    -0.350 A  
HETATM   26  H   UNK A   0      -8.060  19.934  66.073  1.00  0.00     0.000 HD 
HETATM   27  C   UNK A   0     -11.163  16.221  68.050  1.00  0.00    -0.260 A  
HETATM   28  C   UNK A   0      -9.908  20.926  67.516  1.00  0.00    -0.295 C  
HETATM   29  N   UNK A   0     -10.467  18.548  67.826  1.00  0.00    -0.407 NA 
HETATM   30  N   UNK A   0      -8.637  19.189  66.462  1.00  0.00    -0.312 N  
HETATM   31  C   UNK A   0     -10.978  14.873  67.721  1.00  0.00    -0.294 A  
HETATM   32  C   UNK A   0      -8.367  17.866  66.170  1.00  0.00    -0.128 C  
HETATM   33  O   UNK A   0      -7.407  17.525  65.486  1.00  0.00    -0.355 OA 
HETATM   34  C   UNK A   0      -9.636  19.466  67.239  1.00  0.00    -0.328 C  
ENDBRANCH  21  22
ENDBRANCH   2  21
TORSDOF 7
ENDMDL
MODEL      168
REMARK 921   NORMALIZED FREE ENERGY PREDICTED BY IDOCK:   -5.20 KCAL/MOL
REMARK 922        TOTAL FREE ENERGY PREDICTED BY IDOCK:   -8.47 KCAL/MOL
REMARK 923 INTER-LIGAND FREE ENERGY PREDICTED BY IDOCK:   -7.33 KCAL/MOL
REMARK 924 INTRA-LIGAND FREE ENERGY PREDICTED BY IDOCK:   -1.14 KCAL/MOL
REMARK 927      BINDING AFFINITY PREDICTED BY RF-SCORE:    0.00 PKD
ROOT
HETATM    1  C   UNK A   0     -10.690   7.776  73.024  1.00  0.00    -0.384 C  
HETATM    2  N   UNK A   0     -11.490   6.833  72.249  1.00  0.00    -0.270 NA 
ENDROOT
BRANCH   2   3
HETATM    3  C   UNK A   0     -10.840   5.850  71.549  1.00  0.00    -0.266 A  
HETATM    4  C   UNK A   0      -9.361   4.136  70.950  1.00  0.00    -0.217 A  
HETATM    5  C   UNK A   0     -10.026   4.832  72.010  1.00  0.00    -0.247 A  
HETATM    6  S   UNK A   0     -10.994   5.743  69.844  1.00  0.00    -0.228 SA 
HETATM    7  C   UNK A   0      -9.735   4.604  69.706  1.00  0.00    -0.209 A  
BRANCH   7   8
HETATM    8  C   UNK A   0      -9.174   4.270  68.409  1.00  0.00    -0.139 C  
HETATM    9  O   UNK A   0      -9.694   3.478  67.630  1.00  0.00    -0.173 OA 
ATOM     10  N   GLU A   1      -7.962   4.880  68.119  1.00  0.00    -0.086 N  
ATOM     11  H   GLU A   1      -7.542   5.506  68.806  1.00  0.00     0.000 HD 
BRANCH  10  12
ATOM     12  CA  GLU A   1      -7.273   4.645  66.848  1.00  0.00    -0.076 C  
ATOM     13  C   GLU A   1      -6.019   3.783  67.087  1.00  0.00    -0.024 C  
ATOM     14  O   GLU A   1      -5.519   3.882  68.343  1.00  0.00    -0.012 OA 
ATOM     15  OXT GLU A   1      -5.428   3.179  66.202  1.00  0.00    -0.015 OA 
BRANCH  12  16
ATOM     16  CB  GLU A   1      -6.887   5.990  66.221  1.00  0.00    -0.061 C  
BRANCH  16  17
ATOM     17  CG  GLU A   1      -8.005   6.582  65.363  1.00  0.00    -0.120 C  
ATOM     18  CD  GLU A   1      -8.708   7.721  66.056  1.00  0.00    -0.161 C  
ATOM     19  OE2 GLU A   1      -8.822   7.829  67.264  1.00  0.00    -0.126 OA 
ATOM     20  OE1 GLU A   1      -9.244   8.609  65.188  1.00  0.00    -0.076 OA 
ENDBRANCH  16  17
ENDBRANCH  12  16
ENDBRANCH  10  12
ENDBRANCH   7   8
ENDBRANCH   2   3
BRANCH   2  21
HETATM   21  C   UNK A   0     -12.691   7.401  71.605  1.00  0.00    -0.365 C  
BRANCH  21  22
HETATM   22  C   UNK A   0     -12.544   8.889  71.376  1.00  0.00    -0.351 A  
HETATM   23  C   UNK A   0     -11.567  10.758  70.167  1.00  0.00    -0.424 A  
HETATM   24  C   UNK A   0     -12.302  11.666  70.930  1.00  0.00    -0.336 A  
HETATM   25  C   UNK A   0     -11.681   9.381  70.385  1.00  0.00    -0.195 A  
HETATM   26  H   UNK A   0     -10.063  13.059  68.146  1.00  0.00     0.000 HD 
HETATM   27  C   UNK A   0     -13.140  11.186  71.935  1.00  0.00    -0.513 A  
HETATM   28  C   UNK A   0     -11.308  14.924  69.351  1.00  0.00    -0.312 C  
HETATM   29  N   UNK A   0     -12.152  13.030  70.681  1.00  0.00    -0.508 NA 
HETATM   30  N   UNK A   0     -10.639  12.668  68.892  1.00  0.00    -0.399 N  
HETATM   31  C   UNK A   0     -13.265   9.808  72.150  1.00  0.00    -0.530 A  
HETATM   32  C   UNK A   0     -10.669  11.306  69.117  1.00  0.00    -0.207 C  
HETATM   33  O   UNK A   0      -9.978  10.518  68.479  1.00  0.00    -0.158 OA 
HETATM   34  C   UNK A   0     -11.355  13.442  69.645  1.00  0.00    -0.137 C  
ENDBRANCH  21  22
ENDBRANCH   2  21
TORSDOF 7
ENDMDL
MODEL      169
REMARK 921   NORMALIZED FREE ENERGY PREDICTED BY IDOCK:   -5.20 KCAL/MOL
REMARK 922        TOTAL FREE ENERGY PREDICTED BY IDOCK:   -8.45 KCAL/MOL
REMARK 923 INTER-LIGAND FREE ENERGY PREDICTED BY IDOCK:   -7.48 KCAL/MOL
REMARK 924 INTRA-LIGAND FREE ENERGY PREDICTED BY IDOCK:   -0.98 KCAL/MOL
REMARK 927      BINDING AFFINITY PREDICTED BY RF-SCORE:    0.00 PKD
ROOT
HETATM    1  C   UNK A   0     -12.581   9.594  70.982  1.00  0.00    -0.283 C  
HETATM    2  N   UNK A   0     -11.137   9.387  71.000  1.00  0.00    -0.313 NA 
ENDROOT
BRANCH   2   3
HETATM    3  C   UNK A   0     -10.394   9.884  69.960  1.00  0.00    -0.272 A  
HETATM    4  C   UNK A   0      -8.654  10.812  68.698  1.00  0.00    -0.151 A  
HETATM    5  C   UNK A   0      -9.027  10.069  69.863  1.00  0.00    -0.178 A  
HETATM    6  S   UNK A   0     -11.150  10.363  68.497  1.00  0.00    -0.252 SA 
HETATM    7  C   UNK A   0      -9.742  11.119  67.906  1.00  0.00    -0.174 A  
BRANCH   7   8
HETATM    8  C   UNK A   0      -9.798  11.983  66.741  1.00  0.00    -0.204 C  
HETATM    9  O   UNK A   0      -9.120  12.998  66.618  1.00  0.00    -0.230 OA 
ATOM     10  N   GLU A   1     -10.721  11.609  65.775  1.00  0.00    -0.274 N  
ATOM     11  H   GLU A   1     -11.293  10.778  65.928  1.00  0.00     0.000 HD 
BRANCH  10  12
ATOM     12  CA  GLU A   1     -10.892  12.381  64.541  1.00  0.00    -0.321 C  
ATOM     13  C   GLU A   1     -12.211  13.173  64.601  1.00  0.00    -0.414 C  
ATOM     14  O   GLU A   1     -13.142  12.626  65.422  1.00  0.00    -0.463 OA 
ATOM     15  OXT GLU A   1     -12.471  14.122  63.873  1.00  0.00    -0.730 OA 
BRANCH  12  16
ATOM     16  CB  GLU A   1     -10.894  11.427  63.341  1.00  0.00    -0.375 C  
BRANCH  16  17
ATOM     17  CG  GLU A   1      -9.486  11.118  62.832  1.00  0.00    -0.382 C  
ATOM     18  CD  GLU A   1      -8.948   9.830  63.400  1.00  0.00    -0.246 C  
ATOM     19  OE2 GLU A   1      -9.256   9.372  64.485  1.00  0.00    -0.216 OA 
ATOM     20  OE1 GLU A   1      -8.044   9.238  62.586  1.00  0.00    -0.131 OA 
ENDBRANCH  16  17
ENDBRANCH  12  16
ENDBRANCH  10  12
ENDBRANCH   7   8
ENDBRANCH   2   3
BRANCH   2  21
HETATM   21  C   UNK A   0     -10.689   8.095  71.557  1.00  0.00    -0.233 C  
BRANCH  21  22
HETATM   22  C   UNK A   0     -10.201   7.165  70.468  1.00  0.00    -0.206 A  
HETATM   23  C   UNK A   0      -8.398   5.984  69.343  1.00  0.00    -0.115 A  
HETATM   24  C   UNK A   0      -9.303   5.398  68.458  1.00  0.00    -0.118 A  
HETATM   25  C   UNK A   0      -8.837   6.862  70.340  1.00  0.00    -0.152 A  
HETATM   26  H   UNK A   0      -5.606   4.430  68.148  1.00  0.00     0.000 HD 
HETATM   27  C   UNK A   0     -10.656   5.715  68.561  1.00  0.00    -0.259 A  
HETATM   28  C   UNK A   0      -7.031   3.195  66.438  1.00  0.00    -0.054 C  
HETATM   29  N   UNK A   0      -8.819   4.533  67.476  1.00  0.00    -0.105 NA 
HETATM   30  N   UNK A   0      -6.581   4.715  68.236  1.00  0.00    -0.045 N  
HETATM   31  C   UNK A   0     -11.101   6.586  69.563  1.00  0.00    -0.425 A  
HETATM   32  C   UNK A   0      -6.961   5.637  69.191  1.00  0.00    -0.063 C  
HETATM   33  O   UNK A   0      -6.152   6.191  69.930  1.00  0.00    -0.024 OA 
HETATM   34  C   UNK A   0      -7.487   4.216  67.455  1.00  0.00    -0.069 C  
ENDBRANCH  21  22
ENDBRANCH   2  21
TORSDOF 7
ENDMDL
MODEL      170
REMARK 921   NORMALIZED FREE ENERGY PREDICTED BY IDOCK:   -5.19 KCAL/MOL
REMARK 922        TOTAL FREE ENERGY PREDICTED BY IDOCK:   -8.45 KCAL/MOL
REMARK 923 INTER-LIGAND FREE ENERGY PREDICTED BY IDOCK:   -7.48 KCAL/MOL
REMARK 924 INTRA-LIGAND FREE ENERGY PREDICTED BY IDOCK:   -0.96 KCAL/MOL
REMARK 927      BINDING AFFINITY PREDICTED BY RF-SCORE:    0.00 PKD
ROOT
HETATM    1  C   UNK A   0     -11.303  11.194  67.348  1.00  0.00    -0.255 C  
HETATM    2  N   UNK A   0     -10.982  11.504  68.738  1.00  0.00    -0.208 NA 
ENDROOT
BRANCH   2   3
HETATM    3  C   UNK A   0     -10.338  10.552  69.485  1.00  0.00    -0.221 A  
HETATM    4  C   UNK A   0      -8.706   9.107  70.342  1.00  0.00    -0.245 A  
HETATM    5  C   UNK A   0      -8.983  10.332  69.655  1.00  0.00    -0.140 A  
HETATM    6  S   UNK A   0     -11.231   9.417  70.411  1.00  0.00    -0.259 SA 
HETATM    7  C   UNK A   0      -9.860   8.457  70.731  1.00  0.00    -0.182 A  
BRANCH   7   8
HETATM    8  C   UNK A   0     -10.001   7.129  71.302  1.00  0.00    -0.189 C  
HETATM    9  O   UNK A   0     -11.081   6.567  71.448  1.00  0.00    -0.248 OA 
ATOM     10  N   GLU A   1      -8.817   6.544  71.726  1.00  0.00    -0.138 N  
ATOM     11  H   GLU A   1      -7.941   7.057  71.621  1.00  0.00     0.000 HD 
BRANCH  10  12
ATOM     12  CA  GLU A   1      -8.796   5.206  72.322  1.00  0.00    -0.129 C  
ATOM     13  C   GLU A   1      -8.050   5.246  73.669  1.00  0.00    -0.110 C  
ATOM     14  O   GLU A   1      -7.152   6.257  73.767  1.00  0.00    -0.083 OA 
ATOM     15  OXT GLU A   1      -8.137   4.374  74.523  1.00  0.00    -0.087 OA 
BRANCH  12  16
ATOM     16  CB  GLU A   1      -8.109   4.230  71.359  1.00  0.00    -0.082 C  
BRANCH  16  17
ATOM     17  CG  GLU A   1      -9.104   3.445  70.506  1.00  0.00    -0.194 C  
ATOM     18  CD  GLU A   1      -9.125   3.919  69.076  1.00  0.00    -0.137 C  
ATOM     19  OE2 GLU A   1      -8.872   5.057  68.723  1.00  0.00    -0.092 OA 
ATOM     20  OE1 GLU A   1      -9.494   2.949  68.209  1.00  0.00    -0.201 OA 
ENDBRANCH  16  17
ENDBRANCH  12  16
ENDBRANCH  10  12
ENDBRANCH   7   8
ENDBRANCH   2   3
BRANCH   2  21
HETATM   21  C   UNK A   0     -11.982  12.322  69.452  1.00  0.00    -0.259 C  
BRANCH  21  22
HETATM   22  C   UNK A   0     -11.636  13.794  69.392  1.00  0.00    -0.365 A  
HETATM   23  C   UNK A   0     -10.764  15.715  68.185  1.00  0.00    -0.287 A  
HETATM   24  C   UNK A   0     -11.027  16.547  69.273  1.00  0.00    -0.302 A  
HETATM   25  C   UNK A   0     -11.061  14.350  68.238  1.00  0.00    -0.275 A  
HETATM   26  H   UNK A   0      -9.583  18.144  66.100  1.00  0.00     0.000 HD 
HETATM   27  C   UNK A   0     -11.571  15.997  70.432  1.00  0.00    -0.364 A  
HETATM   28  C   UNK A   0      -9.994  19.889  67.907  1.00  0.00    -0.552 C  
HETATM   29  N   UNK A   0     -10.708  17.902  69.176  1.00  0.00    -0.263 NA 
HETATM   30  N   UNK A   0      -9.951  17.696  66.939  1.00  0.00    -0.308 N  
HETATM   31  C   UNK A   0     -11.880  14.633  70.487  1.00  0.00    -0.367 A  
HETATM   32  C   UNK A   0     -10.166  16.333  66.972  1.00  0.00    -0.280 C  
HETATM   33  O   UNK A   0      -9.880  15.598  66.031  1.00  0.00    -0.282 OA 
HETATM   34  C   UNK A   0     -10.225  18.398  67.994  1.00  0.00    -0.381 C  
ENDBRANCH  21  22
ENDBRANCH   2  21
TORSDOF 7
ENDMDL
MODEL      171
REMARK 921   NORMALIZED FREE ENERGY PREDICTED BY IDOCK:   -5.18 KCAL/MOL
REMARK 922        TOTAL FREE ENERGY PREDICTED BY IDOCK:   -8.44 KCAL/MOL
REMARK 923 INTER-LIGAND FREE ENERGY PREDICTED BY IDOCK:   -7.64 KCAL/MOL
REMARK 924 INTRA-LIGAND FREE ENERGY PREDICTED BY IDOCK:   -0.80 KCAL/MOL
REMARK 927      BINDING AFFINITY PREDICTED BY RF-SCORE:    0.00 PKD
ROOT
HETATM    1  C   UNK A   0     -10.339   7.325  66.831  1.00  0.00    -0.288 C  
HETATM    2  N   UNK A   0     -10.049   8.346  67.833  1.00  0.00    -0.192 NA 
ENDROOT
BRANCH   2   3
HETATM    3  C   UNK A   0     -10.058   9.660  67.445  1.00  0.00    -0.204 A  
HETATM    4  C   UNK A   0      -9.686  11.644  66.257  1.00  0.00    -0.241 A  
HETATM    5  C   UNK A   0      -9.778  10.216  66.210  1.00  0.00    -0.274 A  
HETATM    6  S   UNK A   0     -10.482  10.897  68.555  1.00  0.00    -0.201 SA 
HETATM    7  C   UNK A   0      -9.960  12.141  67.515  1.00  0.00    -0.197 A  
BRANCH   7   8
HETATM    8  C   UNK A   0      -9.818  13.503  67.999  1.00  0.00    -0.238 C  
HETATM    9  O   UNK A   0      -8.794  14.165  67.866  1.00  0.00    -0.165 OA 
ATOM     10  N   GLU A   1     -10.918  14.001  68.681  1.00  0.00    -0.254 N  
ATOM     11  H   GLU A   1     -11.740  13.408  68.804  1.00  0.00     0.000 HD 
BRANCH  10  12
ATOM     12  CA  GLU A   1     -10.927  15.360  69.228  1.00  0.00    -0.261 C  
ATOM     13  C   GLU A   1     -11.891  15.433  70.427  1.00  0.00    -0.335 C  
ATOM     14  O   GLU A   1     -12.875  14.500  70.396  1.00  0.00    -0.349 OA 
ATOM     15  OXT GLU A   1     -11.878  16.330  71.260  1.00  0.00    -0.424 OA 
BRANCH  12  16
ATOM     16  CB  GLU A   1     -11.357  16.346  68.136  1.00  0.00    -0.205 C  
BRANCH  16  17
ATOM     17  CG  GLU A   1     -10.691  17.714  68.281  1.00  0.00    -0.285 C  
ATOM     18  CD  GLU A   1     -10.494  18.394  66.951  1.00  0.00    -0.389 C  
ATOM     19  OE2 GLU A   1     -10.332  17.810  65.895  1.00  0.00    -0.517 OA 
ATOM     20  OE1 GLU A   1     -10.480  19.743  67.051  1.00  0.00    -0.433 OA 
ENDBRANCH  16  17
ENDBRANCH  12  16
ENDBRANCH  10  12
ENDBRANCH   7   8
ENDBRANCH   2   3
BRANCH   2  21
HETATM   21  C   UNK A   0      -9.036   7.975  68.841  1.00  0.00    -0.141 C  
BRANCH  21  22
HETATM   22  C   UNK A   0      -9.603   7.018  69.867  1.00  0.00    -0.159 A  
HETATM   23  C   UNK A   0      -9.459   4.953  71.141  1.00  0.00    -0.216 A  
HETATM   24  C   UNK A   0     -10.646   5.256  71.809  1.00  0.00    -0.201 A  
HETATM   25  C   UNK A   0      -8.939   5.821  70.176  1.00  0.00    -0.148 A  
HETATM   26  H   UNK A   0      -8.804   2.039  72.790  1.00  0.00     0.000 HD 
HETATM   27  C   UNK A   0     -11.325   6.430  71.488  1.00  0.00    -0.346 A  
HETATM   28  C   UNK A   0     -10.910   2.359  74.184  1.00  0.00    -0.227 C  
HETATM   29  N   UNK A   0     -11.130   4.357  72.760  1.00  0.00    -0.092 NA 
HETATM   30  N   UNK A   0      -9.287   2.890  72.502  1.00  0.00    -0.096 N  
HETATM   31  C   UNK A   0     -10.803   7.306  70.530  1.00  0.00    -0.262 A  
HETATM   32  C   UNK A   0      -8.772   3.684  71.496  1.00  0.00    -0.093 C  
HETATM   33  O   UNK A   0      -7.758   3.383  70.874  1.00  0.00    -0.043 OA 
HETATM   34  C   UNK A   0     -10.394   3.246  73.074  1.00  0.00    -0.162 C  
ENDBRANCH  21  22
ENDBRANCH   2  21
TORSDOF 7
ENDMDL
MODEL      172
REMARK 921   NORMALIZED FREE ENERGY PREDICTED BY IDOCK:   -5.18 KCAL/MOL
REMARK 922        TOTAL FREE ENERGY PREDICTED BY IDOCK:   -8.43 KCAL/MOL
REMARK 923 INTER-LIGAND FREE ENERGY PREDICTED BY IDOCK:   -7.16 KCAL/MOL
REMARK 924 INTRA-LIGAND FREE ENERGY PREDICTED BY IDOCK:   -1.26 KCAL/MOL
REMARK 927      BINDING AFFINITY PREDICTED BY RF-SCORE:    0.00 PKD
ROOT
HETATM    1  C   UNK A   0      -9.463   4.039  74.348  1.00  0.00    -0.108 C  
HETATM    2  N   UNK A   0      -9.676   5.145  73.420  1.00  0.00    -0.143 NA 
ENDROOT
BRANCH   2   3
HETATM    3  C   UNK A   0      -9.203   5.021  72.139  1.00  0.00    -0.135 A  
HETATM    4  C   UNK A   0      -7.797   5.001  70.267  1.00  0.00    -0.070 A  
HETATM    5  C   UNK A   0      -7.902   4.888  71.690  1.00  0.00    -0.106 A  
HETATM    6  S   UNK A   0     -10.283   4.989  70.807  1.00  0.00    -0.201 SA 
HETATM    7  C   UNK A   0      -9.030   5.154  69.665  1.00  0.00    -0.106 A  
BRANCH   7   8
HETATM    8  C   UNK A   0      -9.327   5.456  68.276  1.00  0.00    -0.114 C  
HETATM    9  O   UNK A   0     -10.080   4.781  67.583  1.00  0.00    -0.148 OA 
ATOM     10  N   GLU A   1      -8.654   6.553  67.757  1.00  0.00    -0.117 N  
ATOM     11  H   GLU A   1      -8.008   7.070  68.354  1.00  0.00     0.000 HD 
BRANCH  10  12
ATOM     12  CA  GLU A   1      -8.850   6.984  66.370  1.00  0.00    -0.145 C  
ATOM     13  C   GLU A   1      -7.845   6.262  65.453  1.00  0.00    -0.104 C  
ATOM     14  O   GLU A   1      -6.717   5.858  66.088  1.00  0.00    -0.056 OA 
ATOM     15  OXT GLU A   1      -7.966   6.183  64.238  1.00  0.00    -0.117 OA 
BRANCH  12  16
ATOM     16  CB  GLU A   1      -8.664   8.503  66.278  1.00  0.00    -0.164 C  
BRANCH  16  17
ATOM     17  CG  GLU A   1      -9.985   9.247  66.084  1.00  0.00    -0.348 C  
ATOM     18  CD  GLU A   1      -9.894  10.687  66.520  1.00  0.00    -0.204 C  
ATOM     19  OE2 GLU A   1      -9.152  11.098  67.393  1.00  0.00    -0.142 OA 
ATOM     20  OE1 GLU A   1     -10.760  11.488  65.859  1.00  0.00    -0.265 OA 
ENDBRANCH  16  17
ENDBRANCH  12  16
ENDBRANCH  10  12
ENDBRANCH   7   8
ENDBRANCH   2   3
BRANCH   2  21
HETATM   21  C   UNK A   0      -9.593   6.495  74.012  1.00  0.00    -0.219 C  
BRANCH  21  22
HETATM   22  C   UNK A   0      -9.861   7.568  72.979  1.00  0.00    -0.292 A  
HETATM   23  C   UNK A   0     -11.390   9.082  71.848  1.00  0.00    -0.438 A  
HETATM   24  C   UNK A   0     -10.348   9.596  71.078  1.00  0.00    -0.222 A  
HETATM   25  C   UNK A   0     -11.156   8.075  72.790  1.00  0.00    -0.448 A  
HETATM   26  H   UNK A   0     -13.838  11.113  70.616  1.00  0.00     0.000 HD 
HETATM   27  C   UNK A   0      -9.063   9.078  71.240  1.00  0.00    -0.302 A  
HETATM   28  C   UNK A   0     -12.128  12.256  69.116  1.00  0.00    -0.214 C  
HETATM   29  N   UNK A   0     -10.629  10.595  70.146  1.00  0.00    -0.458 NA 
HETATM   30  N   UNK A   0     -12.922  10.684  70.742  1.00  0.00    -0.350 N  
HETATM   31  C   UNK A   0      -8.823   8.078  72.189  1.00  0.00    -0.215 A  
HETATM   32  C   UNK A   0     -12.749   9.645  71.635  1.00  0.00    -0.407 C  
HETATM   33  O   UNK A   0     -13.681   9.160  72.269  1.00  0.00    -0.443 OA 
HETATM   34  C   UNK A   0     -11.899  11.104  70.067  1.00  0.00    -0.361 C  
ENDBRANCH  21  22
ENDBRANCH   2  21
TORSDOF 7
ENDMDL
MODEL      173
REMARK 921   NORMALIZED FREE ENERGY PREDICTED BY IDOCK:   -5.17 KCAL/MOL
REMARK 922        TOTAL FREE ENERGY PREDICTED BY IDOCK:   -8.41 KCAL/MOL
REMARK 923 INTER-LIGAND FREE ENERGY PREDICTED BY IDOCK:   -8.77 KCAL/MOL
REMARK 924 INTRA-LIGAND FREE ENERGY PREDICTED BY IDOCK:    0.35 KCAL/MOL
REMARK 927      BINDING AFFINITY PREDICTED BY RF-SCORE:    0.00 PKD
ROOT
HETATM    1  C   UNK A   0     -12.772  13.905  65.389  1.00  0.00    -0.490 C  
HETATM    2  N   UNK A   0     -11.580  13.567  66.162  1.00  0.00    -0.331 NA 
ENDROOT
BRANCH   2   3
HETATM    3  C   UNK A   0     -10.941  12.385  65.889  1.00  0.00    -0.288 A  
HETATM    4  C   UNK A   0     -10.088  10.509  64.776  1.00  0.00    -0.406 A  
HETATM    5  C   UNK A   0     -10.527  11.868  64.675  1.00  0.00    -0.340 A  
HETATM    6  S   UNK A   0     -10.515  11.308  67.154  1.00  0.00    -0.234 SA 
HETATM    7  C   UNK A   0     -10.121  10.049  66.077  1.00  0.00    -0.248 A  
BRANCH   7   8
HETATM    8  C   UNK A   0      -9.907   8.697  66.563  1.00  0.00    -0.278 C  
HETATM    9  O   UNK A   0      -8.886   8.053  66.346  1.00  0.00    -0.140 OA 
ATOM     10  N   GLU A   1     -10.973   8.149  67.262  1.00  0.00    -0.457 N  
ATOM     11  H   GLU A   1     -11.821   8.702  67.393  1.00  0.00     0.000 HD 
BRANCH  10  12
ATOM     12  CA  GLU A   1     -10.908   6.794  67.817  1.00  0.00    -0.264 C  
ATOM     13  C   GLU A   1     -10.590   6.862  69.322  1.00  0.00    -0.226 C  
ATOM     14  O   GLU A   1      -9.929   7.987  69.691  1.00  0.00    -0.182 OA 
ATOM     15  OXT GLU A   1     -10.773   5.936  70.100  1.00  0.00    -0.265 OA 
BRANCH  12  16
ATOM     16  CB  GLU A   1      -9.830   5.993  67.077  1.00  0.00    -0.179 C  
BRANCH  16  17
ATOM     17  CG  GLU A   1     -10.268   4.561  66.768  1.00  0.00    -0.174 C  
ATOM     18  CD  GLU A   1      -9.463   3.951  65.650  1.00  0.00    -0.176 C  
ATOM     19  OE2 GLU A   1      -8.956   4.581  64.741  1.00  0.00    -0.143 OA 
ATOM     20  OE1 GLU A   1      -9.389   2.603  65.738  1.00  0.00    -0.114 OA 
ENDBRANCH  16  17
ENDBRANCH  12  16
ENDBRANCH  10  12
ENDBRANCH   7   8
ENDBRANCH   2   3
BRANCH   2  21
HETATM   21  C   UNK A   0     -11.608  13.975  67.580  1.00  0.00    -0.354 C  
BRANCH  21  22
HETATM   22  C   UNK A   0     -10.535  14.999  67.881  1.00  0.00    -0.247 A  
HETATM   23  C   UNK A   0      -9.795  17.310  68.021  1.00  0.00    -0.284 A  
HETATM   24  C   UNK A   0      -8.541  16.905  68.479  1.00  0.00    -0.251 A  
HETATM   25  C   UNK A   0     -10.786  16.370  67.721  1.00  0.00    -0.306 A  
HETATM   26  H   UNK A   0      -9.217  20.668  68.190  1.00  0.00     0.000 HD 
HETATM   27  C   UNK A   0      -8.275  15.543  68.614  1.00  0.00    -0.162 A  
HETATM   28  C   UNK A   0      -6.874  20.216  69.076  1.00  0.00    -0.249 C  
HETATM   29  N   UNK A   0      -7.582  17.878  68.760  1.00  0.00    -0.285 NA 
HETATM   30  N   UNK A   0      -9.052  19.663  68.243  1.00  0.00    -0.342 N  
HETATM   31  C   UNK A   0      -9.267  14.600  68.324  1.00  0.00    -0.198 A  
HETATM   32  C   UNK A   0     -10.037  18.769  67.871  1.00  0.00    -0.366 C  
HETATM   33  O   UNK A   0     -11.118  19.131  67.416  1.00  0.00    -0.426 OA 
HETATM   34  C   UNK A   0      -7.916  19.202  68.661  1.00  0.00    -0.363 C  
ENDBRANCH  21  22
ENDBRANCH   2  21
TORSDOF 7
ENDMDL
MODEL      174
REMARK 921   NORMALIZED FREE ENERGY PREDICTED BY IDOCK:   -5.16 KCAL/MOL
REMARK 922        TOTAL FREE ENERGY PREDICTED BY IDOCK:   -8.41 KCAL/MOL
REMARK 923 INTER-LIGAND FREE ENERGY PREDICTED BY IDOCK:   -7.29 KCAL/MOL
REMARK 924 INTRA-LIGAND FREE ENERGY PREDICTED BY IDOCK:   -1.12 KCAL/MOL
REMARK 927      BINDING AFFINITY PREDICTED BY RF-SCORE:    0.00 PKD
ROOT
HETATM    1  C   UNK A   0      -6.018  11.944  70.174  1.00  0.00    -0.159 C  
HETATM    2  N   UNK A   0      -6.916  12.164  69.045  1.00  0.00    -0.159 NA 
ENDROOT
BRANCH   2   3
HETATM    3  C   UNK A   0      -7.759  11.148  68.675  1.00  0.00    -0.135 A  
HETATM    4  C   UNK A   0      -9.328   9.855  67.513  1.00  0.00    -0.159 A  
HETATM    5  C   UNK A   0      -8.339  10.888  67.447  1.00  0.00    -0.117 A  
HETATM    6  S   UNK A   0      -8.224   9.943  69.804  1.00  0.00    -0.175 SA 
HETATM    7  C   UNK A   0      -9.431   9.315  68.779  1.00  0.00    -0.150 A  
BRANCH   7   8
HETATM    8  C   UNK A   0     -10.414   8.372  69.282  1.00  0.00    -0.215 C  
HETATM    9  O   UNK A   0     -10.836   7.422  68.631  1.00  0.00    -0.150 OA 
ATOM     10  N   GLU A   1     -10.892   8.646  70.556  1.00  0.00    -0.224 N  
ATOM     11  H   GLU A   1     -10.544   9.465  71.054  1.00  0.00     0.000 HD 
BRANCH  10  12
ATOM     12  CA  GLU A   1     -11.887   7.784  71.201  1.00  0.00    -0.291 C  
ATOM     13  C   GLU A   1     -13.141   8.606  71.550  1.00  0.00    -0.305 C  
ATOM     14  O   GLU A   1     -12.899   9.931  71.714  1.00  0.00    -0.380 OA 
ATOM     15  OXT GLU A   1     -14.231   8.113  71.806  1.00  0.00    -0.409 OA 
BRANCH  12  16
ATOM     16  CB  GLU A   1     -11.281   7.167  72.467  1.00  0.00    -0.327 C  
BRANCH  16  17
ATOM     17  CG  GLU A   1     -11.552   5.667  72.579  1.00  0.00    -0.303 C  
ATOM     18  CD  GLU A   1     -10.407   4.843  72.050  1.00  0.00    -0.197 C  
ATOM     19  OE2 GLU A   1      -9.647   5.202  71.170  1.00  0.00    -0.153 OA 
ATOM     20  OE1 GLU A   1     -10.326   3.626  72.635  1.00  0.00    -0.165 OA 
ENDBRANCH  16  17
ENDBRANCH  12  16
ENDBRANCH  10  12
ENDBRANCH   7   8
ENDBRANCH   2   3
BRANCH   2  21
HETATM   21  C   UNK A   0      -6.364  12.980  67.945  1.00  0.00    -0.134 C  
BRANCH  21  22
HETATM   22  C   UNK A   0      -6.907  14.392  67.979  1.00  0.00    -0.150 A  
HETATM   23  C   UNK A   0      -8.684  15.963  68.507  1.00  0.00    -0.194 A  
HETATM   24  C   UNK A   0      -7.900  17.032  68.074  1.00  0.00    -0.182 A  
HETATM   25  C   UNK A   0      -8.199  14.653  68.461  1.00  0.00    -0.152 A  
HETATM   26  H   UNK A   0     -11.368  17.817  69.507  1.00  0.00     0.000 HD 
HETATM   27  C   UNK A   0      -6.626  16.778  67.567  1.00  0.00    -0.172 A  
HETATM   28  C   UNK A   0     -10.147  19.945  68.826  1.00  0.00    -0.487 C  
HETATM   29  N   UNK A   0      -8.428  18.322  68.133  1.00  0.00    -0.270 NA 
HETATM   30  N   UNK A   0     -10.457  17.585  69.113  1.00  0.00    -0.392 N  
HETATM   31  C   UNK A   0      -6.132  15.469  67.528  1.00  0.00    -0.119 A  
HETATM   32  C   UNK A   0     -10.044  16.270  69.023  1.00  0.00    -0.259 C  
HETATM   33  O   UNK A   0     -10.761  15.331  69.355  1.00  0.00    -0.239 OA 
HETATM   34  C   UNK A   0      -9.664  18.519  68.689  1.00  0.00    -0.365 C  
ENDBRANCH  21  22
ENDBRANCH   2  21
TORSDOF 7
ENDMDL
MODEL      175
REMARK 921   NORMALIZED FREE ENERGY PREDICTED BY IDOCK:   -5.16 KCAL/MOL
REMARK 922        TOTAL FREE ENERGY PREDICTED BY IDOCK:   -8.40 KCAL/MOL
REMARK 923 INTER-LIGAND FREE ENERGY PREDICTED BY IDOCK:   -7.62 KCAL/MOL
REMARK 924 INTRA-LIGAND FREE ENERGY PREDICTED BY IDOCK:   -0.78 KCAL/MOL
REMARK 927      BINDING AFFINITY PREDICTED BY RF-SCORE:    0.00 PKD
ROOT
HETATM    1  C   UNK A   0      -7.990   9.890  64.159  1.00  0.00    -0.150 C  
HETATM    2  N   UNK A   0      -8.628  10.068  65.460  1.00  0.00    -0.144 NA 
ENDROOT
BRANCH   2   3
HETATM    3  C   UNK A   0      -9.676  10.947  65.556  1.00  0.00    -0.233 A  
HETATM    4  C   UNK A   0     -11.577  12.222  65.064  1.00  0.00    -0.394 A  
HETATM    5  C   UNK A   0     -10.822  11.037  64.788  1.00  0.00    -0.234 A  
HETATM    6  S   UNK A   0      -9.701  12.147  66.780  1.00  0.00    -0.212 SA 
HETATM    7  C   UNK A   0     -11.016  12.972  66.078  1.00  0.00    -0.275 A  
BRANCH   7   8
HETATM    8  C   UNK A   0     -11.388  14.299  66.534  1.00  0.00    -0.346 C  
HETATM    9  O   UNK A   0     -12.523  14.754  66.436  1.00  0.00    -0.088 OA 
ATOM     10  N   GLU A   1     -10.347  15.055  67.053  1.00  0.00    -0.265 N  
ATOM     11  H   GLU A   1      -9.409  14.656  67.086  1.00  0.00     0.000 HD 
BRANCH  10  12
ATOM     12  CA  GLU A   1     -10.566  16.414  67.556  1.00  0.00    -0.309 C  
ATOM     13  C   GLU A   1     -10.238  17.437  66.453  1.00  0.00    -0.338 C  
ATOM     14  O   GLU A   1      -9.355  16.981  65.529  1.00  0.00    -0.457 OA 
ATOM     15  OXT GLU A   1     -10.609  18.603  66.471  1.00  0.00    -0.403 OA 
BRANCH  12  16
ATOM     16  CB  GLU A   1      -9.682  16.650  68.786  1.00  0.00    -0.254 C  
BRANCH  16  17
ATOM     17  CG  GLU A   1      -9.129  15.352  69.372  1.00  0.00    -0.258 C  
ATOM     18  CD  GLU A   1      -7.780  15.000  68.800  1.00  0.00    -0.141 C  
ATOM     19  OE2 GLU A   1      -7.403  15.307  67.683  1.00  0.00    -0.143 OA 
ATOM     20  OE1 GLU A   1      -7.028  14.265  69.650  1.00  0.00    -0.122 OA 
ENDBRANCH  16  17
ENDBRANCH  12  16
ENDBRANCH  10  12
ENDBRANCH   7   8
ENDBRANCH   2   3
BRANCH   2  21
HETATM   21  C   UNK A   0      -7.721  10.012  66.623  1.00  0.00    -0.104 C  
BRANCH  21  22
HETATM   22  C   UNK A   0      -8.407   9.407  67.829  1.00  0.00    -0.115 A  
HETATM   23  C   UNK A   0      -9.921   7.774  68.804  1.00  0.00    -0.181 A  
HETATM   24  C   UNK A   0      -9.654   8.257  70.085  1.00  0.00    -0.167 A  
HETATM   25  C   UNK A   0      -9.308   8.341  67.682  1.00  0.00    -0.158 A  
HETATM   26  H   UNK A   0     -12.019   5.258  69.755  1.00  0.00     0.000 HD 
HETATM   27  C   UNK A   0      -8.781   9.334  70.236  1.00  0.00    -0.246 A  
HETATM   28  C   UNK A   0     -11.685   5.907  72.194  1.00  0.00    -0.287 C  
HETATM   29  N   UNK A   0     -10.293   7.665  71.174  1.00  0.00    -0.200 NA 
HETATM   30  N   UNK A   0     -11.401   6.067  69.819  1.00  0.00    -0.380 N  
HETATM   31  C   UNK A   0      -8.158   9.898  69.117  1.00  0.00    -0.118 A  
HETATM   32  C   UNK A   0     -10.871   6.638  68.679  1.00  0.00    -0.262 C  
HETATM   33  O   UNK A   0     -11.154   6.243  67.552  1.00  0.00    -0.348 OA 
HETATM   34  C   UNK A   0     -11.100   6.576  70.971  1.00  0.00    -0.288 C  
ENDBRANCH  21  22
ENDBRANCH   2  21
TORSDOF 7
ENDMDL
MODEL      176
REMARK 921   NORMALIZED FREE ENERGY PREDICTED BY IDOCK:   -5.12 KCAL/MOL
REMARK 922        TOTAL FREE ENERGY PREDICTED BY IDOCK:   -8.35 KCAL/MOL
REMARK 923 INTER-LIGAND FREE ENERGY PREDICTED BY IDOCK:   -6.16 KCAL/MOL
REMARK 924 INTRA-LIGAND FREE ENERGY PREDICTED BY IDOCK:   -2.18 KCAL/MOL
REMARK 927      BINDING AFFINITY PREDICTED BY RF-SCORE:    0.00 PKD
ROOT
HETATM    1  C   UNK A   0     -12.851  11.636  71.724  1.00  0.00    -0.313 C  
HETATM    2  N   UNK A   0     -12.226  10.554  70.969  1.00  0.00    -0.368 NA 
ENDROOT
BRANCH   2   3
HETATM    3  C   UNK A   0     -11.594  10.863  69.792  1.00  0.00    -0.322 A  
HETATM    4  C   UNK A   0     -11.168  11.575  67.602  1.00  0.00    -0.343 A  
HETATM    5  C   UNK A   0     -12.013  11.675  68.754  1.00  0.00    -0.326 A  
HETATM    6  S   UNK A   0     -10.039  10.230  69.443  1.00  0.00    -0.234 SA 
HETATM    7  C   UNK A   0     -10.093  10.736  67.817  1.00  0.00    -0.174 A  
BRANCH   7   8
HETATM    8  C   UNK A   0      -9.113  10.258  66.858  1.00  0.00    -0.143 C  
HETATM    9  O   UNK A   0      -8.800  10.875  65.846  1.00  0.00    -0.177 OA 
ATOM     10  N   GLU A   1      -8.579   9.009  67.138  1.00  0.00    -0.116 N  
ATOM     11  H   GLU A   1      -8.890   8.509  67.971  1.00  0.00     0.000 HD 
BRANCH  10  12
ATOM     12  CA  GLU A   1      -7.577   8.392  66.264  1.00  0.00    -0.086 C  
ATOM     13  C   GLU A   1      -8.232   7.281  65.423  1.00  0.00    -0.137 C  
ATOM     14  O   GLU A   1      -9.339   6.744  65.993  1.00  0.00    -0.109 OA 
ATOM     15  OXT GLU A   1      -7.735   6.811  64.409  1.00  0.00    -0.098 OA 
BRANCH  12  16
ATOM     16  CB  GLU A   1      -6.441   7.818  67.118  1.00  0.00    -0.055 C  
BRANCH  16  17
ATOM     17  CG  GLU A   1      -6.813   7.707  68.597  1.00  0.00    -0.066 C  
ATOM     18  CD  GLU A   1      -6.929   6.274  69.047  1.00  0.00    -0.068 C  
ATOM     19  OE2 GLU A   1      -7.253   5.348  68.325  1.00  0.00    -0.068 OA 
ATOM     20  OE1 GLU A   1      -6.670   6.118  70.365  1.00  0.00    -0.049 OA 
ENDBRANCH  16  17
ENDBRANCH  12  16
ENDBRANCH  10  12
ENDBRANCH   7   8
ENDBRANCH   2   3
BRANCH   2  21
HETATM   21  C   UNK A   0     -12.942   9.264  71.000  1.00  0.00    -0.119 C  
BRANCH  21  22
HETATM   22  C   UNK A   0     -12.042   8.145  71.480  1.00  0.00    -0.332 A  
HETATM   23  C   UNK A   0     -10.742   6.140  71.041  1.00  0.00    -0.317 A  
HETATM   24  C   UNK A   0     -10.334   6.084  72.374  1.00  0.00    -0.194 A  
HETATM   25  C   UNK A   0     -11.589   7.157  70.593  1.00  0.00    -0.354 A  
HETATM   26  H   UNK A   0      -8.958   3.437  69.965  1.00  0.00     0.000 HD 
HETATM   27  C   UNK A   0     -10.802   7.046  73.268  1.00  0.00    -0.345 A  
HETATM   28  C   UNK A   0      -8.030   3.120  72.314  1.00  0.00    -0.059 C  
HETATM   29  N   UNK A   0      -9.492   5.047  72.777  1.00  0.00    -0.138 NA 
HETATM   30  N   UNK A   0      -9.349   4.140  70.592  1.00  0.00    -0.133 N  
HETATM   31  C   UNK A   0     -11.643   8.072  72.821  1.00  0.00    -0.390 A  
HETATM   32  C   UNK A   0     -10.238   5.086  70.121  1.00  0.00    -0.259 C  
HETATM   33  O   UNK A   0     -10.635   5.096  68.959  1.00  0.00    -0.151 OA 
HETATM   34  C   UNK A   0      -9.021   4.161  71.845  1.00  0.00    -0.119 C  
ENDBRANCH  21  22
ENDBRANCH   2  21
TORSDOF 7
ENDMDL
MODEL      177
REMARK 921   NORMALIZED FREE ENERGY PREDICTED BY IDOCK:   -5.12 KCAL/MOL
REMARK 922        TOTAL FREE ENERGY PREDICTED BY IDOCK:   -8.34 KCAL/MOL
REMARK 923 INTER-LIGAND FREE ENERGY PREDICTED BY IDOCK:   -6.68 KCAL/MOL
REMARK 924 INTRA-LIGAND FREE ENERGY PREDICTED BY IDOCK:   -1.67 KCAL/MOL
REMARK 927      BINDING AFFINITY PREDICTED BY RF-SCORE:    0.00 PKD
ROOT
HETATM    1  C   UNK A   0      -8.758  10.311  64.328  1.00  0.00    -0.206 C  
HETATM    2  N   UNK A   0      -8.178  10.100  65.651  1.00  0.00    -0.144 NA 
ENDROOT
BRANCH   2   3
HETATM    3  C   UNK A   0      -8.222   8.840  66.188  1.00  0.00    -0.117 A  
HETATM    4  C   UNK A   0      -8.971   6.741  66.908  1.00  0.00    -0.133 A  
HETATM    5  C   UNK A   0      -9.159   7.838  66.008  1.00  0.00    -0.169 A  
HETATM    6  S   UNK A   0      -6.982   8.293  67.239  1.00  0.00    -0.076 SA 
HETATM    7  C   UNK A   0      -7.859   6.909  67.707  1.00  0.00    -0.113 A  
BRANCH   7   8
HETATM    8  C   UNK A   0      -7.428   6.106  68.838  1.00  0.00    -0.087 C  
HETATM    9  O   UNK A   0      -6.263   5.772  69.026  1.00  0.00    -0.026 OA 
ATOM     10  N   GLU A   1      -8.446   5.690  69.684  1.00  0.00    -0.109 N  
ATOM     11  H   GLU A   1      -9.408   5.958  69.476  1.00  0.00     0.000 HD 
BRANCH  10  12
ATOM     12  CA  GLU A   1      -8.169   4.875  70.870  1.00  0.00    -0.095 C  
ATOM     13  C   GLU A   1      -8.561   3.410  70.598  1.00  0.00    -0.070 C  
ATOM     14  O   GLU A   1      -9.516   3.267  69.646  1.00  0.00    -0.164 OA 
ATOM     15  OXT GLU A   1      -8.171   2.464  71.269  1.00  0.00    -0.055 OA 
BRANCH  12  16
ATOM     16  CB  GLU A   1      -8.958   5.427  72.063  1.00  0.00    -0.142 C  
BRANCH  16  17
ATOM     17  CG  GLU A   1     -10.461   5.174  71.944  1.00  0.00    -0.272 C  
ATOM     18  CD  GLU A   1     -11.274   6.295  72.539  1.00  0.00    -0.279 C  
ATOM     19  OE2 GLU A   1     -10.904   7.004  73.457  1.00  0.00    -0.341 OA 
ATOM     20  OE1 GLU A   1     -12.493   6.415  71.966  1.00  0.00    -0.333 OA 
ENDBRANCH  16  17
ENDBRANCH  12  16
ENDBRANCH  10  12
ENDBRANCH   7   8
ENDBRANCH   2   3
BRANCH   2  21
HETATM   21  C   UNK A   0      -8.347  11.216  66.602  1.00  0.00    -0.160 C  
BRANCH  21  22
HETATM   22  C   UNK A   0      -9.527  10.984  67.521  1.00  0.00    -0.175 A  
HETATM   23  C   UNK A   0     -10.451  10.156  69.611  1.00  0.00    -0.282 A  
HETATM   24  C   UNK A   0     -11.726  10.587  69.245  1.00  0.00    -0.209 A  
HETATM   25  C   UNK A   0      -9.358  10.347  68.760  1.00  0.00    -0.175 A  
HETATM   26  H   UNK A   0     -11.298   8.977  72.698  1.00  0.00     0.000 HD 
HETATM   27  C   UNK A   0     -11.907  11.196  68.004  1.00  0.00    -0.203 A  
HETATM   28  C   UNK A   0     -13.708   9.697  72.307  1.00  0.00    -0.384 C  
HETATM   29  N   UNK A   0     -12.788  10.369  70.124  1.00  0.00    -0.540 NA 
HETATM   30  N   UNK A   0     -11.393   9.386  71.769  1.00  0.00    -0.375 N  
HETATM   31  C   UNK A   0     -10.814  11.398  67.153  1.00  0.00    -0.316 A  
HETATM   32  C   UNK A   0     -10.299   9.494  70.933  1.00  0.00    -0.302 C  
HETATM   33  O   UNK A   0      -9.192   9.062  71.239  1.00  0.00    -0.238 OA 
HETATM   34  C   UNK A   0     -12.543   9.815  71.352  1.00  0.00    -0.386 C  
ENDBRANCH  21  22
ENDBRANCH   2  21
TORSDOF 7
ENDMDL
MODEL      178
REMARK 921   NORMALIZED FREE ENERGY PREDICTED BY IDOCK:   -5.11 KCAL/MOL
REMARK 922        TOTAL FREE ENERGY PREDICTED BY IDOCK:   -8.33 KCAL/MOL
REMARK 923 INTER-LIGAND FREE ENERGY PREDICTED BY IDOCK:   -7.39 KCAL/MOL
REMARK 924 INTRA-LIGAND FREE ENERGY PREDICTED BY IDOCK:   -0.95 KCAL/MOL
REMARK 927      BINDING AFFINITY PREDICTED BY RF-SCORE:    0.00 PKD
ROOT
HETATM    1  C   UNK A   0     -13.776   9.286  70.984  1.00  0.00     0.001 C  
HETATM    2  N   UNK A   0     -12.478   9.644  70.420  1.00  0.00    -0.484 NA 
ENDROOT
BRANCH   2   3
HETATM    3  C   UNK A   0     -11.373   8.947  70.838  1.00  0.00    -0.283 A  
HETATM    4  C   UNK A   0      -9.233   8.410  71.624  1.00  0.00    -0.271 A  
HETATM    5  C   UNK A   0     -10.284   9.381  71.572  1.00  0.00    -0.223 A  
HETATM    6  S   UNK A   0     -11.204   7.279  70.480  1.00  0.00    -0.279 SA 
HETATM    7  C   UNK A   0      -9.576   7.239  70.979  1.00  0.00    -0.158 A  
BRANCH   7   8
HETATM    8  C   UNK A   0      -8.735   6.093  70.679  1.00  0.00    -0.139 C  
HETATM    9  O   UNK A   0      -7.515   6.158  70.574  1.00  0.00    -0.085 OA 
ATOM     10  N   GLU A   1      -9.418   4.905  70.465  1.00  0.00    -0.154 N  
ATOM     11  H   GLU A   1     -10.437   4.896  70.525  1.00  0.00     0.000 HD 
BRANCH  10  12
ATOM     12  CA  GLU A   1      -8.709   3.661  70.154  1.00  0.00    -0.069 C  
ATOM     13  C   GLU A   1      -8.819   3.360  68.648  1.00  0.00    -0.114 C  
ATOM     14  O   GLU A   1      -9.908   3.912  68.058  1.00  0.00    -0.110 OA 
ATOM     15  OXT GLU A   1      -8.089   2.579  68.053  1.00  0.00    -0.058 OA 
BRANCH  12  16
ATOM     16  CB  GLU A   1      -9.310   2.513  70.974  1.00  0.00    -0.214 C  
BRANCH  16  17
ATOM     17  CG  GLU A   1      -9.937   2.991  72.284  1.00  0.00    -0.237 C  
ATOM     18  CD  GLU A   1      -8.931   3.054  73.404  1.00  0.00    -0.085 C  
ATOM     19  OE2 GLU A   1      -7.948   2.340  73.490  1.00  0.00    -0.048 OA 
ATOM     20  OE1 GLU A   1      -9.252   3.973  74.343  1.00  0.00    -0.101 OA 
ENDBRANCH  16  17
ENDBRANCH  12  16
ENDBRANCH  10  12
ENDBRANCH   7   8
ENDBRANCH   2   3
BRANCH   2  21
HETATM   21  C   UNK A   0     -12.275  11.082  70.157  1.00  0.00    -0.344 C  
BRANCH  21  22
HETATM   22  C   UNK A   0     -11.740  11.317  68.761  1.00  0.00    -0.405 A  
HETATM   23  C   UNK A   0     -10.635  10.505  66.754  1.00  0.00    -0.284 A  
HETATM   24  C   UNK A   0     -10.777  11.751  66.143  1.00  0.00    -0.277 A  
HETATM   25  C   UNK A   0     -11.108  10.284  68.051  1.00  0.00    -0.336 A  
HETATM   26  H   UNK A   0      -9.165   8.929  64.108  1.00  0.00     0.000 HD 
HETATM   27  C   UNK A   0     -11.379  12.790  66.852  1.00  0.00    -0.371 A  
HETATM   28  C   UNK A   0      -9.328  11.074  62.746  1.00  0.00    -0.372 C  
HETATM   29  N   UNK A   0     -10.285  11.926  64.850  1.00  0.00    -0.263 NA 
HETATM   30  N   UNK A   0      -9.581   9.670  64.673  1.00  0.00    -0.436 N  
HETATM   31  C   UNK A   0     -11.862  12.570  68.147  1.00  0.00    -0.371 A  
HETATM   32  C   UNK A   0      -9.972   9.426  65.975  1.00  0.00    -0.281 C  
HETATM   33  O   UNK A   0      -9.794   8.343  66.524  1.00  0.00    -0.242 OA 
HETATM   34  C   UNK A   0      -9.751  10.857  64.181  1.00  0.00    -0.296 C  
ENDBRANCH  21  22
ENDBRANCH   2  21
TORSDOF 7
ENDMDL
MODEL      179
REMARK 921   NORMALIZED FREE ENERGY PREDICTED BY IDOCK:   -5.10 KCAL/MOL
REMARK 922        TOTAL FREE ENERGY PREDICTED BY IDOCK:   -8.32 KCAL/MOL
REMARK 923 INTER-LIGAND FREE ENERGY PREDICTED BY IDOCK:   -7.76 KCAL/MOL
REMARK 924 INTRA-LIGAND FREE ENERGY PREDICTED BY IDOCK:   -0.56 KCAL/MOL
REMARK 927      BINDING AFFINITY PREDICTED BY RF-SCORE:    0.00 PKD
ROOT
HETATM    1  C   UNK A   0      -7.195  10.208  66.642  1.00  0.00    -0.105 C  
HETATM    2  N   UNK A   0      -8.145   9.936  65.567  1.00  0.00    -0.122 NA 
ENDROOT
BRANCH   2   3
HETATM    3  C   UNK A   0      -9.251  10.738  65.458  1.00  0.00    -0.202 A  
HETATM    4  C   UNK A   0     -11.083  11.917  64.598  1.00  0.00    -0.373 A  
HETATM    5  C   UNK A   0     -10.197  10.802  64.451  1.00  0.00    -0.432 A  
HETATM    6  S   UNK A   0      -9.646  11.857  66.697  1.00  0.00    -0.214 SA 
HETATM    7  C   UNK A   0     -10.826  12.637  65.747  1.00  0.00    -0.274 A  
BRANCH   7   8
HETATM    8  C   UNK A   0     -11.393  13.907  66.164  1.00  0.00    -0.320 C  
HETATM    9  O   UNK A   0     -12.576  14.199  66.023  1.00  0.00    -0.478 OA 
ATOM     10  N   GLU A   1     -10.484  14.809  66.699  1.00  0.00    -0.281 N  
ATOM     11  H   GLU A   1      -9.501  14.544  66.768  1.00  0.00     0.000 HD 
BRANCH  10  12
ATOM     12  CA  GLU A   1     -10.905  16.132  67.167  1.00  0.00    -0.216 C  
ATOM     13  C   GLU A   1     -10.246  17.224  66.302  1.00  0.00    -0.342 C  
ATOM     14  O   GLU A   1      -9.085  16.834  65.720  1.00  0.00    -0.515 OA 
ATOM     15  OXT GLU A   1     -10.637  18.382  66.253  1.00  0.00    -0.395 OA 
BRANCH  12  16
ATOM     16  CB  GLU A   1     -10.507  16.302  68.638  1.00  0.00    -0.282 C  
BRANCH  16  17
ATOM     17  CG  GLU A   1     -10.607  14.998  69.429  1.00  0.00    -0.262 C  
ATOM     18  CD  GLU A   1     -11.956  14.832  70.081  1.00  0.00    -0.312 C  
ATOM     19  OE2 GLU A   1     -12.666  15.753  70.441  1.00  0.00    -0.393 OA 
ATOM     20  OE1 GLU A   1     -12.291  13.534  70.263  1.00  0.00    -0.326 OA 
ENDBRANCH  16  17
ENDBRANCH  12  16
ENDBRANCH  10  12
ENDBRANCH   7   8
ENDBRANCH   2   3
BRANCH   2  21
HETATM   21  C   UNK A   0      -8.344   8.510  65.243  1.00  0.00    -0.159 C  
BRANCH  21  22
HETATM   22  C   UNK A   0      -8.197   7.639  66.472  1.00  0.00    -0.125 A  
HETATM   23  C   UNK A   0      -9.181   6.419  68.330  1.00  0.00    -0.112 A  
HETATM   24  C   UNK A   0      -7.921   5.984  68.741  1.00  0.00    -0.104 A  
HETATM   25  C   UNK A   0      -9.324   7.241  67.208  1.00  0.00    -0.156 A  
HETATM   26  H   UNK A   0     -10.974   4.755  70.708  1.00  0.00     0.000 HD 
HETATM   27  C   UNK A   0      -6.794   6.397  68.031  1.00  0.00    -0.070 A  
HETATM   28  C   UNK A   0      -8.817   3.786  71.650  1.00  0.00    -0.140 C  
HETATM   29  N   UNK A   0      -7.826   5.169  69.869  1.00  0.00    -0.074 NA 
HETATM   30  N   UNK A   0     -10.174   5.107  70.182  1.00  0.00    -0.270 N  
HETATM   31  C   UNK A   0      -6.934   7.212  66.902  1.00  0.00    -0.077 A  
HETATM   32  C   UNK A   0     -10.357   5.973  69.121  1.00  0.00    -0.229 C  
HETATM   33  O   UNK A   0     -11.463   6.396  68.799  1.00  0.00    -0.283 OA 
HETATM   34  C   UNK A   0      -8.969   4.750  70.496  1.00  0.00    -0.116 C  
ENDBRANCH  21  22
ENDBRANCH   2  21
TORSDOF 7
ENDMDL
MODEL      180
REMARK 921   NORMALIZED FREE ENERGY PREDICTED BY IDOCK:   -5.10 KCAL/MOL
REMARK 922        TOTAL FREE ENERGY PREDICTED BY IDOCK:   -8.31 KCAL/MOL
REMARK 923 INTER-LIGAND FREE ENERGY PREDICTED BY IDOCK:   -6.68 KCAL/MOL
REMARK 924 INTRA-LIGAND FREE ENERGY PREDICTED BY IDOCK:   -1.63 KCAL/MOL
REMARK 927      BINDING AFFINITY PREDICTED BY RF-SCORE:    0.00 PKD
ROOT
HETATM    1  C   UNK A   0      -8.925  12.747  66.707  1.00  0.00    -0.188 C  
HETATM    2  N   UNK A   0      -9.751  11.712  67.320  1.00  0.00    -0.180 NA 
ENDROOT
BRANCH   2   3
HETATM    3  C   UNK A   0      -9.266  11.062  68.426  1.00  0.00    -0.175 A  
HETATM    4  C   UNK A   0      -7.893   9.847  69.883  1.00  0.00    -0.182 A  
HETATM    5  C   UNK A   0      -7.967  10.704  68.738  1.00  0.00    -0.135 A  
HETATM    6  S   UNK A   0     -10.320  10.585  69.692  1.00  0.00    -0.146 SA 
HETATM    7  C   UNK A   0      -9.132   9.626  70.448  1.00  0.00    -0.191 A  
BRANCH   7   8
HETATM    8  C   UNK A   0      -9.490   8.701  71.509  1.00  0.00    -0.250 C  
HETATM    9  O   UNK A   0      -9.101   8.816  72.666  1.00  0.00    -0.354 OA 
ATOM     10  N   GLU A   1     -10.276   7.629  71.113  1.00  0.00    -0.196 N  
ATOM     11  H   GLU A   1     -10.551   7.546  70.134  1.00  0.00     0.000 HD 
BRANCH  10  12
ATOM     12  CA  GLU A   1     -10.720   6.612  72.070  1.00  0.00    -0.219 C  
ATOM     13  C   GLU A   1     -10.061   5.260  71.737  1.00  0.00    -0.200 C  
ATOM     14  O   GLU A   1      -9.699   5.133  70.437  1.00  0.00    -0.172 OA 
ATOM     15  OXT GLU A   1      -9.996   4.322  72.520  1.00  0.00    -0.147 OA 
BRANCH  12  16
ATOM     16  CB  GLU A   1     -12.247   6.491  72.012  1.00  0.00    -0.343 C  
BRANCH  16  17
ATOM     17  CG  GLU A   1     -12.873   7.420  70.972  1.00  0.00    -0.226 C  
ATOM     18  CD  GLU A   1     -13.760   8.462  71.604  1.00  0.00    -0.364 C  
ATOM     19  OE2 GLU A   1     -14.371   8.309  72.646  1.00  0.00    -0.309 OA 
ATOM     20  OE1 GLU A   1     -13.843   9.593  70.867  1.00  0.00    -0.173 OA 
ENDBRANCH  16  17
ENDBRANCH  12  16
ENDBRANCH  10  12
ENDBRANCH   7   8
ENDBRANCH   2   3
BRANCH   2  21
HETATM   21  C   UNK A   0     -10.540  10.891  66.381  1.00  0.00    -0.229 C  
BRANCH  21  22
HETATM   22  C   UNK A   0      -9.888   9.546  66.141  1.00  0.00    -0.343 A  
HETATM   23  C   UNK A   0      -9.796   7.145  66.505  1.00  0.00    -0.189 A  
HETATM   24  C   UNK A   0      -8.691   7.036  65.660  1.00  0.00    -0.065 A  
HETATM   25  C   UNK A   0     -10.392   8.386  66.749  1.00  0.00    -0.357 A  
HETATM   26  H   UNK A   0     -10.107   3.817  67.186  1.00  0.00     0.000 HD 
HETATM   27  C   UNK A   0      -8.168   8.188  65.074  1.00  0.00    -0.157 A  
HETATM   28  C   UNK A   0      -8.124   3.324  65.668  1.00  0.00    -0.090 C  
HETATM   29  N   UNK A   0      -8.126   5.778  65.451  1.00  0.00    -0.124 NA 
HETATM   30  N   UNK A   0      -9.736   4.686  66.805  1.00  0.00    -0.181 N  
HETATM   31  C   UNK A   0      -8.767   9.431  65.308  1.00  0.00    -0.204 A  
HETATM   32  C   UNK A   0     -10.314   5.898  67.127  1.00  0.00    -0.233 C  
HETATM   33  O   UNK A   0     -11.251   5.993  67.914  1.00  0.00    -0.245 OA 
HETATM   34  C   UNK A   0      -8.713   4.674  66.009  1.00  0.00    -0.116 C  
ENDBRANCH  21  22
ENDBRANCH   2  21
TORSDOF 7
ENDMDL
MODEL      181
REMARK 921   NORMALIZED FREE ENERGY PREDICTED BY IDOCK:   -5.09 KCAL/MOL
REMARK 922        TOTAL FREE ENERGY PREDICTED BY IDOCK:   -8.30 KCAL/MOL
REMARK 923 INTER-LIGAND FREE ENERGY PREDICTED BY IDOCK:   -8.86 KCAL/MOL
REMARK 924 INTRA-LIGAND FREE ENERGY PREDICTED BY IDOCK:    0.56 KCAL/MOL
REMARK 927      BINDING AFFINITY PREDICTED BY RF-SCORE:    0.00 PKD
ROOT
HETATM    1  C   UNK A   0     -10.679  13.244  64.631  1.00  0.00    -0.400 C  
HETATM    2  N   UNK A   0      -9.654  13.824  65.494  1.00  0.00    -0.519 NA 
ENDROOT
BRANCH   2   3
HETATM    3  C   UNK A   0      -9.246  13.110  66.590  1.00  0.00    -0.215 A  
HETATM    4  C   UNK A   0      -7.935  12.189  68.298  1.00  0.00    -0.163 A  
HETATM    5  C   UNK A   0      -8.117  13.266  67.374  1.00  0.00    -0.179 A  
HETATM    6  S   UNK A   0     -10.198  11.817  67.196  1.00  0.00    -0.216 SA 
HETATM    7  C   UNK A   0      -8.965  11.272  68.237  1.00  0.00    -0.172 A  
BRANCH   7   8
HETATM    8  C   UNK A   0      -9.064   9.979  68.892  1.00  0.00    -0.159 C  
HETATM    9  O   UNK A   0      -8.344   9.025  68.619  1.00  0.00    -0.120 OA 
ATOM     10  N   GLU A   1     -10.080   9.874  69.831  1.00  0.00    -0.245 N  
ATOM     11  H   GLU A   1     -10.683  10.678  70.006  1.00  0.00     0.000 HD 
BRANCH  10  12
ATOM     12  CA  GLU A   1     -10.306   8.633  70.577  1.00  0.00    -0.202 C  
ATOM     13  C   GLU A   1     -11.797   8.508  70.942  1.00  0.00    -0.217 C  
ATOM     14  O   GLU A   1     -12.444   9.697  71.014  1.00  0.00    -0.309 OA 
ATOM     15  OXT GLU A   1     -12.330   7.461  71.284  1.00  0.00    -0.327 OA 
BRANCH  12  16
ATOM     16  CB  GLU A   1      -9.443   8.637  71.845  1.00  0.00    -0.369 C  
BRANCH  16  17
ATOM     17  CG  GLU A   1      -8.465   7.463  71.896  1.00  0.00    -0.117 C  
ATOM     18  CD  GLU A   1      -7.259   7.767  72.747  1.00  0.00    -0.083 C  
ATOM     19  OE2 GLU A   1      -6.795   8.880  72.914  1.00  0.00    -0.321 OA 
ATOM     20  OE1 GLU A   1      -6.710   6.655  73.288  1.00  0.00    -0.074 OA 
ENDBRANCH  16  17
ENDBRANCH  12  16
ENDBRANCH  10  12
ENDBRANCH   7   8
ENDBRANCH   2   3
BRANCH   2  21
HETATM   21  C   UNK A   0      -9.723  15.289  65.664  1.00  0.00    -0.325 C  
BRANCH  21  22
HETATM   22  C   UNK A   0     -10.191  15.661  67.054  1.00  0.00    -0.274 A  
HETATM   23  C   UNK A   0     -11.371  15.113  69.107  1.00  0.00    -0.311 A  
HETATM   24  C   UNK A   0     -11.029  16.347  69.661  1.00  0.00    -0.329 A  
HETATM   25  C   UNK A   0     -10.961  14.768  67.816  1.00  0.00    -0.294 A  
HETATM   26  H   UNK A   0     -13.018  13.894  71.836  1.00  0.00     0.000 HD 
HETATM   27  C   UNK A   0     -10.288  17.250  68.900  1.00  0.00    -0.352 A  
HETATM   28  C   UNK A   0     -12.504  16.043  73.100  1.00  0.00    -0.633 C  
HETATM   29  N   UNK A   0     -11.465  16.650  70.951  1.00  0.00    -0.483 NA 
HETATM   30  N   UNK A   0     -12.504  14.538  71.235  1.00  0.00    -0.324 N  
HETATM   31  C   UNK A   0      -9.867  16.905  67.611  1.00  0.00    -0.259 A  
HETATM   32  C   UNK A   0     -12.178  14.183  69.940  1.00  0.00    -0.359 C  
HETATM   33  O   UNK A   0     -12.530  13.119  69.441  1.00  0.00    -0.090 OA 
HETATM   34  C   UNK A   0     -12.145  15.704  71.672  1.00  0.00    -0.426 C  
ENDBRANCH  21  22
ENDBRANCH   2  21
TORSDOF 7
ENDMDL
MODEL      182
REMARK 921   NORMALIZED FREE ENERGY PREDICTED BY IDOCK:   -5.08 KCAL/MOL
REMARK 922        TOTAL FREE ENERGY PREDICTED BY IDOCK:   -8.30 KCAL/MOL
REMARK 923 INTER-LIGAND FREE ENERGY PREDICTED BY IDOCK:   -7.79 KCAL/MOL
REMARK 924 INTRA-LIGAND FREE ENERGY PREDICTED BY IDOCK:   -0.50 KCAL/MOL
REMARK 927      BINDING AFFINITY PREDICTED BY RF-SCORE:    0.00 PKD
ROOT
HETATM    1  C   UNK A   0     -10.398   8.835  69.095  1.00  0.00    -0.217 C  
HETATM    2  N   UNK A   0     -11.474   9.484  69.838  1.00  0.00    -0.429 NA 
ENDROOT
BRANCH   2   3
HETATM    3  C   UNK A   0     -11.526  10.854  69.844  1.00  0.00    -0.323 A  
HETATM    4  C   UNK A   0     -12.229  13.064  70.172  1.00  0.00    -0.342 A  
HETATM    5  C   UNK A   0     -12.307  11.702  70.608  1.00  0.00    -0.437 A  
HETATM    6  S   UNK A   0     -10.509  11.773  68.813  1.00  0.00    -0.164 SA 
HETATM    7  C   UNK A   0     -11.343  13.225  69.126  1.00  0.00    -0.282 A  
BRANCH   7   8
HETATM    8  C   UNK A   0     -11.107  14.406  68.315  1.00  0.00    -0.259 C  
HETATM    9  O   UNK A   0     -11.946  14.887  67.561  1.00  0.00    -0.314 OA 
ATOM     10  N   GLU A   1      -9.830  14.939  68.411  1.00  0.00    -0.210 N  
ATOM     11  H   GLU A   1      -9.147  14.490  69.022  1.00  0.00     0.000 HD 
BRANCH  10  12
ATOM     12  CA  GLU A   1      -9.440  16.132  67.654  1.00  0.00    -0.220 C  
ATOM     13  C   GLU A   1      -7.929  16.091  67.360  1.00  0.00    -0.159 C  
ATOM     14  O   GLU A   1      -7.218  15.351  68.246  1.00  0.00    -0.109 OA 
ATOM     15  OXT GLU A   1      -7.383  16.773  66.503  1.00  0.00    -0.242 OA 
BRANCH  12  16
ATOM     16  CB  GLU A   1      -9.794  17.385  68.463  1.00  0.00    -0.320 C  
BRANCH  16  17
ATOM     17  CG  GLU A   1     -10.592  18.405  67.650  1.00  0.00    -0.437 C  
ATOM     18  CD  GLU A   1      -9.698  19.386  66.936  1.00  0.00    -0.343 C  
ATOM     19  OE2 GLU A   1      -8.600  19.732  67.331  1.00  0.00    -0.300 OA 
ATOM     20  OE1 GLU A   1     -10.261  19.881  65.811  1.00  0.00    -0.464 OA 
ENDBRANCH  16  17
ENDBRANCH  12  16
ENDBRANCH  10  12
ENDBRANCH   7   8
ENDBRANCH   2   3
BRANCH   2  21
HETATM   21  C   UNK A   0     -11.872   8.815  71.092  1.00  0.00    -0.295 C  
BRANCH  21  22
HETATM   22  C   UNK A   0     -10.685   8.170  71.774  1.00  0.00    -0.313 A  
HETATM   23  C   UNK A   0      -9.628   6.237  72.801  1.00  0.00    -0.155 A  
HETATM   24  C   UNK A   0      -8.455   6.962  73.012  1.00  0.00    -0.114 A  
HETATM   25  C   UNK A   0     -10.737   6.831  72.191  1.00  0.00    -0.249 A  
HETATM   26  H   UNK A   0      -8.494   3.270  74.046  1.00  0.00     0.000 HD 
HETATM   27  C   UNK A   0      -8.405   8.300  72.626  1.00  0.00    -0.235 A  
HETATM   28  C   UNK A   0      -6.230   4.336  74.511  1.00  0.00    -0.042 C  
HETATM   29  N   UNK A   0      -7.376   6.330  73.630  1.00  0.00    -0.087 NA 
HETATM   30  N   UNK A   0      -8.511   4.254  73.780  1.00  0.00    -0.092 N  
HETATM   31  C   UNK A   0      -9.509   8.896  72.005  1.00  0.00    -0.249 A  
HETATM   32  C   UNK A   0      -9.651   4.818  73.242  1.00  0.00    -0.129 C  
HETATM   33  O   UNK A   0     -10.697   4.190  73.111  1.00  0.00    -0.175 OA 
HETATM   34  C   UNK A   0      -7.462   4.998  73.939  1.00  0.00    -0.087 C  
ENDBRANCH  21  22
ENDBRANCH   2  21
TORSDOF 7
ENDMDL
MODEL      183
REMARK 921   NORMALIZED FREE ENERGY PREDICTED BY IDOCK:   -5.07 KCAL/MOL
REMARK 922        TOTAL FREE ENERGY PREDICTED BY IDOCK:   -8.28 KCAL/MOL
REMARK 923 INTER-LIGAND FREE ENERGY PREDICTED BY IDOCK:   -7.23 KCAL/MOL
REMARK 924 INTRA-LIGAND FREE ENERGY PREDICTED BY IDOCK:   -1.05 KCAL/MOL
REMARK 927      BINDING AFFINITY PREDICTED BY RF-SCORE:    0.00 PKD
ROOT
HETATM    1  C   UNK A   0      -7.026  11.471  66.829  1.00  0.00    -0.108 C  
HETATM    2  N   UNK A   0      -7.728  11.759  68.076  1.00  0.00    -0.115 NA 
ENDROOT
BRANCH   2   3
HETATM    3  C   UNK A   0      -7.519  10.929  69.147  1.00  0.00    -0.130 A  
HETATM    4  C   UNK A   0      -6.497   9.707  70.863  1.00  0.00    -0.083 A  
HETATM    5  C   UNK A   0      -6.433  10.846  69.999  1.00  0.00    -0.151 A  
HETATM    6  S   UNK A   0      -8.713   9.791  69.617  1.00  0.00    -0.211 SA 
HETATM    7  C   UNK A   0      -7.661   8.987  70.688  1.00  0.00    -0.121 A  
BRANCH   7   8
HETATM    8  C   UNK A   0      -8.021   7.699  71.255  1.00  0.00    -0.094 C  
HETATM    9  O   UNK A   0      -7.503   7.235  72.265  1.00  0.00    -0.081 OA 
ATOM     10  N   GLU A   1      -8.975   6.989  70.539  1.00  0.00    -0.154 N  
ATOM     11  H   GLU A   1      -9.358   7.391  69.684  1.00  0.00     0.000 HD 
BRANCH  10  12
ATOM     12  CA  GLU A   1      -9.443   5.674  70.986  1.00  0.00    -0.166 C  
ATOM     13  C   GLU A   1      -9.573   4.729  69.776  1.00  0.00    -0.179 C  
ATOM     14  O   GLU A   1      -9.773   5.371  68.599  1.00  0.00    -0.123 OA 
ATOM     15  OXT GLU A   1      -9.641   3.511  69.867  1.00  0.00    -0.188 OA 
BRANCH  12  16
ATOM     16  CB  GLU A   1     -10.794   5.827  71.693  1.00  0.00    -0.316 C  
BRANCH  16  17
ATOM     17  CG  GLU A   1     -11.682   6.889  71.043  1.00  0.00    -0.392 C  
ATOM     18  CD  GLU A   1     -11.755   8.149  71.866  1.00  0.00    -0.310 C  
ATOM     19  OE2 GLU A   1     -11.644   8.189  73.078  1.00  0.00    -0.309 OA 
ATOM     20  OE1 GLU A   1     -11.998   9.248  71.117  1.00  0.00    -0.293 OA 
ENDBRANCH  16  17
ENDBRANCH  12  16
ENDBRANCH  10  12
ENDBRANCH   7   8
ENDBRANCH   2   3
BRANCH   2  21
HETATM   21  C   UNK A   0      -9.097  12.289  67.925  1.00  0.00    -0.190 C  
BRANCH  21  22
HETATM   22  C   UNK A   0      -9.101  13.802  67.883  1.00  0.00    -0.193 A  
HETATM   23  C   UNK A   0      -9.796  15.888  66.846  1.00  0.00    -0.251 A  
HETATM   24  C   UNK A   0      -9.137  16.624  67.830  1.00  0.00    -0.218 A  
HETATM   25  C   UNK A   0      -9.780  14.490  66.865  1.00  0.00    -0.257 A  
HETATM   26  H   UNK A   0     -11.087  18.553  65.152  1.00  0.00     0.000 HD 
HETATM   27  C   UNK A   0      -8.437  15.948  68.829  1.00  0.00    -0.204 A  
HETATM   28  C   UNK A   0     -10.015  20.136  66.833  1.00  0.00    -0.600 C  
HETATM   29  N   UNK A   0      -9.175  18.017  67.768  1.00  0.00    -0.259 NA 
HETATM   30  N   UNK A   0     -10.560  18.021  65.845  1.00  0.00    -0.326 N  
HETATM   31  C   UNK A   0      -8.427  14.549  68.857  1.00  0.00    -0.110 A  
HETATM   32  C   UNK A   0     -10.515  16.642  65.786  1.00  0.00    -0.311 C  
HETATM   33  O   UNK A   0     -11.051  16.003  64.886  1.00  0.00    -0.431 OA 
HETATM   34  C   UNK A   0      -9.922  18.627  66.795  1.00  0.00    -0.352 C  
ENDBRANCH  21  22
ENDBRANCH   2  21
TORSDOF 7
ENDMDL
MODEL      184
REMARK 921   NORMALIZED FREE ENERGY PREDICTED BY IDOCK:   -5.07 KCAL/MOL
REMARK 922        TOTAL FREE ENERGY PREDICTED BY IDOCK:   -8.27 KCAL/MOL
REMARK 923 INTER-LIGAND FREE ENERGY PREDICTED BY IDOCK:   -7.86 KCAL/MOL
REMARK 924 INTRA-LIGAND FREE ENERGY PREDICTED BY IDOCK:   -0.42 KCAL/MOL
REMARK 927      BINDING AFFINITY PREDICTED BY RF-SCORE:    0.00 PKD
ROOT
HETATM    1  C   UNK A   0      -8.319  12.556  67.505  1.00  0.00    -0.175 C  
HETATM    2  N   UNK A   0      -9.475  11.673  67.629  1.00  0.00    -0.174 NA 
ENDROOT
BRANCH   2   3
HETATM    3  C   UNK A   0      -9.255  10.326  67.752  1.00  0.00    -0.141 A  
HETATM    4  C   UNK A   0      -9.550   8.003  67.753  1.00  0.00    -0.179 A  
HETATM    5  C   UNK A   0      -9.966   9.265  67.222  1.00  0.00    -0.264 A  
HETATM    6  S   UNK A   0      -7.921   9.737  68.654  1.00  0.00    -0.091 SA 
HETATM    7  C   UNK A   0      -8.490   8.131  68.628  1.00  0.00    -0.127 A  
BRANCH   7   8
HETATM    8  C   UNK A   0      -7.894   7.119  69.481  1.00  0.00    -0.119 C  
HETATM    9  O   UNK A   0      -6.685   6.932  69.567  1.00  0.00    -0.047 OA 
ATOM     10  N   GLU A   1      -8.800   6.327  70.172  1.00  0.00    -0.148 N  
ATOM     11  H   GLU A   1      -9.800   6.488  70.048  1.00  0.00     0.000 HD 
BRANCH  10  12
ATOM     12  CA  GLU A   1      -8.352   5.263  71.075  1.00  0.00    -0.121 C  
ATOM     13  C   GLU A   1      -8.805   3.894  70.533  1.00  0.00    -0.081 C  
ATOM     14  O   GLU A   1      -9.900   3.957  69.736  1.00  0.00    -0.195 OA 
ATOM     15  OXT GLU A   1      -8.328   2.826  70.893  1.00  0.00    -0.052 OA 
BRANCH  12  16
ATOM     16  CB  GLU A   1      -8.933   5.504  72.473  1.00  0.00    -0.134 C  
BRANCH  16  17
ATOM     17  CG  GLU A   1      -9.519   6.906  72.634  1.00  0.00    -0.159 C  
ATOM     18  CD  GLU A   1     -11.018   6.916  72.476  1.00  0.00    -0.260 C  
ATOM     19  OE2 GLU A   1     -11.645   6.131  71.787  1.00  0.00    -0.297 OA 
ATOM     20  OE1 GLU A   1     -11.608   7.924  73.158  1.00  0.00    -0.292 OA 
ENDBRANCH  16  17
ENDBRANCH  12  16
ENDBRANCH  10  12
ENDBRANCH   7   8
ENDBRANCH   2   3
BRANCH   2  21
HETATM   21  C   UNK A   0     -10.661  12.067  66.842  1.00  0.00    -0.229 C  
BRANCH  21  22
HETATM   22  C   UNK A   0     -10.620  13.535  66.479  1.00  0.00    -0.281 A  
HETATM   23  C   UNK A   0     -10.615  15.877  67.131  1.00  0.00    -0.316 A  
HETATM   24  C   UNK A   0     -10.505  16.272  65.798  1.00  0.00    -0.364 A  
HETATM   25  C   UNK A   0     -10.675  14.523  67.475  1.00  0.00    -0.276 A  
HETATM   26  H   UNK A   0     -10.514  19.007  68.484  1.00  0.00     0.000 HD 
HETATM   27  C   UNK A   0     -10.478  15.298  64.801  1.00  0.00    -0.217 A  
HETATM   28  C   UNK A   0     -10.271  20.002  66.154  1.00  0.00    -0.589 C  
HETATM   29  N   UNK A   0     -10.455  17.634  65.502  1.00  0.00    -0.638 NA 
HETATM   30  N   UNK A   0     -10.531  18.265  67.785  1.00  0.00    -0.405 N  
HETATM   31  C   UNK A   0     -10.527  13.941  65.141  1.00  0.00    -0.409 A  
HETATM   32  C   UNK A   0     -10.660  16.944  68.165  1.00  0.00    -0.360 C  
HETATM   33  O   UNK A   0     -10.812  16.607  69.336  1.00  0.00    -0.318 OA 
HETATM   34  C   UNK A   0     -10.431  18.545  66.524  1.00  0.00    -0.398 C  
ENDBRANCH  21  22
ENDBRANCH   2  21
TORSDOF 7
ENDMDL
MODEL      185
REMARK 921   NORMALIZED FREE ENERGY PREDICTED BY IDOCK:   -5.06 KCAL/MOL
REMARK 922        TOTAL FREE ENERGY PREDICTED BY IDOCK:   -8.26 KCAL/MOL
REMARK 923 INTER-LIGAND FREE ENERGY PREDICTED BY IDOCK:   -7.94 KCAL/MOL
REMARK 924 INTRA-LIGAND FREE ENERGY PREDICTED BY IDOCK:   -0.32 KCAL/MOL
REMARK 927      BINDING AFFINITY PREDICTED BY RF-SCORE:    0.00 PKD
ROOT
HETATM    1  C   UNK A   0     -12.037  14.618  70.650  1.00  0.00    -0.317 C  
HETATM    2  N   UNK A   0     -11.312  13.708  69.769  1.00  0.00    -0.458 NA 
ENDROOT
BRANCH   2   3
HETATM    3  C   UNK A   0     -10.528  14.246  68.781  1.00  0.00    -0.249 A  
HETATM    4  C   UNK A   0      -8.683  14.854  67.472  1.00  0.00    -0.197 A  
HETATM    5  C   UNK A   0      -9.237  13.921  68.406  1.00  0.00    -0.194 A  
HETATM    6  S   UNK A   0     -11.124  15.502  67.777  1.00  0.00    -0.299 SA 
HETATM    7  C   UNK A   0      -9.590  15.831  67.114  1.00  0.00    -0.218 A  
BRANCH   7   8
HETATM    8  C   UNK A   0      -9.364  17.029  66.326  1.00  0.00    -0.248 C  
HETATM    9  O   UNK A   0     -10.079  17.368  65.389  1.00  0.00    -0.562 OA 
ATOM     10  N   GLU A   1      -8.235  17.757  66.675  1.00  0.00    -0.246 N  
ATOM     11  H   GLU A   1      -7.643  17.425  67.437  1.00  0.00     0.000 HD 
BRANCH  10  12
ATOM     12  CA  GLU A   1      -7.874  18.991  65.973  1.00  0.00    -0.204 C  
ATOM     13  C   GLU A   1      -6.468  18.850  65.360  1.00  0.00    -0.273 C  
ATOM     14  O   GLU A   1      -5.681  17.949  65.998  1.00  0.00    -0.174 OA 
ATOM     15  OXT GLU A   1      -6.033  19.578  64.477  1.00  0.00    -0.246 OA 
BRANCH  12  16
ATOM     16  CB  GLU A   1      -7.914  20.167  66.956  1.00  0.00    -0.362 C  
BRANCH  16  17
ATOM     17  CG  GLU A   1      -9.334  20.517  67.398  1.00  0.00    -0.511 C  
ATOM     18  CD  GLU A   1      -9.667  19.941  68.750  1.00  0.00    -0.263 C  
ATOM     19  OE2 GLU A   1      -9.185  18.918  69.202  1.00  0.00    -0.216 OA 
ATOM     20  OE1 GLU A   1     -10.598  20.665  69.412  1.00  0.00     0.123 OA 
ENDBRANCH  16  17
ENDBRANCH  12  16
ENDBRANCH  10  12
ENDBRANCH   7   8
ENDBRANCH   2   3
BRANCH   2  21
HETATM   21  C   UNK A   0     -12.020  12.460  69.425  1.00  0.00    -0.260 C  
BRANCH  21  22
HETATM   22  C   UNK A   0     -11.386  11.775  68.234  1.00  0.00    -0.343 A  
HETATM   23  C   UNK A   0      -9.831  10.154  67.305  1.00  0.00    -0.226 A  
HETATM   24  C   UNK A   0     -10.233  10.476  66.009  1.00  0.00    -0.245 A  
HETATM   25  C   UNK A   0     -10.397  10.795  68.411  1.00  0.00    -0.199 A  
HETATM   26  H   UNK A   0      -7.627   7.697  66.440  1.00  0.00     0.000 HD 
HETATM   27  C   UNK A   0     -11.195  11.468  65.823  1.00  0.00    -0.228 A  
HETATM   28  C   UNK A   0      -8.199   8.055  63.986  1.00  0.00    -0.049 C  
HETATM   29  N   UNK A   0      -9.637   9.814  64.936  1.00  0.00    -0.387 NA 
HETATM   30  N   UNK A   0      -8.308   8.451  66.347  1.00  0.00    -0.112 N  
HETATM   31  C   UNK A   0     -11.771  12.106  66.928  1.00  0.00    -0.374 A  
HETATM   32  C   UNK A   0      -8.790   9.105  67.464  1.00  0.00    -0.119 C  
HETATM   33  O   UNK A   0      -8.391   8.854  68.597  1.00  0.00    -0.121 OA 
HETATM   34  C   UNK A   0      -8.737   8.811  65.179  1.00  0.00    -0.167 C  
ENDBRANCH  21  22
ENDBRANCH   2  21
TORSDOF 7
ENDMDL
MODEL      186
REMARK 921   NORMALIZED FREE ENERGY PREDICTED BY IDOCK:   -5.05 KCAL/MOL
REMARK 922        TOTAL FREE ENERGY PREDICTED BY IDOCK:   -8.25 KCAL/MOL
REMARK 923 INTER-LIGAND FREE ENERGY PREDICTED BY IDOCK:   -7.07 KCAL/MOL
REMARK 924 INTRA-LIGAND FREE ENERGY PREDICTED BY IDOCK:   -1.17 KCAL/MOL
REMARK 927      BINDING AFFINITY PREDICTED BY RF-SCORE:    0.00 PKD
ROOT
HETATM    1  C   UNK A   0      -9.376   9.823  63.948  1.00  0.00    -0.137 C  
HETATM    2  N   UNK A   0      -8.500   9.580  65.090  1.00  0.00    -0.140 NA 
ENDROOT
BRANCH   2   3
HETATM    3  C   UNK A   0      -8.969   8.802  66.117  1.00  0.00    -0.185 A  
HETATM    4  C   UNK A   0     -10.329   7.893  67.793  1.00  0.00    -0.289 A  
HETATM    5  C   UNK A   0     -10.266   8.614  66.558  1.00  0.00    -0.295 A  
HETATM    6  S   UNK A   0      -7.893   7.856  67.060  1.00  0.00    -0.109 SA 
HETATM    7  C   UNK A   0      -9.080   7.499  68.228  1.00  0.00    -0.132 A  
BRANCH   7   8
HETATM    8  C   UNK A   0      -8.714   6.895  69.497  1.00  0.00    -0.133 C  
HETATM    9  O   UNK A   0      -7.706   7.201  70.126  1.00  0.00    -0.092 OA 
ATOM     10  N   GLU A   1      -9.567   5.895  69.940  1.00  0.00    -0.155 N  
ATOM     11  H   GLU A   1     -10.377   5.643  69.372  1.00  0.00     0.000 HD 
BRANCH  10  12
ATOM     12  CA  GLU A   1      -9.332   5.193  71.204  1.00  0.00    -0.148 C  
ATOM     13  C   GLU A   1      -9.074   3.699  70.931  1.00  0.00    -0.110 C  
ATOM     14  O   GLU A   1      -9.624   3.251  69.775  1.00  0.00    -0.167 OA 
ATOM     15  OXT GLU A   1      -8.554   2.939  71.736  1.00  0.00    -0.070 OA 
BRANCH  12  16
ATOM     16  CB  GLU A   1     -10.551   5.367  72.118  1.00  0.00    -0.284 C  
BRANCH  16  17
ATOM     17  CG  GLU A   1     -11.609   6.293  71.518  1.00  0.00    -0.345 C  
ATOM     18  CD  GLU A   1     -11.459   7.713  72.000  1.00  0.00    -0.283 C  
ATOM     19  OE2 GLU A   1     -10.996   8.030  73.080  1.00  0.00    -0.337 OA 
ATOM     20  OE1 GLU A   1     -11.931   8.617  71.112  1.00  0.00    -0.290 OA 
ENDBRANCH  16  17
ENDBRANCH  12  16
ENDBRANCH  10  12
ENDBRANCH   7   8
ENDBRANCH   2   3
BRANCH   2  21
HETATM   21  C   UNK A   0      -7.635  10.712  65.478  1.00  0.00    -0.072 C  
BRANCH  21  22
HETATM   22  C   UNK A   0      -8.328  11.620  66.470  1.00  0.00    -0.122 A  
HETATM   23  C   UNK A   0     -10.196  13.050  67.084  1.00  0.00    -0.243 A  
HETATM   24  C   UNK A   0      -9.634  13.285  68.339  1.00  0.00    -0.185 A  
HETATM   25  C   UNK A   0      -9.553  12.228  66.153  1.00  0.00    -0.248 A  
HETATM   26  H   UNK A   0     -13.045  14.861  67.577  1.00  0.00     0.000 HD 
HETATM   27  C   UNK A   0      -8.404  12.707  68.651  1.00  0.00     0.028 A  
HETATM   28  C   UNK A   0     -12.274  15.423  69.937  1.00  0.00    -0.363 C  
HETATM   29  N   UNK A   0     -10.308  14.116  69.233  1.00  0.00    -0.427 NA 
HETATM   30  N   UNK A   0     -12.130  14.446  67.753  1.00  0.00    -0.596 N  
HETATM   31  C   UNK A   0      -7.762  11.876  67.725  1.00  0.00    -0.136 A  
HETATM   32  C   UNK A   0     -11.499  13.697  66.779  1.00  0.00    -0.346 C  
HETATM   33  O   UNK A   0     -11.973  13.541  65.658  1.00  0.00    -0.355 OA 
HETATM   34  C   UNK A   0     -11.539  14.614  68.894  1.00  0.00    -0.310 C  
ENDBRANCH  21  22
ENDBRANCH   2  21
TORSDOF 7
ENDMDL
MODEL      187
REMARK 921   NORMALIZED FREE ENERGY PREDICTED BY IDOCK:   -5.03 KCAL/MOL
REMARK 922        TOTAL FREE ENERGY PREDICTED BY IDOCK:   -8.22 KCAL/MOL
REMARK 923 INTER-LIGAND FREE ENERGY PREDICTED BY IDOCK:   -7.59 KCAL/MOL
REMARK 924 INTRA-LIGAND FREE ENERGY PREDICTED BY IDOCK:   -0.63 KCAL/MOL
REMARK 927      BINDING AFFINITY PREDICTED BY RF-SCORE:    0.00 PKD
ROOT
HETATM    1  C   UNK A   0      -7.759  10.654  65.718  1.00  0.00    -0.130 C  
HETATM    2  N   UNK A   0      -8.164  11.034  67.068  1.00  0.00    -0.133 NA 
ENDROOT
BRANCH   2   3
HETATM    3  C   UNK A   0      -8.012  12.342  67.450  1.00  0.00    -0.171 A  
HETATM    4  C   UNK A   0      -7.248  14.290  68.501  1.00  0.00    -0.118 A  
HETATM    5  C   UNK A   0      -6.943  12.958  68.075  1.00  0.00    -0.108 A  
HETATM    6  S   UNK A   0      -9.248  13.491  67.146  1.00  0.00    -0.244 SA 
HETATM    7  C   UNK A   0      -8.523  14.674  68.134  1.00  0.00    -0.156 A  
BRANCH   7   8
HETATM    8  C   UNK A   0      -9.250  15.872  68.514  1.00  0.00    -0.200 C  
HETATM    9  O   UNK A   0     -10.205  15.868  69.285  1.00  0.00    -0.217 OA 
ATOM     10  N   GLU A   1      -8.821  17.039  67.900  1.00  0.00    -0.220 N  
ATOM     11  H   GLU A   1      -8.046  16.998  67.237  1.00  0.00     0.000 HD 
BRANCH  10  12
ATOM     12  CA  GLU A   1      -9.455  18.330  68.183  1.00  0.00    -0.303 C  
ATOM     13  C   GLU A   1     -10.350  18.741  66.999  1.00  0.00    -0.403 C  
ATOM     14  O   GLU A   1      -9.977  18.194  65.815  1.00  0.00    -0.547 OA 
ATOM     15  OXT GLU A   1     -11.226  19.593  67.069  1.00  0.00    -0.319 OA 
BRANCH  12  16
ATOM     16  CB  GLU A   1      -8.372  19.387  68.427  1.00  0.00    -0.385 C  
BRANCH  16  17
ATOM     17  CG  GLU A   1      -8.071  20.221  67.182  1.00  0.00    -0.379 C  
ATOM     18  CD  GLU A   1      -6.812  19.771  66.487  1.00  0.00    -0.206 C  
ATOM     19  OE2 GLU A   1      -5.863  19.253  67.047  1.00  0.00    -0.174 OA 
ATOM     20  OE1 GLU A   1      -6.824  20.037  65.161  1.00  0.00    -0.301 OA 
ENDBRANCH  16  17
ENDBRANCH  12  16
ENDBRANCH  10  12
ENDBRANCH   7   8
ENDBRANCH   2   3
BRANCH   2  21
HETATM   21  C   UNK A   0      -7.916  10.022  68.113  1.00  0.00    -0.100 C  
BRANCH  21  22
HETATM   22  C   UNK A   0      -9.178   9.708  68.888  1.00  0.00    -0.147 A  
HETATM   23  C   UNK A   0     -10.881   8.131  69.610  1.00  0.00    -0.162 A  
HETATM   24  C   UNK A   0     -11.510   9.121  70.366  1.00  0.00    -0.194 A  
HETATM   25  C   UNK A   0      -9.727   8.417  68.874  1.00  0.00    -0.168 A  
HETATM   26  H   UNK A   0     -12.975   5.580  70.472  1.00  0.00     0.000 HD 
HETATM   27  C   UNK A   0     -10.986  10.413  70.363  1.00  0.00    -0.320 A  
HETATM   28  C   UNK A   0     -14.293   7.169  71.961  1.00  0.00    -0.398 C  
HETATM   29  N   UNK A   0     -12.662   8.792  71.079  1.00  0.00    -0.496 NA 
HETATM   30  N   UNK A   0     -12.580   6.518  70.416  1.00  0.00    -0.113 N  
HETATM   31  C   UNK A   0      -9.825  10.701  69.635  1.00  0.00    -0.052 A  
HETATM   32  C   UNK A   0     -11.478   6.770  69.622  1.00  0.00    -0.230 C  
HETATM   33  O   UNK A   0     -10.963   5.908  68.916  1.00  0.00    -0.314 OA 
HETATM   34  C   UNK A   0     -13.101   7.494  71.089  1.00  0.00    -0.187 C  
ENDBRANCH  21  22
ENDBRANCH   2  21
TORSDOF 7
ENDMDL
MODEL      188
REMARK 921   NORMALIZED FREE ENERGY PREDICTED BY IDOCK:   -5.02 KCAL/MOL
REMARK 922        TOTAL FREE ENERGY PREDICTED BY IDOCK:   -8.20 KCAL/MOL
REMARK 923 INTER-LIGAND FREE ENERGY PREDICTED BY IDOCK:   -7.00 KCAL/MOL
REMARK 924 INTRA-LIGAND FREE ENERGY PREDICTED BY IDOCK:   -1.21 KCAL/MOL
REMARK 927      BINDING AFFINITY PREDICTED BY RF-SCORE:    0.00 PKD
ROOT
HETATM    1  C   UNK A   0      -6.230  10.838  69.061  1.00  0.00    -0.042 C  
HETATM    2  N   UNK A   0      -7.509  11.346  68.576  1.00  0.00    -0.106 NA 
ENDROOT
BRANCH   2   3
HETATM    3  C   UNK A   0      -8.604  10.525  68.644  1.00  0.00    -0.139 A  
HETATM    4  C   UNK A   0     -10.784   9.725  68.949  1.00  0.00    -0.241 A  
HETATM    5  C   UNK A   0      -9.949  10.848  68.650  1.00  0.00    -0.196 A  
HETATM    6  S   UNK A   0      -8.417   8.821  68.718  1.00  0.00    -0.129 SA 
HETATM    7  C   UNK A   0     -10.056   8.562  69.103  1.00  0.00    -0.203 A  
BRANCH   7   8
HETATM    8  C   UNK A   0     -10.513   7.262  69.561  1.00  0.00    -0.230 C  
HETATM    9  O   UNK A   0     -11.301   6.562  68.933  1.00  0.00    -0.289 OA 
ATOM     10  N   GLU A   1     -10.032   6.875  70.804  1.00  0.00    -0.190 N  
ATOM     11  H   GLU A   1      -9.407   7.500  71.313  1.00  0.00     0.000 HD 
BRANCH  10  12
ATOM     12  CA  GLU A   1     -10.403   5.589  71.400  1.00  0.00    -0.229 C  
ATOM     13  C   GLU A   1     -11.128   5.825  72.738  1.00  0.00    -0.284 C  
ATOM     14  O   GLU A   1     -10.810   7.001  73.333  1.00  0.00    -0.326 OA 
ATOM     15  OXT GLU A   1     -11.813   4.981  73.300  1.00  0.00    -0.245 OA 
BRANCH  12  16
ATOM     16  CB  GLU A   1      -9.141   4.746  71.616  1.00  0.00    -0.169 C  
BRANCH  16  17
ATOM     17  CG  GLU A   1      -7.914   5.595  71.947  1.00  0.00    -0.111 C  
ATOM     18  CD  GLU A   1      -7.398   5.328  73.338  1.00  0.00    -0.095 C  
ATOM     19  OE2 GLU A   1      -8.089   4.967  74.273  1.00  0.00    -0.099 OA 
ATOM     20  OE1 GLU A   1      -6.072   5.568  73.457  1.00  0.00    -0.048 OA 
ENDBRANCH  16  17
ENDBRANCH  12  16
ENDBRANCH  10  12
ENDBRANCH   7   8
ENDBRANCH   2   3
BRANCH   2  21
HETATM   21  C   UNK A   0      -7.433  12.228  67.395  1.00  0.00    -0.160 C  
BRANCH  21  22
HETATM   22  C   UNK A   0      -7.872  13.637  67.729  1.00  0.00    -0.172 A  
HETATM   23  C   UNK A   0      -9.081  15.668  67.159  1.00  0.00    -0.227 A  
HETATM   24  C   UNK A   0      -8.719  16.251  68.374  1.00  0.00    -0.205 A  
HETATM   25  C   UNK A   0      -8.663  14.374  66.833  1.00  0.00    -0.218 A  
HETATM   26  H   UNK A   0     -10.990  18.258  66.025  1.00  0.00     0.000 HD 
HETATM   27  C   UNK A   0      -7.911  15.536  69.257  1.00  0.00    -0.238 A  
HETATM   28  C   UNK A   0     -10.517  19.541  68.172  1.00  0.00    -0.497 C  
HETATM   29  N   UNK A   0      -9.154  17.546  68.654  1.00  0.00    -0.279 NA 
HETATM   30  N   UNK A   0     -10.372  17.714  66.627  1.00  0.00    -0.343 N  
HETATM   31  C   UNK A   0      -7.498  14.237  68.938  1.00  0.00    -0.123 A  
HETATM   32  C   UNK A   0      -9.927  16.467  66.235  1.00  0.00    -0.323 C  
HETATM   33  O   UNK A   0     -10.204  15.983  65.142  1.00  0.00    -0.511 OA 
HETATM   34  C   UNK A   0      -9.990  18.182  67.774  1.00  0.00    -0.327 C  
ENDBRANCH  21  22
ENDBRANCH   2  21
TORSDOF 7
ENDMDL
MODEL      189
REMARK 921   NORMALIZED FREE ENERGY PREDICTED BY IDOCK:   -4.98 KCAL/MOL
REMARK 922        TOTAL FREE ENERGY PREDICTED BY IDOCK:   -8.14 KCAL/MOL
REMARK 923 INTER-LIGAND FREE ENERGY PREDICTED BY IDOCK:   -6.56 KCAL/MOL
REMARK 924 INTRA-LIGAND FREE ENERGY PREDICTED BY IDOCK:   -1.58 KCAL/MOL
REMARK 927      BINDING AFFINITY PREDICTED BY RF-SCORE:    0.00 PKD
ROOT
HETATM    1  C   UNK A   0     -12.143  15.949  64.385  1.00  0.00     0.084 C  
HETATM    2  N   UNK A   0     -11.563  14.846  65.147  1.00  0.00    -0.350 NA 
ENDROOT
BRANCH   2   3
HETATM    3  C   UNK A   0     -11.467  13.619  64.544  1.00  0.00    -0.379 A  
HETATM    4  C   UNK A   0     -11.978  11.493  63.706  1.00  0.00    -0.196 A  
HETATM    5  C   UNK A   0     -12.467  12.786  64.076  1.00  0.00    -0.445 A  
HETATM    6  S   UNK A   0      -9.934  12.907  64.250  1.00  0.00     0.049 SA 
HETATM    7  C   UNK A   0     -10.608  11.396  63.844  1.00  0.00    -0.392 A  
BRANCH   7   8
HETATM    8  C   UNK A   0      -9.769  10.217  63.723  1.00  0.00    -0.235 C  
HETATM    9  O   UNK A   0      -9.355   9.788  62.651  1.00  0.00    -0.277 OA 
ATOM     10  N   GLU A   1      -9.498   9.564  64.917  1.00  0.00    -0.431 N  
ATOM     11  H   GLU A   1      -9.889   9.931  65.785  1.00  0.00     0.000 HD 
BRANCH  10  12
ATOM     12  CA  GLU A   1      -8.664   8.361  64.958  1.00  0.00    -0.056 C  
ATOM     13  C   GLU A   1      -9.081   7.478  66.148  1.00  0.00    -0.137 C  
ATOM     14  O   GLU A   1      -9.670   8.164  67.159  1.00  0.00    -0.168 OA 
ATOM     15  OXT GLU A   1      -8.785   6.295  66.257  1.00  0.00    -0.131 OA 
BRANCH  12  16
ATOM     16  CB  GLU A   1      -7.191   8.767  65.083  1.00  0.00    -0.087 C  
BRANCH  16  17
ATOM     17  CG  GLU A   1      -6.943   9.737  66.238  1.00  0.00    -0.094 C  
ATOM     18  CD  GLU A   1      -6.159   9.100  67.356  1.00  0.00    -0.054 C  
ATOM     19  OE2 GLU A   1      -6.184   7.914  67.628  1.00  0.00    -0.048 OA 
ATOM     20  OE1 GLU A   1      -5.439   9.999  68.066  1.00  0.00    -0.039 OA 
ENDBRANCH  16  17
ENDBRANCH  12  16
ENDBRANCH  10  12
ENDBRANCH   7   8
ENDBRANCH   2   3
BRANCH   2  21
HETATM   21  C   UNK A   0     -11.878  14.837  66.589  1.00  0.00    -0.242 C  
BRANCH  21  22
HETATM   22  C   UNK A   0     -11.010  13.849  67.337  1.00  0.00    -0.299 A  
HETATM   23  C   UNK A   0     -10.768  11.836  68.678  1.00  0.00    -0.252 A  
HETATM   24  C   UNK A   0      -9.382  11.989  68.699  1.00  0.00    -0.050 A  
HETATM   25  C   UNK A   0     -11.580  12.756  68.007  1.00  0.00    -0.388 A  
HETATM   26  H   UNK A   0     -10.875   8.911  70.431  1.00  0.00     0.000 HD 
HETATM   27  C   UNK A   0      -8.810  13.087  68.060  1.00  0.00    -0.191 A  
HETATM   28  C   UNK A   0      -8.335   8.921  70.594  1.00  0.00    -0.190 C  
HETATM   29  N   UNK A   0      -8.612  11.050  69.387  1.00  0.00    -0.379 NA 
HETATM   30  N   UNK A   0     -10.500   9.745  69.979  1.00  0.00    -0.250 N  
HETATM   31  C   UNK A   0      -9.618  14.005  67.378  1.00  0.00    -0.227 A  
HETATM   32  C   UNK A   0     -11.344  10.663  69.387  1.00  0.00    -0.284 C  
HETATM   33  O   UNK A   0     -12.566  10.552  69.420  1.00  0.00    -0.212 OA 
HETATM   34  C   UNK A   0      -9.223   9.962  69.952  1.00  0.00    -0.212 C  
ENDBRANCH  21  22
ENDBRANCH   2  21
TORSDOF 7
ENDMDL
MODEL      190
REMARK 921   NORMALIZED FREE ENERGY PREDICTED BY IDOCK:   -4.97 KCAL/MOL
REMARK 922        TOTAL FREE ENERGY PREDICTED BY IDOCK:   -8.14 KCAL/MOL
REMARK 923 INTER-LIGAND FREE ENERGY PREDICTED BY IDOCK:   -6.29 KCAL/MOL
REMARK 924 INTRA-LIGAND FREE ENERGY PREDICTED BY IDOCK:   -1.85 KCAL/MOL
REMARK 927      BINDING AFFINITY PREDICTED BY RF-SCORE:    0.00 PKD
ROOT
HETATM    1  C   UNK A   0     -11.424   4.394  73.346  1.00  0.00    -0.203 C  
HETATM    2  N   UNK A   0     -10.938   5.501  72.527  1.00  0.00    -0.250 NA 
ENDROOT
BRANCH   2   3
HETATM    3  C   UNK A   0     -10.594   5.245  71.225  1.00  0.00    -0.172 A  
HETATM    4  C   UNK A   0      -9.474   4.475  69.318  1.00  0.00    -0.242 A  
HETATM    5  C   UNK A   0      -9.740   4.286  70.712  1.00  0.00    -0.274 A  
HETATM    6  S   UNK A   0     -11.267   6.168  69.946  1.00  0.00    -0.367 SA 
HETATM    7  C   UNK A   0     -10.181   5.539  68.794  1.00  0.00    -0.199 A  
BRANCH   7   8
HETATM    8  C   UNK A   0     -10.064   6.141  67.477  1.00  0.00    -0.158 C  
HETATM    9  O   UNK A   0     -10.541   5.645  66.462  1.00  0.00    -0.269 OA 
ATOM     10  N   GLU A   1      -9.322   7.312  67.431  1.00  0.00    -0.126 N  
ATOM     11  H   GLU A   1      -8.911   7.676  68.291  1.00  0.00     0.000 HD 
BRANCH  10  12
ATOM     12  CA  GLU A   1      -9.116   8.038  66.175  1.00  0.00    -0.176 C  
ATOM     13  C   GLU A   1      -7.634   7.960  65.765  1.00  0.00    -0.083 C  
ATOM     14  O   GLU A   1      -6.788   7.765  66.807  1.00  0.00    -0.067 OA 
ATOM     15  OXT GLU A   1      -7.225   8.198  64.637  1.00  0.00    -0.077 OA 
BRANCH  12  16
ATOM     16  CB  GLU A   1      -9.547   9.498  66.355  1.00  0.00    -0.273 C  
BRANCH  16  17
ATOM     17  CG  GLU A   1     -10.648   9.663  67.401  1.00  0.00    -0.333 C  
ATOM     18  CD  GLU A   1     -10.905  11.111  67.731  1.00  0.00    -0.239 C  
ATOM     19  OE2 GLU A   1     -10.067  11.992  67.668  1.00  0.00    -0.192 OA 
ATOM     20  OE1 GLU A   1     -12.172  11.335  68.148  1.00  0.00    -0.622 OA 
ENDBRANCH  16  17
ENDBRANCH  12  16
ENDBRANCH  10  12
ENDBRANCH   7   8
ENDBRANCH   2   3
BRANCH   2  21
HETATM   21  C   UNK A   0     -10.107   6.495  73.234  1.00  0.00    -0.205 C  
BRANCH  21  22
HETATM   22  C   UNK A   0      -9.600   7.563  72.290  1.00  0.00    -0.197 A  
HETATM   23  C   UNK A   0      -7.857   8.467  70.858  1.00  0.00    -0.113 A  
HETATM   24  C   UNK A   0      -8.675   9.538  70.498  1.00  0.00    -0.197 A  
HETATM   25  C   UNK A   0      -8.308   7.487  71.747  1.00  0.00    -0.116 A  
HETATM   26  H   UNK A   0      -5.207   9.309  68.881  1.00  0.00     0.000 HD 
HETATM   27  C   UNK A   0      -9.950   9.635  71.055  1.00  0.00    -0.151 A  
HETATM   28  C   UNK A   0      -6.493  11.332  68.025  1.00  0.00    -0.057 C  
HETATM   29  N   UNK A   0      -8.180  10.496  69.613  1.00  0.00    -0.362 NA 
HETATM   30  N   UNK A   0      -6.118   9.360  69.336  1.00  0.00    -0.037 N  
HETATM   31  C   UNK A   0     -10.410   8.651  71.937  1.00  0.00    -0.405 A  
HETATM   32  C   UNK A   0      -6.497   8.407  70.260  1.00  0.00    -0.035 C  
HETATM   33  O   UNK A   0      -5.751   7.499  70.614  1.00  0.00    -0.027 OA 
HETATM   34  C   UNK A   0      -6.941  10.322  69.056  1.00  0.00    -0.064 C  
ENDBRANCH  21  22
ENDBRANCH   2  21
TORSDOF 7
ENDMDL
MODEL      191
REMARK 921   NORMALIZED FREE ENERGY PREDICTED BY IDOCK:   -4.97 KCAL/MOL
REMARK 922        TOTAL FREE ENERGY PREDICTED BY IDOCK:   -8.14 KCAL/MOL
REMARK 923 INTER-LIGAND FREE ENERGY PREDICTED BY IDOCK:   -7.69 KCAL/MOL
REMARK 924 INTRA-LIGAND FREE ENERGY PREDICTED BY IDOCK:   -0.45 KCAL/MOL
REMARK 927      BINDING AFFINITY PREDICTED BY RF-SCORE:    0.00 PKD
ROOT
HETATM    1  C   UNK A   0     -10.197  11.426  68.827  1.00  0.00    -0.197 C  
HETATM    2  N   UNK A   0     -10.885  11.162  67.567  1.00  0.00    -0.236 NA 
ENDROOT
BRANCH   2   3
HETATM    3  C   UNK A   0     -10.148  10.701  66.508  1.00  0.00    -0.223 A  
HETATM    4  C   UNK A   0      -9.354  10.301  64.341  1.00  0.00    -0.329 A  
HETATM    5  C   UNK A   0     -10.069  11.183  65.214  1.00  0.00    -0.329 A  
HETATM    6  S   UNK A   0      -9.114   9.345  66.686  1.00  0.00    -0.155 SA 
HETATM    7  C   UNK A   0      -8.855   9.201  65.009  1.00  0.00    -0.189 A  
BRANCH   7   8
HETATM    8  C   UNK A   0      -8.222   8.018  64.454  1.00  0.00    -0.081 C  
HETATM    9  O   UNK A   0      -7.372   8.056  63.570  1.00  0.00    -0.097 OA 
ATOM     10  N   GLU A   1      -8.682   6.812  64.964  1.00  0.00    -0.354 N  
ATOM     11  H   GLU A   1      -9.415   6.818  65.673  1.00  0.00     0.000 HD 
BRANCH  10  12
ATOM     12  CA  GLU A   1      -8.138   5.531  64.505  1.00  0.00    -0.127 C  
ATOM     13  C   GLU A   1      -9.222   4.442  64.597  1.00  0.00    -0.156 C  
ATOM     14  O   GLU A   1     -10.181   4.700  65.520  1.00  0.00    -0.219 OA 
ATOM     15  OXT GLU A   1      -9.163   3.370  64.010  1.00  0.00    -0.116 OA 
BRANCH  12  16
ATOM     16  CB  GLU A   1      -6.927   5.155  65.366  1.00  0.00    -0.062 C  
BRANCH  16  17
ATOM     17  CG  GLU A   1      -7.309   4.319  66.587  1.00  0.00    -0.080 C  
ATOM     18  CD  GLU A   1      -7.339   5.140  67.850  1.00  0.00    -0.075 C  
ATOM     19  OE2 GLU A   1      -6.653   6.126  68.049  1.00  0.00    -0.056 OA 
ATOM     20  OE1 GLU A   1      -8.193   4.645  68.774  1.00  0.00    -0.081 OA 
ENDBRANCH  16  17
ENDBRANCH  12  16
ENDBRANCH  10  12
ENDBRANCH   7   8
ENDBRANCH   2   3
BRANCH   2  21
HETATM   21  C   UNK A   0     -11.982  12.094  67.237  1.00  0.00    -0.087 C  
BRANCH  21  22
HETATM   22  C   UNK A   0     -11.677  13.497  67.713  1.00  0.00    -0.394 A  
HETATM   23  C   UNK A   0     -10.781  15.720  67.311  1.00  0.00    -0.313 A  
HETATM   24  C   UNK A   0     -11.144  16.125  68.595  1.00  0.00    -0.356 A  
HETATM   25  C   UNK A   0     -11.040  14.419  66.869  1.00  0.00    -0.325 A  
HETATM   26  H   UNK A   0      -9.531  18.725  66.285  1.00  0.00     0.000 HD 
HETATM   27  C   UNK A   0     -11.752  15.206  69.450  1.00  0.00    -0.355 A  
HETATM   28  C   UNK A   0     -10.119  19.736  68.546  1.00  0.00    -0.555 C  
HETATM   29  N   UNK A   0     -10.860  17.431  68.995  1.00  0.00    -0.291 NA 
HETATM   30  N   UNK A   0      -9.942  18.013  66.889  1.00  0.00    -0.323 N  
HETATM   31  C   UNK A   0     -12.022  13.906  69.008  1.00  0.00    -0.402 A  
HETATM   32  C   UNK A   0     -10.118  16.721  66.434  1.00  0.00    -0.317 C  
HETATM   33  O   UNK A   0      -9.745  16.358  65.322  1.00  0.00    -0.433 OA 
HETATM   34  C   UNK A   0     -10.310  18.306  68.096  1.00  0.00    -0.373 C  
ENDBRANCH  21  22
ENDBRANCH   2  21
TORSDOF 7
ENDMDL
MODEL      192
REMARK 921   NORMALIZED FREE ENERGY PREDICTED BY IDOCK:   -4.97 KCAL/MOL
REMARK 922        TOTAL FREE ENERGY PREDICTED BY IDOCK:   -8.13 KCAL/MOL
REMARK 923 INTER-LIGAND FREE ENERGY PREDICTED BY IDOCK:   -7.47 KCAL/MOL
REMARK 924 INTRA-LIGAND FREE ENERGY PREDICTED BY IDOCK:   -0.67 KCAL/MOL
REMARK 927      BINDING AFFINITY PREDICTED BY RF-SCORE:    0.00 PKD
ROOT
HETATM    1  C   UNK A   0     -12.069  13.603  70.725  1.00  0.00    -0.295 C  
HETATM    2  N   UNK A   0     -11.772  12.477  69.844  1.00  0.00    -0.477 NA 
ENDROOT
BRANCH   2   3
HETATM    3  C   UNK A   0     -12.009  11.209  70.307  1.00  0.00    -0.373 A  
HETATM    4  C   UNK A   0     -12.583   9.400  71.678  1.00  0.00    -0.460 A  
HETATM    5  C   UNK A   0     -12.750  10.793  71.398  1.00  0.00    -0.544 A  
HETATM    6  S   UNK A   0     -11.365   9.845  69.489  1.00  0.00    -0.063 SA 
HETATM    7  C   UNK A   0     -11.767   8.778  70.755  1.00  0.00    -0.219 A  
BRANCH   7   8
HETATM    8  C   UNK A   0     -11.235   7.427  70.783  1.00  0.00    -0.271 C  
HETATM    9  O   UNK A   0     -11.936   6.422  70.722  1.00  0.00    -0.338 OA 
ATOM     10  N   GLU A   1      -9.859   7.341  70.935  1.00  0.00    -0.184 N  
ATOM     11  H   GLU A   1      -9.311   8.198  71.018  1.00  0.00     0.000 HD 
BRANCH  10  12
ATOM     12  CA  GLU A   1      -9.174   6.046  70.979  1.00  0.00    -0.157 C  
ATOM     13  C   GLU A   1      -8.024   6.100  72.002  1.00  0.00    -0.106 C  
ATOM     14  O   GLU A   1      -7.541   7.348  72.217  1.00  0.00    -0.084 OA 
ATOM     15  OXT GLU A   1      -7.484   5.108  72.473  1.00  0.00    -0.091 OA 
BRANCH  12  16
ATOM     16  CB  GLU A   1      -8.635   5.708  69.584  1.00  0.00    -0.110 C  
BRANCH  16  17
ATOM     17  CG  GLU A   1      -8.968   4.280  69.154  1.00  0.00    -0.157 C  
ATOM     18  CD  GLU A   1      -9.644   4.236  67.808  1.00  0.00    -0.158 C  
ATOM     19  OE2 GLU A   1     -10.341   5.126  67.356  1.00  0.00    -0.191 OA 
ATOM     20  OE1 GLU A   1      -9.425   3.073  67.152  1.00  0.00    -0.176 OA 
ENDBRANCH  16  17
ENDBRANCH  12  16
ENDBRANCH  10  12
ENDBRANCH   7   8
ENDBRANCH   2   3
BRANCH   2  21
HETATM   21  C   UNK A   0     -10.582  12.642  68.985  1.00  0.00    -0.041 C  
BRANCH  21  22
HETATM   22  C   UNK A   0     -10.527  14.027  68.378  1.00  0.00    -0.254 A  
HETATM   23  C   UNK A   0      -9.425  16.176  68.107  1.00  0.00    -0.209 A  
HETATM   24  C   UNK A   0     -10.410  16.595  67.214  1.00  0.00    -0.298 A  
HETATM   25  C   UNK A   0      -9.478  14.906  68.689  1.00  0.00    -0.208 A  
HETATM   26  H   UNK A   0      -7.497  18.984  67.921  1.00  0.00     0.000 HD 
HETATM   27  C   UNK A   0     -11.471  15.738  66.921  1.00  0.00     0.165 A  
HETATM   28  C   UNK A   0      -9.124  19.985  66.239  1.00  0.00    -0.402 C  
HETATM   29  N   UNK A   0     -10.319  17.873  66.662  1.00  0.00    -0.365 NA 
HETATM   30  N   UNK A   0      -8.271  18.341  67.760  1.00  0.00    -0.244 N  
HETATM   31  C   UNK A   0     -11.523  14.462  67.494  1.00  0.00    -0.370 A  
HETATM   32  C   UNK A   0      -8.319  17.123  68.409  1.00  0.00    -0.251 C  
HETATM   33  O   UNK A   0      -7.478  16.783  69.236  1.00  0.00    -0.229 OA 
HETATM   34  C   UNK A   0      -9.227  18.652  66.943  1.00  0.00    -0.304 C  
ENDBRANCH  21  22
ENDBRANCH   2  21
TORSDOF 7
ENDMDL
MODEL      193
REMARK 921   NORMALIZED FREE ENERGY PREDICTED BY IDOCK:   -4.95 KCAL/MOL
REMARK 922        TOTAL FREE ENERGY PREDICTED BY IDOCK:   -8.10 KCAL/MOL
REMARK 923 INTER-LIGAND FREE ENERGY PREDICTED BY IDOCK:   -7.21 KCAL/MOL
REMARK 924 INTRA-LIGAND FREE ENERGY PREDICTED BY IDOCK:   -0.89 KCAL/MOL
REMARK 927      BINDING AFFINITY PREDICTED BY RF-SCORE:    0.00 PKD
ROOT
HETATM    1  C   UNK A   0      -7.515   8.759  63.821  1.00  0.00    -0.111 C  
HETATM    2  N   UNK A   0      -7.931   8.949  65.207  1.00  0.00    -0.110 NA 
ENDROOT
BRANCH   2   3
HETATM    3  C   UNK A   0      -7.781  10.191  65.768  1.00  0.00    -0.136 A  
HETATM    4  C   UNK A   0      -6.915  12.030  66.930  1.00  0.00    -0.033 A  
HETATM    5  C   UNK A   0      -6.634  10.825  66.209  1.00  0.00    -0.132 A  
HETATM    6  S   UNK A   0      -9.136  11.219  65.991  1.00  0.00    -0.205 SA 
HETATM    7  C   UNK A   0      -8.265  12.313  66.964  1.00  0.00    -0.155 A  
BRANCH   7   8
HETATM    8  C   UNK A   0      -8.954  13.343  67.721  1.00  0.00    -0.205 C  
HETATM    9  O   UNK A   0      -9.953  13.131  68.399  1.00  0.00    -0.235 OA 
ATOM     10  N   GLU A   1      -8.429  14.620  67.586  1.00  0.00    -0.168 N  
ATOM     11  H   GLU A   1      -7.618  14.765  66.985  1.00  0.00     0.000 HD 
BRANCH  10  12
ATOM     12  CA  GLU A   1      -9.014  15.765  68.289  1.00  0.00    -0.182 C  
ATOM     13  C   GLU A   1     -10.035  16.471  67.377  1.00  0.00    -0.267 C  
ATOM     14  O   GLU A   1      -9.805  16.286  66.054  1.00  0.00    -0.305 OA 
ATOM     15  OXT GLU A   1     -10.888  17.249  67.783  1.00  0.00    -0.351 OA 
BRANCH  12  16
ATOM     16  CB  GLU A   1      -7.899  16.736  68.696  1.00  0.00    -0.241 C  
BRANCH  16  17
ATOM     17  CG  GLU A   1      -7.610  17.785  67.622  1.00  0.00    -0.215 C  
ATOM     18  CD  GLU A   1      -6.643  17.280  66.582  1.00  0.00    -0.232 C  
ATOM     19  OE2 GLU A   1      -5.777  16.450  66.790  1.00  0.00    -0.340 OA 
ATOM     20  OE1 GLU A   1      -6.810  17.878  65.381  1.00  0.00    -0.404 OA 
ENDBRANCH  16  17
ENDBRANCH  12  16
ENDBRANCH  10  12
ENDBRANCH   7   8
ENDBRANCH   2   3
BRANCH   2  21
HETATM   21  C   UNK A   0      -7.692   7.801  66.104  1.00  0.00    -0.089 C  
BRANCH  21  22
HETATM   22  C   UNK A   0      -8.737   7.727  67.196  1.00  0.00    -0.125 A  
HETATM   23  C   UNK A   0      -9.509   8.304  69.428  1.00  0.00    -0.159 A  
HETATM   24  C   UNK A   0     -10.705   7.617  69.217  1.00  0.00    -0.161 A  
HETATM   25  C   UNK A   0      -8.530   8.360  68.432  1.00  0.00    -0.135 A  
HETATM   26  H   UNK A   0     -10.249   9.441  72.558  1.00  0.00     0.000 HD 
HETATM   27  C   UNK A   0     -10.907   6.963  68.002  1.00  0.00    -0.266 A  
HETATM   28  C   UNK A   0     -12.524   8.305  72.429  1.00  0.00    -0.355 C  
HETATM   29  N   UNK A   0     -11.651   7.583  70.241  1.00  0.00    -0.477 NA 
HETATM   30  N   UNK A   0     -10.343   8.948  71.670  1.00  0.00    -0.319 N  
HETATM   31  C   UNK A   0      -9.933   7.024  66.999  1.00  0.00    -0.273 A  
HETATM   32  C   UNK A   0      -9.321   8.974  70.741  1.00  0.00    -0.249 C  
HETATM   33  O   UNK A   0      -8.250   9.533  70.956  1.00  0.00    -0.301 OA 
HETATM   34  C   UNK A   0     -11.423   8.289  71.393  1.00  0.00    -0.269 C  
ENDBRANCH  21  22
ENDBRANCH   2  21
TORSDOF 7
ENDMDL
MODEL      194
REMARK 921   NORMALIZED FREE ENERGY PREDICTED BY IDOCK:   -4.93 KCAL/MOL
REMARK 922        TOTAL FREE ENERGY PREDICTED BY IDOCK:   -8.08 KCAL/MOL
REMARK 923 INTER-LIGAND FREE ENERGY PREDICTED BY IDOCK:   -7.07 KCAL/MOL
REMARK 924 INTRA-LIGAND FREE ENERGY PREDICTED BY IDOCK:   -1.01 KCAL/MOL
REMARK 927      BINDING AFFINITY PREDICTED BY RF-SCORE:    0.00 PKD
ROOT
HETATM    1  C   UNK A   0      -8.257   7.847  65.233  1.00  0.00    -0.145 C  
HETATM    2  N   UNK A   0      -8.073   8.425  66.561  1.00  0.00    -0.099 NA 
ENDROOT
BRANCH   2   3
HETATM    3  C   UNK A   0      -8.220   9.780  66.708  1.00  0.00    -0.120 A  
HETATM    4  C   UNK A   0      -7.877  12.012  67.327  1.00  0.00    -0.170 A  
HETATM    5  C   UNK A   0      -7.287  10.731  67.079  1.00  0.00    -0.110 A  
HETATM    6  S   UNK A   0      -9.727  10.535  66.395  1.00  0.00    -0.207 SA 
HETATM    7  C   UNK A   0      -9.235  12.016  67.078  1.00  0.00    -0.195 A  
BRANCH   7   8
HETATM    8  C   UNK A   0     -10.202  13.062  67.357  1.00  0.00    -0.231 C  
HETATM    9  O   UNK A   0     -10.989  13.497  66.523  1.00  0.00    -0.288 OA 
ATOM     10  N   GLU A   1     -10.147  13.585  68.641  1.00  0.00    -0.347 N  
ATOM     11  H   GLU A   1      -9.455  13.223  69.298  1.00  0.00     0.000 HD 
BRANCH  10  12
ATOM     12  CA  GLU A   1     -11.060  14.646  69.075  1.00  0.00    -0.259 C  
ATOM     13  C   GLU A   1     -10.284  15.965  69.245  1.00  0.00    -0.250 C  
ATOM     14  O   GLU A   1      -8.964  15.793  69.503  1.00  0.00    -0.260 OA 
ATOM     15  OXT GLU A   1     -10.814  17.066  69.296  1.00  0.00    -0.279 OA 
BRANCH  12  16
ATOM     16  CB  GLU A   1     -11.721  14.239  70.397  1.00  0.00    -0.329 C  
BRANCH  16  17
ATOM     17  CG  GLU A   1     -13.016  15.005  70.669  1.00  0.00    -0.394 C  
ATOM     18  CD  GLU A   1     -13.625  14.637  71.998  1.00  0.00    -0.400 C  
ATOM     19  OE2 GLU A   1     -13.502  13.552  72.536  1.00  0.00    -0.543 OA 
ATOM     20  OE1 GLU A   1     -14.366  15.637  72.526  1.00  0.00    -0.537 OA 
ENDBRANCH  16  17
ENDBRANCH  12  16
ENDBRANCH  10  12
ENDBRANCH   7   8
ENDBRANCH   2   3
BRANCH   2  21
HETATM   21  C   UNK A   0      -7.025   7.793  67.388  1.00  0.00    -0.078 C  
BRANCH  21  22
HETATM   22  C   UNK A   0      -7.495   7.586  68.811  1.00  0.00    -0.097 A  
HETATM   23  C   UNK A   0      -8.958   6.499  70.419  1.00  0.00    -0.152 A  
HETATM   24  C   UNK A   0      -8.342   7.177  71.472  1.00  0.00    -0.111 A  
HETATM   25  C   UNK A   0      -8.544   6.700  69.099  1.00  0.00    -0.130 A  
HETATM   26  H   UNK A   0     -11.110   4.666  72.329  1.00  0.00     0.000 HD 
HETATM   27  C   UNK A   0      -7.318   8.080  71.192  1.00  0.00    -0.065 A  
HETATM   28  C   UNK A   0     -10.144   5.728  74.431  1.00  0.00    -0.293 C  
HETATM   29  N   UNK A   0      -8.792   6.950  72.773  1.00  0.00    -0.120 NA 
HETATM   30  N   UNK A   0     -10.389   5.341  72.078  1.00  0.00    -0.210 N  
HETATM   31  C   UNK A   0      -6.895   8.277  69.872  1.00  0.00    -0.043 A  
HETATM   32  C   UNK A   0     -10.058   5.558  70.755  1.00  0.00    -0.212 C  
HETATM   33  O   UNK A   0     -10.642   5.000  69.830  1.00  0.00    -0.237 OA 
HETATM   34  C   UNK A   0      -9.765   6.011  72.995  1.00  0.00    -0.158 C  
ENDBRANCH  21  22
ENDBRANCH   2  21
TORSDOF 7
ENDMDL
MODEL      195
REMARK 921   NORMALIZED FREE ENERGY PREDICTED BY IDOCK:   -4.90 KCAL/MOL
REMARK 922        TOTAL FREE ENERGY PREDICTED BY IDOCK:   -8.04 KCAL/MOL
REMARK 923 INTER-LIGAND FREE ENERGY PREDICTED BY IDOCK:   -6.85 KCAL/MOL
REMARK 924 INTRA-LIGAND FREE ENERGY PREDICTED BY IDOCK:   -1.19 KCAL/MOL
REMARK 927      BINDING AFFINITY PREDICTED BY RF-SCORE:    0.00 PKD
ROOT
HETATM    1  C   UNK A   0      -9.982  11.339  64.837  1.00  0.00    -0.274 C  
HETATM    2  N   UNK A   0     -10.271  11.467  66.262  1.00  0.00    -0.225 NA 
ENDROOT
BRANCH   2   3
HETATM    3  C   UNK A   0      -9.913  10.438  67.094  1.00  0.00    -0.195 A  
HETATM    4  C   UNK A   0      -9.173   9.216  68.950  1.00  0.00    -0.139 A  
HETATM    5  C   UNK A   0      -9.769  10.426  68.469  1.00  0.00    -0.174 A  
HETATM    6  S   UNK A   0      -9.588   8.876  66.463  1.00  0.00    -0.253 SA 
HETATM    7  C   UNK A   0      -8.936   8.314  67.933  1.00  0.00    -0.134 A  
BRANCH   7   8
HETATM    8  C   UNK A   0      -8.210   7.057  67.990  1.00  0.00    -0.119 C  
HETATM    9  O   UNK A   0      -7.021   6.976  68.278  1.00  0.00    -0.074 OA 
ATOM     10  N   GLU A   1      -8.949   5.936  67.643  1.00  0.00    -0.109 N  
ATOM     11  H   GLU A   1      -9.927   6.046  67.374  1.00  0.00     0.000 HD 
BRANCH  10  12
ATOM     12  CA  GLU A   1      -8.356   4.596  67.654  1.00  0.00    -0.103 C  
ATOM     13  C   GLU A   1      -8.180   4.092  66.210  1.00  0.00    -0.104 C  
ATOM     14  O   GLU A   1      -9.038   4.657  65.324  1.00  0.00    -0.142 OA 
ATOM     15  OXT GLU A   1      -7.446   3.164  65.895  1.00  0.00    -0.071 OA 
BRANCH  12  16
ATOM     16  CB  GLU A   1      -9.261   3.645  68.446  1.00  0.00    -0.219 C  
BRANCH  16  17
ATOM     17  CG  GLU A   1      -9.106   3.807  69.958  1.00  0.00    -0.193 C  
ATOM     18  CD  GLU A   1     -10.180   4.685  70.548  1.00  0.00    -0.141 C  
ATOM     19  OE2 GLU A   1     -10.740   5.586  69.950  1.00  0.00    -0.319 OA 
ATOM     20  OE1 GLU A   1     -10.440   4.392  71.842  1.00  0.00    -0.142 OA 
ENDBRANCH  16  17
ENDBRANCH  12  16
ENDBRANCH  10  12
ENDBRANCH   7   8
ENDBRANCH   2   3
BRANCH   2  21
HETATM   21  C   UNK A   0     -11.532  12.159  66.593  1.00  0.00    -0.365 C  
BRANCH  21  22
HETATM   22  C   UNK A   0     -11.272  13.532  67.173  1.00  0.00    -0.324 A  
HETATM   23  C   UNK A   0      -9.934  15.557  67.298  1.00  0.00    -0.238 A  
HETATM   24  C   UNK A   0     -10.813  16.109  68.229  1.00  0.00    -0.326 A  
HETATM   25  C   UNK A   0     -10.154  14.281  66.772  1.00  0.00    -0.264 A  
HETATM   26  H   UNK A   0      -7.852  18.251  67.070  1.00  0.00     0.000 HD 
HETATM   27  C   UNK A   0     -11.910  15.361  68.653  1.00  0.00    -0.317 A  
HETATM   28  C   UNK A   0      -9.306  19.510  68.738  1.00  0.00    -0.423 C  
HETATM   29  N   UNK A   0     -10.550  17.384  68.730  1.00  0.00    -0.324 NA 
HETATM   30  N   UNK A   0      -8.623  17.659  67.377  1.00  0.00    -0.224 N  
HETATM   31  C   UNK A   0     -12.140  14.086  68.123  1.00  0.00    -0.307 A  
HETATM   32  C   UNK A   0      -8.765  16.377  66.883  1.00  0.00    -0.204 C  
HETATM   33  O   UNK A   0      -7.956  15.877  66.106  1.00  0.00    -0.096 OA 
HETATM   34  C   UNK A   0      -9.487  18.095  68.239  1.00  0.00    -0.307 C  
ENDBRANCH  21  22
ENDBRANCH   2  21
TORSDOF 7
ENDMDL
MODEL      196
REMARK 921   NORMALIZED FREE ENERGY PREDICTED BY IDOCK:   -4.89 KCAL/MOL
REMARK 922        TOTAL FREE ENERGY PREDICTED BY IDOCK:   -8.03 KCAL/MOL
REMARK 923 INTER-LIGAND FREE ENERGY PREDICTED BY IDOCK:   -6.66 KCAL/MOL
REMARK 924 INTRA-LIGAND FREE ENERGY PREDICTED BY IDOCK:   -1.37 KCAL/MOL
REMARK 927      BINDING AFFINITY PREDICTED BY RF-SCORE:    0.00 PKD
ROOT
HETATM    1  C   UNK A   0      -8.158  10.230  64.316  1.00  0.00    -0.143 C  
HETATM    2  N   UNK A   0      -8.012   9.236  65.375  1.00  0.00    -0.106 NA 
ENDROOT
BRANCH   2   3
HETATM    3  C   UNK A   0      -8.190   9.638  66.674  1.00  0.00    -0.120 A  
HETATM    4  C   UNK A   0      -7.801  10.425  68.845  1.00  0.00    -0.115 A  
HETATM    5  C   UNK A   0      -7.366  10.400  67.481  1.00  0.00    -0.092 A  
HETATM    6  S   UNK A   0      -9.615   9.218  67.531  1.00  0.00    -0.154 SA 
HETATM    7  C   UNK A   0      -8.981   9.732  69.026  1.00  0.00    -0.154 A  
BRANCH   7   8
HETATM    8  C   UNK A   0      -9.650   9.397  70.271  1.00  0.00    -0.249 C  
HETATM    9  O   UNK A   0      -9.134   9.532  71.375  1.00  0.00    -0.220 OA 
ATOM     10  N   GLU A   1     -10.920   8.857  70.127  1.00  0.00    -0.242 N  
ATOM     11  H   GLU A   1     -11.304   8.726  69.191  1.00  0.00     0.000 HD 
BRANCH  10  12
ATOM     12  CA  GLU A   1     -11.722   8.470  71.291  1.00  0.00    -0.284 C  
ATOM     13  C   GLU A   1     -11.911   6.942  71.309  1.00  0.00    -0.356 C  
ATOM     14  O   GLU A   1     -11.816   6.364  70.086  1.00  0.00    -0.409 OA 
ATOM     15  OXT GLU A   1     -12.262   6.309  72.296  1.00  0.00    -0.286 OA 
BRANCH  12  16
ATOM     16  CB  GLU A   1     -13.081   9.177  71.230  1.00  0.00    -0.297 C  
BRANCH  16  17
ATOM     17  CG  GLU A   1     -13.145  10.411  72.129  1.00  0.00    -0.427 C  
ATOM     18  CD  GLU A   1     -12.810  11.676  71.380  1.00  0.00    -0.356 C  
ATOM     19  OE2 GLU A   1     -12.067  11.731  70.417  1.00  0.00    -0.350 OA 
ATOM     20  OE1 GLU A   1     -13.397  12.770  71.916  1.00  0.00    -0.463 OA 
ENDBRANCH  16  17
ENDBRANCH  12  16
ENDBRANCH  10  12
ENDBRANCH   7   8
ENDBRANCH   2   3
BRANCH   2  21
HETATM   21  C   UNK A   0      -6.966   8.219  65.150  1.00  0.00    -0.074 C  
BRANCH  21  22
HETATM   22  C   UNK A   0      -7.535   6.977  64.499  1.00  0.00    -0.099 A  
HETATM   23  C   UNK A   0      -8.941   4.996  64.588  1.00  0.00    -0.075 A  
HETATM   24  C   UNK A   0      -8.623   4.683  63.267  1.00  0.00    -0.123 A  
HETATM   25  C   UNK A   0      -8.404   6.130  65.205  1.00  0.00    -0.144 A  
HETATM   26  H   UNK A   0     -11.106   2.410  65.102  1.00  0.00     0.000 HD 
HETATM   27  C   UNK A   0      -7.739   5.504  62.568  1.00  0.00    -0.071 A  
HETATM   28  C   UNK A   0     -10.733   1.628  62.709  1.00  0.00    -0.142 C  
HETATM   29  N   UNK A   0      -9.178   3.538  62.695  1.00  0.00    -0.093 NA 
HETATM   30  N   UNK A   0     -10.431   3.017  64.638  1.00  0.00    -0.384 N  
HETATM   31  C   UNK A   0      -7.206   6.645  63.178  1.00  0.00    -0.060 A  
HETATM   32  C   UNK A   0      -9.872   4.088  65.308  1.00  0.00    -0.197 C  
HETATM   33  O   UNK A   0     -10.114   4.326  66.488  1.00  0.00    -0.227 OA 
HETATM   34  C   UNK A   0     -10.082   2.798  63.410  1.00  0.00    -0.145 C  
ENDBRANCH  21  22
ENDBRANCH   2  21
TORSDOF 7
ENDMDL
MODEL      197
REMARK 921   NORMALIZED FREE ENERGY PREDICTED BY IDOCK:   -4.88 KCAL/MOL
REMARK 922        TOTAL FREE ENERGY PREDICTED BY IDOCK:   -8.01 KCAL/MOL
REMARK 923 INTER-LIGAND FREE ENERGY PREDICTED BY IDOCK:   -7.60 KCAL/MOL
REMARK 924 INTRA-LIGAND FREE ENERGY PREDICTED BY IDOCK:   -0.42 KCAL/MOL
REMARK 927      BINDING AFFINITY PREDICTED BY RF-SCORE:    0.00 PKD
ROOT
HETATM    1  C   UNK A   0     -10.624   7.819  67.548  1.00  0.00    -0.248 C  
HETATM    2  N   UNK A   0     -10.976   8.474  68.804  1.00  0.00    -0.433 NA 
ENDROOT
BRANCH   2   3
HETATM    3  C   UNK A   0     -10.905   9.841  68.868  1.00  0.00    -0.192 A  
HETATM    4  C   UNK A   0     -11.478  12.112  68.884  1.00  0.00    -0.350 A  
HETATM    5  C   UNK A   0     -11.906  10.765  69.112  1.00  0.00    -0.347 A  
HETATM    6  S   UNK A   0      -9.409  10.651  68.651  1.00  0.00    -0.183 SA 
HETATM    7  C   UNK A   0     -10.145  12.182  68.532  1.00  0.00    -0.187 A  
BRANCH   7   8
HETATM    8  C   UNK A   0      -9.391  13.335  68.073  1.00  0.00    -0.218 C  
HETATM    9  O   UNK A   0      -8.184  13.311  67.857  1.00  0.00    -0.137 OA 
ATOM     10  N   GLU A   1     -10.128  14.502  67.937  1.00  0.00    -0.225 N  
ATOM     11  H   GLU A   1     -11.123  14.493  68.160  1.00  0.00     0.000 HD 
BRANCH  10  12
ATOM     12  CA  GLU A   1      -9.507  15.749  67.481  1.00  0.00    -0.218 C  
ATOM     13  C   GLU A   1      -9.568  16.802  68.603  1.00  0.00    -0.255 C  
ATOM     14  O   GLU A   1     -10.579  16.605  69.485  1.00  0.00    -0.315 OA 
ATOM     15  OXT GLU A   1      -8.875  17.811  68.630  1.00  0.00    -0.294 OA 
BRANCH  12  16
ATOM     16  CB  GLU A   1     -10.239  16.254  66.232  1.00  0.00    -0.339 C  
BRANCH  16  17
ATOM     17  CG  GLU A   1     -11.406  15.354  65.828  1.00  0.00    -0.115 C  
ATOM     18  CD  GLU A   1     -11.866  15.619  64.418  1.00  0.00    -0.182 C  
ATOM     19  OE2 GLU A   1     -11.778  16.695  63.854  1.00  0.00    -1.153 OA 
ATOM     20  OE1 GLU A   1     -12.431  14.534  63.841  1.00  0.00    -0.814 OA 
ENDBRANCH  16  17
ENDBRANCH  12  16
ENDBRANCH  10  12
ENDBRANCH   7   8
ENDBRANCH   2   3
BRANCH   2  21
HETATM   21  C   UNK A   0     -10.586   7.748  70.029  1.00  0.00    -0.238 C  
BRANCH  21  22
HETATM   22  C   UNK A   0      -9.736   6.538  69.706  1.00  0.00    -0.170 A  
HETATM   23  C   UNK A   0      -7.560   5.510  69.370  1.00  0.00    -0.078 A  
HETATM   24  C   UNK A   0      -8.155   4.269  69.140  1.00  0.00    -0.067 A  
HETATM   25  C   UNK A   0      -8.338   6.638  69.648  1.00  0.00    -0.132 A  
HETATM   26  H   UNK A   0      -4.326   4.456  69.105  1.00  0.00     0.000 HD 
HETATM   27  C   UNK A   0      -9.545   4.168  69.167  1.00  0.00    -0.243 A  
HETATM   28  C   UNK A   0      -5.139   2.079  68.691  1.00  0.00    -0.011 C  
HETATM   29  N   UNK A   0      -7.339   3.173  68.860  1.00  0.00    -0.049 NA 
HETATM   30  N   UNK A   0      -5.345   4.432  69.101  1.00  0.00    -0.010 N  
HETATM   31  C   UNK A   0     -10.328   5.292  69.456  1.00  0.00    -0.333 A  
HETATM   32  C   UNK A   0      -6.076   5.584  69.314  1.00  0.00    -0.025 C  
HETATM   33  O   UNK A   0      -5.547   6.682  69.460  1.00  0.00    -0.014 OA 
HETATM   34  C   UNK A   0      -5.978   3.319  68.898  1.00  0.00    -0.024 C  
ENDBRANCH  21  22
ENDBRANCH   2  21
TORSDOF 7
ENDMDL
MODEL      198
REMARK 921   NORMALIZED FREE ENERGY PREDICTED BY IDOCK:   -4.87 KCAL/MOL
REMARK 922        TOTAL FREE ENERGY PREDICTED BY IDOCK:   -8.00 KCAL/MOL
REMARK 923 INTER-LIGAND FREE ENERGY PREDICTED BY IDOCK:   -7.21 KCAL/MOL
REMARK 924 INTRA-LIGAND FREE ENERGY PREDICTED BY IDOCK:   -0.78 KCAL/MOL
REMARK 927      BINDING AFFINITY PREDICTED BY RF-SCORE:    0.00 PKD
ROOT
HETATM    1  C   UNK A   0     -10.894  13.448  64.680  1.00  0.00    -0.392 C  
HETATM    2  N   UNK A   0     -10.422  13.488  66.061  1.00  0.00    -0.293 NA 
ENDROOT
BRANCH   2   3
HETATM    3  C   UNK A   0     -10.410  12.320  66.779  1.00  0.00    -0.217 A  
HETATM    4  C   UNK A   0     -10.956  10.622  68.296  1.00  0.00    -0.314 A  
HETATM    5  C   UNK A   0     -11.421  11.727  67.513  1.00  0.00    -0.373 A  
HETATM    6  S   UNK A   0      -8.999  11.346  66.840  1.00  0.00    -0.176 SA 
HETATM    7  C   UNK A   0      -9.616  10.365  68.089  1.00  0.00    -0.144 A  
BRANCH   7   8
HETATM    8  C   UNK A   0      -8.751   9.444  68.804  1.00  0.00    -0.131 C  
HETATM    9  O   UNK A   0      -7.918   9.800  69.630  1.00  0.00    -0.116 OA 
ATOM     10  N   GLU A   1      -8.895   8.110  68.450  1.00  0.00    -0.134 N  
ATOM     11  H   GLU A   1      -9.573   7.854  67.733  1.00  0.00     0.000 HD 
BRANCH  10  12
ATOM     12  CA  GLU A   1      -8.093   7.060  69.085  1.00  0.00    -0.121 C  
ATOM     13  C   GLU A   1      -7.503   6.132  68.008  1.00  0.00    -0.089 C  
ATOM     14  O   GLU A   1      -8.219   6.105  66.857  1.00  0.00    -0.105 OA 
ATOM     15  OXT GLU A   1      -6.564   5.371  68.203  1.00  0.00    -0.046 OA 
BRANCH  12  16
ATOM     16  CB  GLU A   1      -8.974   6.262  70.054  1.00  0.00    -0.149 C  
BRANCH  16  17
ATOM     17  CG  GLU A   1      -8.161   5.377  70.998  1.00  0.00    -0.113 C  
ATOM     18  CD  GLU A   1      -8.569   3.929  70.909  1.00  0.00    -0.072 C  
ATOM     19  OE2 GLU A   1      -9.685   3.543  70.616  1.00  0.00    -0.180 OA 
ATOM     20  OE1 GLU A   1      -7.563   3.084  71.230  1.00  0.00    -0.043 OA 
ENDBRANCH  16  17
ENDBRANCH  12  16
ENDBRANCH  10  12
ENDBRANCH   7   8
ENDBRANCH   2   3
BRANCH   2  21
HETATM   21  C   UNK A   0     -10.772  14.708  66.815  1.00  0.00    -0.301 C  
BRANCH  21  22
HETATM   22  C   UNK A   0      -9.687  15.757  66.700  1.00  0.00    -0.266 A  
HETATM   23  C   UNK A   0      -9.002  18.061  66.341  1.00  0.00    -0.249 A  
HETATM   24  C   UNK A   0      -7.663  17.717  66.525  1.00  0.00    -0.270 A  
HETATM   25  C   UNK A   0     -10.009  17.095  66.424  1.00  0.00    -0.315 A  
HETATM   26  H   UNK A   0      -8.496  21.408  65.908  1.00  0.00     0.000 HD 
HETATM   27  C   UNK A   0      -7.333  16.385  66.772  1.00  0.00    -0.261 A  
HETATM   28  C   UNK A   0      -5.995  21.068  66.241  1.00  0.00    -0.312 C  
HETATM   29  N   UNK A   0      -6.692  18.713  66.427  1.00  0.00    -0.197 NA 
HETATM   30  N   UNK A   0      -8.295  20.419  66.054  1.00  0.00    -0.549 N  
HETATM   31  C   UNK A   0      -8.339  15.416  66.866  1.00  0.00    -0.290 A  
HETATM   32  C   UNK A   0      -9.315  19.487  66.061  1.00  0.00    -0.231 C  
HETATM   33  O   UNK A   0     -10.484  19.790  65.843  1.00  0.00    -0.504 OA 
HETATM   34  C   UNK A   0      -7.078  20.013  66.236  1.00  0.00    -0.259 C  
ENDBRANCH  21  22
ENDBRANCH   2  21
TORSDOF 7
ENDMDL
MODEL      199
REMARK 921   NORMALIZED FREE ENERGY PREDICTED BY IDOCK:   -4.86 KCAL/MOL
REMARK 922        TOTAL FREE ENERGY PREDICTED BY IDOCK:   -7.98 KCAL/MOL
REMARK 923 INTER-LIGAND FREE ENERGY PREDICTED BY IDOCK:   -7.69 KCAL/MOL
REMARK 924 INTRA-LIGAND FREE ENERGY PREDICTED BY IDOCK:   -0.29 KCAL/MOL
REMARK 927      BINDING AFFINITY PREDICTED BY RF-SCORE:    0.00 PKD
ROOT
HETATM    1  C   UNK A   0     -10.056  18.160  68.467  1.00  0.00    -0.400 C  
HETATM    2  N   UNK A   0     -10.226  16.720  68.632  1.00  0.00    -0.278 NA 
ENDROOT
BRANCH   2   3
HETATM    3  C   UNK A   0      -9.170  15.900  68.325  1.00  0.00    -0.189 A  
HETATM    4  C   UNK A   0      -7.412  14.847  67.191  1.00  0.00    -0.111 A  
HETATM    5  C   UNK A   0      -8.227  16.017  67.321  1.00  0.00    -0.209 A  
HETATM    6  S   UNK A   0      -8.850  14.499  69.261  1.00  0.00     0.216 SA 
HETATM    7  C   UNK A   0      -7.717  13.894  68.142  1.00  0.00    -0.142 A  
BRANCH   7   8
HETATM    8  C   UNK A   0      -7.231  12.530  68.243  1.00  0.00    -0.111 C  
HETATM    9  O   UNK A   0      -6.349  12.181  69.020  1.00  0.00    -0.073 OA 
ATOM     10  N   GLU A   1      -7.805  11.635  67.351  1.00  0.00    -0.139 N  
ATOM     11  H   GLU A   1      -8.510  11.969  66.694  1.00  0.00     0.000 HD 
BRANCH  10  12
ATOM     12  CA  GLU A   1      -7.419  10.222  67.331  1.00  0.00    -0.094 C  
ATOM     13  C   GLU A   1      -6.247  10.015  66.354  1.00  0.00    -0.068 C  
ATOM     14  O   GLU A   1      -6.180  10.949  65.374  1.00  0.00    -0.064 OA 
ATOM     15  OXT GLU A   1      -5.524   9.027  66.355  1.00  0.00    -0.037 OA 
BRANCH  12  16
ATOM     16  CB  GLU A   1      -8.623   9.371  66.910  1.00  0.00    -0.132 C  
BRANCH  16  17
ATOM     17  CG  GLU A   1      -8.727   9.206  65.394  1.00  0.00    -0.217 C  
ATOM     18  CD  GLU A   1      -9.702  10.179  64.782  1.00  0.00    -0.322 C  
ATOM     19  OE2 GLU A   1     -10.675  10.633  65.356  1.00  0.00    -0.171 OA 
ATOM     20  OE1 GLU A   1      -9.405  10.476  63.497  1.00  0.00    -0.239 OA 
ENDBRANCH  16  17
ENDBRANCH  12  16
ENDBRANCH  10  12
ENDBRANCH   7   8
ENDBRANCH   2   3
BRANCH   2  21
HETATM   21  C   UNK A   0     -11.567  16.198  68.305  1.00  0.00    -0.181 C  
BRANCH  21  22
HETATM   22  C   UNK A   0     -11.949  15.049  69.213  1.00  0.00    -0.322 A  
HETATM   23  C   UNK A   0     -12.255  12.669  69.600  1.00  0.00    -0.177 A  
HETATM   24  C   UNK A   0     -12.627  12.909  70.923  1.00  0.00    -0.270 A  
HETATM   25  C   UNK A   0     -11.920  13.726  68.747  1.00  0.00    -0.400 A  
HETATM   26  H   UNK A   0     -12.434   9.265  69.745  1.00  0.00     0.000 HD 
HETATM   27  C   UNK A   0     -12.686  14.223  71.385  1.00  0.00    -0.424 A  
HETATM   28  C   UNK A   0     -13.103   9.409  72.197  1.00  0.00    -0.526 C  
HETATM   29  N   UNK A   0     -12.959  11.824  71.735  1.00  0.00    -0.409 NA 
HETATM   30  N   UNK A   0     -12.496  10.242  70.033  1.00  0.00    -0.533 N  
HETATM   31  C   UNK A   0     -12.342  15.283  70.537  1.00  0.00    -0.434 A  
HETATM   32  C   UNK A   0     -12.222  11.257  69.138  1.00  0.00    -0.183 C  
HETATM   33  O   UNK A   0     -11.949  11.042  67.960  1.00  0.00    -0.623 OA 
HETATM   34  C   UNK A   0     -12.832  10.551  71.245  1.00  0.00    -0.431 C  
ENDBRANCH  21  22
ENDBRANCH   2  21
TORSDOF 7
ENDMDL
MODEL      200
REMARK 921   NORMALIZED FREE ENERGY PREDICTED BY IDOCK:   -4.85 KCAL/MOL
REMARK 922        TOTAL FREE ENERGY PREDICTED BY IDOCK:   -7.97 KCAL/MOL
REMARK 923 INTER-LIGAND FREE ENERGY PREDICTED BY IDOCK:   -7.02 KCAL/MOL
REMARK 924 INTRA-LIGAND FREE ENERGY PREDICTED BY IDOCK:   -0.95 KCAL/MOL
REMARK 927      BINDING AFFINITY PREDICTED BY RF-SCORE:    0.00 PKD
ROOT
HETATM    1  C   UNK A   0      -7.564   6.651  65.267  1.00  0.00    -0.088 C  
HETATM    2  N   UNK A   0      -7.794   7.516  66.419  1.00  0.00    -0.096 NA 
ENDROOT
BRANCH   2   3
HETATM    3  C   UNK A   0      -8.008   8.852  66.197  1.00  0.00    -0.106 A  
HETATM    4  C   UNK A   0      -8.079  11.178  66.456  1.00  0.00    -0.163 A  
HETATM    5  C   UNK A   0      -7.440   9.950  66.817  1.00  0.00    -0.095 A  
HETATM    6  S   UNK A   0      -9.104   9.373  64.985  1.00  0.00    -0.189 SA 
HETATM    7  C   UNK A   0      -9.078  10.989  65.522  1.00  0.00    -0.207 A  
BRANCH   7   8
HETATM    8  C   UNK A   0     -10.050  11.950  65.030  1.00  0.00    -0.264 C  
HETATM    9  O   UNK A   0     -10.574  11.876  63.924  1.00  0.00    -0.317 OA 
ATOM     10  N   GLU A   1     -10.316  13.007  65.888  1.00  0.00    -0.283 N  
ATOM     11  H   GLU A   1      -9.834  13.055  66.786  1.00  0.00     0.000 HD 
BRANCH  10  12
ATOM     12  CA  GLU A   1     -11.275  14.057  65.533  1.00  0.00    -0.311 C  
ATOM     13  C   GLU A   1     -10.521  15.346  65.158  1.00  0.00    -0.411 C  
ATOM     14  O   GLU A   1      -9.291  15.444  65.720  1.00  0.00    -0.325 OA 
ATOM     15  OXT GLU A   1     -11.023  16.273  64.536  1.00  0.00    -0.687 OA 
BRANCH  12  16
ATOM     16  CB  GLU A   1     -12.213  14.311  66.719  1.00  0.00    -0.384 C  
BRANCH  16  17
ATOM     17  CG  GLU A   1     -12.021  13.301  67.850  1.00  0.00    -0.349 C  
ATOM     18  CD  GLU A   1     -11.619  13.966  69.142  1.00  0.00    -0.313 C  
ATOM     19  OE2 GLU A   1     -10.990  15.006  69.216  1.00  0.00    -0.241 OA 
ATOM     20  OE1 GLU A   1     -12.002  13.262  70.231  1.00  0.00    -0.333 OA 
ENDBRANCH  16  17
ENDBRANCH  12  16
ENDBRANCH  10  12
ENDBRANCH   7   8
ENDBRANCH   2   3
BRANCH   2  21
HETATM   21  C   UNK A   0      -7.024   7.176  67.631  1.00  0.00    -0.079 C  
BRANCH  21  22
HETATM   22  C   UNK A   0      -7.854   6.367  68.604  1.00  0.00    -0.102 A  
HETATM   23  C   UNK A   0      -8.832   6.063  70.808  1.00  0.00    -0.139 A  
HETATM   24  C   UNK A   0      -9.434   4.872  70.402  1.00  0.00    -0.167 A  
HETATM   25  C   UNK A   0      -8.046   6.807  69.923  1.00  0.00    -0.126 A  
HETATM   26  H   UNK A   0     -10.104   6.094  73.974  1.00  0.00     0.000 HD 
HETATM   27  C   UNK A   0      -9.225   4.414  69.102  1.00  0.00    -0.202 A  
HETATM   28  C   UNK A   0     -11.346   3.925  73.492  1.00  0.00    -0.261 C  
HETATM   29  N   UNK A   0     -10.205   4.160  71.322  1.00  0.00    -0.076 NA 
HETATM   30  N   UNK A   0      -9.899   5.778  73.026  1.00  0.00    -0.165 N  
HETATM   31  C   UNK A   0      -8.447   5.161  68.209  1.00  0.00    -0.095 A  
HETATM   32  C   UNK A   0      -9.061   6.510  72.207  1.00  0.00    -0.138 C  
HETATM   33  O   UNK A   0      -8.490   7.527  72.589  1.00  0.00    -0.108 OA 
HETATM   34  C   UNK A   0     -10.420   4.684  72.569  1.00  0.00    -0.195 C  
ENDBRANCH  21  22
ENDBRANCH   2  21
TORSDOF 7
ENDMDL
MODEL      201
REMARK 921   NORMALIZED FREE ENERGY PREDICTED BY IDOCK:   -4.85 KCAL/MOL
REMARK 922        TOTAL FREE ENERGY PREDICTED BY IDOCK:   -7.97 KCAL/MOL
REMARK 923 INTER-LIGAND FREE ENERGY PREDICTED BY IDOCK:   -7.20 KCAL/MOL
REMARK 924 INTRA-LIGAND FREE ENERGY PREDICTED BY IDOCK:   -0.76 KCAL/MOL
REMARK 927      BINDING AFFINITY PREDICTED BY RF-SCORE:    0.00 PKD
ROOT
HETATM    1  C   UNK A   0     -12.562   9.596  70.961  1.00  0.00    -0.283 C  
HETATM    2  N   UNK A   0     -11.154   9.258  71.143  1.00  0.00    -0.310 NA 
ENDROOT
BRANCH   2   3
HETATM    3  C   UNK A   0     -10.247   9.731  70.230  1.00  0.00    -0.289 A  
HETATM    4  C   UNK A   0      -8.290  10.556  69.243  1.00  0.00    -0.144 A  
HETATM    5  C   UNK A   0      -8.868   9.800  70.312  1.00  0.00    -0.188 A  
HETATM    6  S   UNK A   0     -10.769  10.337  68.713  1.00  0.00    -0.232 SA 
HETATM    7  C   UNK A   0      -9.240  10.990  68.341  1.00  0.00    -0.175 A  
BRANCH   7   8
HETATM    8  C   UNK A   0      -9.076  11.905  67.225  1.00  0.00    -0.178 C  
HETATM    9  O   UNK A   0      -8.368  11.666  66.252  1.00  0.00    -0.135 OA 
ATOM     10  N   GLU A   1      -9.746  13.113  67.353  1.00  0.00    -0.215 N  
ATOM     11  H   GLU A   1     -10.297  13.292  68.192  1.00  0.00     0.000 HD 
BRANCH  10  12
ATOM     12  CA  GLU A   1      -9.679  14.139  66.308  1.00  0.00    -0.297 C  
ATOM     13  C   GLU A   1      -8.894  15.359  66.825  1.00  0.00    -0.269 C  
ATOM     14  O   GLU A   1      -8.913  15.490  68.175  1.00  0.00    -0.175 OA 
ATOM     15  OXT GLU A   1      -8.418  16.221  66.099  1.00  0.00    -0.325 OA 
BRANCH  12  16
ATOM     16  CB  GLU A   1     -11.100  14.549  65.905  1.00  0.00    -0.327 C  
BRANCH  16  17
ATOM     17  CG  GLU A   1     -11.661  13.693  64.770  1.00  0.00    -0.374 C  
ATOM     18  CD  GLU A   1     -12.480  12.536  65.282  1.00  0.00    -0.319 C  
ATOM     19  OE2 GLU A   1     -12.302  11.985  66.353  1.00  0.00    -0.403 OA 
ATOM     20  OE1 GLU A   1     -13.428  12.139  64.404  1.00  0.00    -0.675 OA 
ENDBRANCH  16  17
ENDBRANCH  12  16
ENDBRANCH  10  12
ENDBRANCH   7   8
ENDBRANCH   2   3
BRANCH   2  21
HETATM   21  C   UNK A   0     -10.890   7.908  71.677  1.00  0.00    -0.232 C  
BRANCH  21  22
HETATM   22  C   UNK A   0     -10.408   6.969  70.592  1.00  0.00    -0.223 A  
HETATM   23  C   UNK A   0      -8.647   5.640  69.572  1.00  0.00    -0.110 A  
HETATM   24  C   UNK A   0      -9.525   5.190  68.587  1.00  0.00    -0.133 A  
HETATM   25  C   UNK A   0      -9.078   6.523  70.567  1.00  0.00    -0.152 A  
HETATM   26  H   UNK A   0      -5.940   3.834  68.550  1.00  0.00     0.000 HD 
HETATM   27  C   UNK A   0     -10.841   5.650  68.588  1.00  0.00    -0.190 A  
HETATM   28  C   UNK A   0      -7.328   2.826  66.669  1.00  0.00    -0.070 C  
HETATM   29  N   UNK A   0      -9.050   4.314  67.611  1.00  0.00    -0.125 NA 
HETATM   30  N   UNK A   0      -6.883   4.220  68.568  1.00  0.00    -0.047 N  
HETATM   31  C   UNK A   0     -11.279   6.527  69.588  1.00  0.00    -0.446 A  
HETATM   32  C   UNK A   0      -7.247   5.143  69.528  1.00  0.00    -0.057 C  
HETATM   33  O   UNK A   0      -6.454   5.577  70.359  1.00  0.00    -0.029 OA 
HETATM   34  C   UNK A   0      -7.762   3.853  67.689  1.00  0.00    -0.075 C  
ENDBRANCH  21  22
ENDBRANCH   2  21
TORSDOF 7
ENDMDL
MODEL      202
REMARK 921   NORMALIZED FREE ENERGY PREDICTED BY IDOCK:   -4.84 KCAL/MOL
REMARK 922        TOTAL FREE ENERGY PREDICTED BY IDOCK:   -7.95 KCAL/MOL
REMARK 923 INTER-LIGAND FREE ENERGY PREDICTED BY IDOCK:   -6.77 KCAL/MOL
REMARK 924 INTRA-LIGAND FREE ENERGY PREDICTED BY IDOCK:   -1.18 KCAL/MOL
REMARK 927      BINDING AFFINITY PREDICTED BY RF-SCORE:    0.00 PKD
ROOT
HETATM    1  C   UNK A   0     -12.994  12.289  71.740  1.00  0.00    -0.325 C  
HETATM    2  N   UNK A   0     -12.409  11.417  70.726  1.00  0.00    -0.388 NA 
ENDROOT
BRANCH   2   3
HETATM    3  C   UNK A   0     -11.834  11.995  69.624  1.00  0.00    -0.333 A  
HETATM    4  C   UNK A   0     -11.464  13.328  67.734  1.00  0.00    -0.354 A  
HETATM    5  C   UNK A   0     -12.161  13.172  68.975  1.00  0.00    -0.240 A  
HETATM    6  S   UNK A   0     -10.489  11.261  68.853  1.00  0.00    -0.188 SA 
HETATM    7  C   UNK A   0     -10.580  12.294  67.501  1.00  0.00    -0.218 A  
BRANCH   7   8
HETATM    8  C   UNK A   0      -9.817  12.011  66.298  1.00  0.00    -0.231 C  
HETATM    9  O   UNK A   0      -9.804  12.745  65.316  1.00  0.00    -0.213 OA 
ATOM     10  N   GLU A   1      -9.126  10.808  66.311  1.00  0.00    -0.169 N  
ATOM     11  H   GLU A   1      -9.188  10.206  67.132  1.00  0.00     0.000 HD 
BRANCH  10  12
ATOM     12  CA  GLU A   1      -8.309  10.383  65.171  1.00  0.00    -0.165 C  
ATOM     13  C   GLU A   1      -8.725   8.967  64.731  1.00  0.00    -0.153 C  
ATOM     14  O   GLU A   1      -9.291   8.231  65.719  1.00  0.00    -0.145 OA 
ATOM     15  OXT GLU A   1      -8.446   8.482  63.643  1.00  0.00    -0.134 OA 
BRANCH  12  16
ATOM     16  CB  GLU A   1      -6.829  10.407  65.569  1.00  0.00    -0.125 C  
BRANCH  16  17
ATOM     17  CG  GLU A   1      -6.566  11.254  66.813  1.00  0.00    -0.140 C  
ATOM     18  CD  GLU A   1      -6.478  10.416  68.063  1.00  0.00    -0.060 C  
ATOM     19  OE2 GLU A   1      -7.059   9.359  68.227  1.00  0.00    -0.074 OA 
ATOM     20  OE1 GLU A   1      -5.703  10.981  69.016  1.00  0.00    -0.041 OA 
ENDBRANCH  16  17
ENDBRANCH  12  16
ENDBRANCH  10  12
ENDBRANCH   7   8
ENDBRANCH   2   3
BRANCH   2  21
HETATM   21  C   UNK A   0     -13.124  10.147  70.492  1.00  0.00    -0.112 C  
BRANCH  21  22
HETATM   22  C   UNK A   0     -12.429   8.989  71.173  1.00  0.00    -0.285 A  
HETATM   23  C   UNK A   0     -10.480   8.044  72.277  1.00  0.00    -0.344 A  
HETATM   24  C   UNK A   0     -11.149   6.836  72.476  1.00  0.00    -0.264 A  
HETATM   25  C   UNK A   0     -11.107   9.113  71.630  1.00  0.00    -0.445 A  
HETATM   26  H   UNK A   0      -7.591   7.165  73.864  1.00  0.00     0.000 HD 
HETATM   27  C   UNK A   0     -12.452   6.696  72.000  1.00  0.00    -0.288 A  
HETATM   28  C   UNK A   0      -8.582   4.881  74.395  1.00  0.00    -0.113 C  
HETATM   29  N   UNK A   0     -10.481   5.795  73.120  1.00  0.00    -0.211 NA 
HETATM   30  N   UNK A   0      -8.529   7.093  73.472  1.00  0.00    -0.121 N  
HETATM   31  C   UNK A   0     -13.088   7.767  71.361  1.00  0.00    -0.310 A  
HETATM   32  C   UNK A   0      -9.086   8.151  72.781  1.00  0.00    -0.259 C  
HETATM   33  O   UNK A   0      -8.471   9.190  72.561  1.00  0.00    -0.196 OA 
HETATM   34  C   UNK A   0      -9.221   6.006  73.614  1.00  0.00    -0.127 C  
ENDBRANCH  21  22
ENDBRANCH   2  21
TORSDOF 7
ENDMDL
MODEL      203
REMARK 921   NORMALIZED FREE ENERGY PREDICTED BY IDOCK:   -4.83 KCAL/MOL
REMARK 922        TOTAL FREE ENERGY PREDICTED BY IDOCK:   -7.93 KCAL/MOL
REMARK 923 INTER-LIGAND FREE ENERGY PREDICTED BY IDOCK:   -6.25 KCAL/MOL
REMARK 924 INTRA-LIGAND FREE ENERGY PREDICTED BY IDOCK:   -1.68 KCAL/MOL
REMARK 927      BINDING AFFINITY PREDICTED BY RF-SCORE:    0.00 PKD
ROOT
HETATM    1  C   UNK A   0      -8.900   2.999  66.883  1.00  0.00    -0.145 C  
HETATM    2  N   UNK A   0      -8.566   4.411  67.036  1.00  0.00    -0.104 NA 
ENDROOT
BRANCH   2   3
HETATM    3  C   UNK A   0      -9.479   5.233  67.645  1.00  0.00    -0.123 A  
HETATM    4  C   UNK A   0     -11.269   6.695  68.023  1.00  0.00    -0.217 A  
HETATM    5  C   UNK A   0     -10.707   5.676  67.189  1.00  0.00    -0.316 A  
HETATM    6  S   UNK A   0      -9.183   5.858  69.215  1.00  0.00    -0.122 SA 
HETATM    7  C   UNK A   0     -10.482   6.957  69.126  1.00  0.00    -0.207 A  
BRANCH   7   8
HETATM    8  C   UNK A   0     -10.626   8.016  70.109  1.00  0.00    -0.237 C  
HETATM    9  O   UNK A   0     -10.042   8.022  71.187  1.00  0.00    -0.186 OA 
ATOM     10  N   GLU A   1     -11.521   9.018  69.764  1.00  0.00    -0.439 N  
ATOM     11  H   GLU A   1     -12.015   8.961  68.874  1.00  0.00     0.000 HD 
BRANCH  10  12
ATOM     12  CA  GLU A   1     -11.773  10.157  70.652  1.00  0.00    -0.338 C  
ATOM     13  C   GLU A   1     -13.061   9.913  71.459  1.00  0.00    -0.418 C  
ATOM     14  O   GLU A   1     -13.935   9.070  70.855  1.00  0.00    -0.075 OA 
ATOM     15  OXT GLU A   1     -13.355  10.525  72.478  1.00  0.00    -0.136 OA 
BRANCH  12  16
ATOM     16  CB  GLU A   1     -11.899  11.436  69.817  1.00  0.00    -0.435 C  
BRANCH  16  17
ATOM     17  CG  GLU A   1     -11.434  11.245  68.373  1.00  0.00    -0.377 C  
ATOM     18  CD  GLU A   1     -11.372  12.548  67.619  1.00  0.00    -0.306 C  
ATOM     19  OE2 GLU A   1     -12.080  13.512  67.849  1.00  0.00    -0.346 OA 
ATOM     20  OE1 GLU A   1     -10.461  12.530  66.620  1.00  0.00    -0.231 OA 
ENDBRANCH  16  17
ENDBRANCH  12  16
ENDBRANCH  10  12
ENDBRANCH   7   8
ENDBRANCH   2   3
BRANCH   2  21
HETATM   21  C   UNK A   0      -7.800   5.006  65.924  1.00  0.00    -0.092 C  
BRANCH  21  22
HETATM   22  C   UNK A   0      -7.322   6.400  66.266  1.00  0.00    -0.080 A  
HETATM   23  C   UNK A   0      -7.552   8.815  66.107  1.00  0.00    -0.094 A  
HETATM   24  C   UNK A   0      -6.447   8.999  66.938  1.00  0.00    -0.064 A  
HETATM   25  C   UNK A   0      -7.989   7.530  65.768  1.00  0.00    -0.117 A  
HETATM   26  H   UNK A   0      -8.313  12.118  65.718  1.00  0.00     0.000 HD 
HETATM   27  C   UNK A   0      -5.763   7.881  67.414  1.00  0.00    -0.037 A  
HETATM   28  C   UNK A   0      -6.368  12.740  67.238  1.00  0.00    -0.062 C  
HETATM   29  N   UNK A   0      -6.044  10.298  67.244  1.00  0.00    -0.054 NA 
HETATM   30  N   UNK A   0      -7.821  11.276  66.017  1.00  0.00    -0.362 N  
HETATM   31  C   UNK A   0      -6.202   6.593  67.085  1.00  0.00    -0.036 A  
HETATM   32  C   UNK A   0      -8.246  10.029  65.603  1.00  0.00    -0.143 C  
HETATM   33  O   UNK A   0      -9.185   9.877  64.827  1.00  0.00    -0.219 OA 
HETATM   34  C   UNK A   0      -6.786  11.358  66.793  1.00  0.00    -0.132 C  
ENDBRANCH  21  22
ENDBRANCH   2  21
TORSDOF 7
ENDMDL
MODEL      204
REMARK 921   NORMALIZED FREE ENERGY PREDICTED BY IDOCK:   -4.81 KCAL/MOL
REMARK 922        TOTAL FREE ENERGY PREDICTED BY IDOCK:   -7.91 KCAL/MOL
REMARK 923 INTER-LIGAND FREE ENERGY PREDICTED BY IDOCK:   -7.08 KCAL/MOL
REMARK 924 INTRA-LIGAND FREE ENERGY PREDICTED BY IDOCK:   -0.83 KCAL/MOL
REMARK 927      BINDING AFFINITY PREDICTED BY RF-SCORE:    0.00 PKD
ROOT
HETATM    1  C   UNK A   0      -9.525   9.720  65.354  1.00  0.00    -0.269 C  
HETATM    2  N   UNK A   0      -9.638  10.433  66.623  1.00  0.00    -0.172 NA 
ENDROOT
BRANCH   2   3
HETATM    3  C   UNK A   0      -9.908  11.776  66.593  1.00  0.00    -0.202 A  
HETATM    4  C   UNK A   0     -10.855  13.856  66.080  1.00  0.00    -0.290 A  
HETATM    5  C   UNK A   0     -11.038  12.438  66.148  1.00  0.00    -0.340 A  
HETATM    6  S   UNK A   0      -8.766  12.911  67.183  1.00  0.00    -0.192 SA 
HETATM    7  C   UNK A   0      -9.610  14.241  66.535  1.00  0.00    -0.297 A  
BRANCH   7   8
HETATM    8  C   UNK A   0      -8.993  15.555  66.478  1.00  0.00    -0.312 C  
HETATM    9  O   UNK A   0      -9.218  16.370  65.589  1.00  0.00    -0.465 OA 
ATOM     10  N   GLU A   1      -8.078  15.818  67.487  1.00  0.00    -0.149 N  
ATOM     11  H   GLU A   1      -7.890  15.102  68.189  1.00  0.00     0.000 HD 
BRANCH  10  12
ATOM     12  CA  GLU A   1      -7.374  17.101  67.565  1.00  0.00    -0.161 C  
ATOM     13  C   GLU A   1      -5.922  16.930  67.082  1.00  0.00    -0.173 C  
ATOM     14  O   GLU A   1      -5.447  15.667  67.215  1.00  0.00    -0.336 OA 
ATOM     15  OXT GLU A   1      -5.200  17.860  66.749  1.00  0.00    -0.127 OA 
BRANCH  12  16
ATOM     16  CB  GLU A   1      -7.401  17.609  69.012  1.00  0.00    -0.194 C  
BRANCH  16  17
ATOM     17  CG  GLU A   1      -8.655  18.425  69.326  1.00  0.00     0.235 C  
ATOM     18  CD  GLU A   1      -8.838  19.575  68.369  1.00  0.00    -0.342 C  
ATOM     19  OE2 GLU A   1      -7.928  20.154  67.805  1.00  0.00    -0.294 OA 
ATOM     20  OE1 GLU A   1     -10.135  19.930  68.223  1.00  0.00    -0.423 OA 
ENDBRANCH  16  17
ENDBRANCH  12  16
ENDBRANCH  10  12
ENDBRANCH   7   8
ENDBRANCH   2   3
BRANCH   2  21
HETATM   21  C   UNK A   0      -8.722   9.980  67.688  1.00  0.00    -0.121 C  
BRANCH  21  22
HETATM   22  C   UNK A   0      -9.453   9.176  68.741  1.00  0.00    -0.147 A  
HETATM   23  C   UNK A   0      -9.759   7.119  69.999  1.00  0.00    -0.171 A  
HETATM   24  C   UNK A   0     -10.797   7.694  70.732  1.00  0.00    -0.239 A  
HETATM   25  C   UNK A   0      -9.091   7.847  69.010  1.00  0.00    -0.144 A  
HETATM   26  H   UNK A   0      -9.760   4.107  71.601  1.00  0.00     0.000 HD 
HETATM   27  C   UNK A   0     -11.182   9.005  70.451  1.00  0.00    -0.275 A  
HETATM   28  C   UNK A   0     -11.646   4.914  73.108  1.00  0.00    -0.300 C  
HETATM   29  N   UNK A   0     -11.439   6.928  71.704  1.00  0.00    -0.262 NA 
HETATM   30  N   UNK A   0     -10.031   5.055  71.343  1.00  0.00    -0.185 N  
HETATM   31  C   UNK A   0     -10.509   9.740  69.468  1.00  0.00    -0.250 A  
HETATM   32  C   UNK A   0      -9.389   5.714  70.312  1.00  0.00    -0.152 C  
HETATM   33  O   UNK A   0      -8.514   5.183  69.635  1.00  0.00    -0.091 OA 
HETATM   34  C   UNK A   0     -10.985   5.664  71.975  1.00  0.00    -0.243 C  
ENDBRANCH  21  22
ENDBRANCH   2  21
TORSDOF 7
ENDMDL
MODEL      205
REMARK 921   NORMALIZED FREE ENERGY PREDICTED BY IDOCK:   -4.80 KCAL/MOL
REMARK 922        TOTAL FREE ENERGY PREDICTED BY IDOCK:   -7.89 KCAL/MOL
REMARK 923 INTER-LIGAND FREE ENERGY PREDICTED BY IDOCK:   -7.12 KCAL/MOL
REMARK 924 INTRA-LIGAND FREE ENERGY PREDICTED BY IDOCK:   -0.77 KCAL/MOL
REMARK 927      BINDING AFFINITY PREDICTED BY RF-SCORE:    0.00 PKD
ROOT
HETATM    1  C   UNK A   0      -9.696   9.354  66.374  1.00  0.00    -0.250 C  
HETATM    2  N   UNK A   0      -8.961  10.491  66.919  1.00  0.00    -0.140 NA 
ENDROOT
BRANCH   2   3
HETATM    3  C   UNK A   0      -8.425  10.377  68.176  1.00  0.00    -0.121 A  
HETATM    4  C   UNK A   0      -6.942  10.434  69.988  1.00  0.00    -0.159 A  
HETATM    5  C   UNK A   0      -7.292  10.968  68.706  1.00  0.00    -0.111 A  
HETATM    6  S   UNK A   0      -9.185   9.406  69.367  1.00  0.00    -0.176 SA 
HETATM    7  C   UNK A   0      -7.854   9.494  70.425  1.00  0.00    -0.172 A  
BRANCH   7   8
HETATM    8  C   UNK A   0      -7.768   8.623  71.584  1.00  0.00    -0.108 C  
HETATM    9  O   UNK A   0      -7.343   8.987  72.675  1.00  0.00    -0.331 OA 
ATOM     10  N   GLU A   1      -8.159   7.310  71.362  1.00  0.00    -0.101 N  
ATOM     11  H   GLU A   1      -8.473   7.034  70.431  1.00  0.00     0.000 HD 
BRANCH  10  12
ATOM     12  CA  GLU A   1      -8.130   6.312  72.434  1.00  0.00    -0.104 C  
ATOM     13  C   GLU A   1      -7.387   5.052  71.953  1.00  0.00    -0.084 C  
ATOM     14  O   GLU A   1      -7.407   4.884  70.608  1.00  0.00    -0.057 OA 
ATOM     15  OXT GLU A   1      -6.943   4.194  72.704  1.00  0.00    -0.052 OA 
BRANCH  12  16
ATOM     16  CB  GLU A   1      -9.566   5.963  72.843  1.00  0.00    -0.161 C  
BRANCH  16  17
ATOM     17  CG  GLU A   1     -10.589   6.971  72.320  1.00  0.00    -0.242 C  
ATOM     18  CD  GLU A   1     -11.339   6.448  71.122  1.00  0.00    -0.319 C  
ATOM     19  OE2 GLU A   1     -10.888   5.651  70.319  1.00  0.00    -0.300 OA 
ATOM     20  OE1 GLU A   1     -12.573   6.988  71.003  1.00  0.00    -0.375 OA 
ENDBRANCH  16  17
ENDBRANCH  12  16
ENDBRANCH  10  12
ENDBRANCH   7   8
ENDBRANCH   2   3
BRANCH   2  21
HETATM   21  C   UNK A   0      -9.493  11.820  66.560  1.00  0.00    -0.214 C  
BRANCH  21  22
HETATM   22  C   UNK A   0     -10.360  12.385  67.664  1.00  0.00    -0.223 A  
HETATM   23  C   UNK A   0     -10.926  14.182  69.200  1.00  0.00    -0.280 A  
HETATM   24  C   UNK A   0     -12.002  13.449  69.698  1.00  0.00    -0.324 A  
HETATM   25  C   UNK A   0     -10.107  13.660  68.194  1.00  0.00    -0.245 A  
HETATM   26  H   UNK A   0     -11.441  16.978  71.086  1.00  0.00     0.000 HD 
HETATM   27  C   UNK A   0     -12.243  12.170  69.197  1.00  0.00    -0.086 A  
HETATM   28  C   UNK A   0     -13.483  15.884  72.142  1.00  0.00    -0.348 C  
HETATM   29  N   UNK A   0     -12.789  14.007  70.706  1.00  0.00    -0.311 NA 
HETATM   30  N   UNK A   0     -11.562  16.035  70.716  1.00  0.00    -0.416 N  
HETATM   31  C   UNK A   0     -11.432  11.647  68.183  1.00  0.00    -0.382 A  
HETATM   32  C   UNK A   0     -10.688  15.533  69.772  1.00  0.00    -0.295 C  
HETATM   33  O   UNK A   0      -9.711  16.163  69.378  1.00  0.00    -0.245 OA 
HETATM   34  C   UNK A   0     -12.539  15.288  71.123  1.00  0.00    -0.393 C  
ENDBRANCH  21  22
ENDBRANCH   2  21
TORSDOF 7
ENDMDL
MODEL      206
REMARK 921   NORMALIZED FREE ENERGY PREDICTED BY IDOCK:   -4.77 KCAL/MOL
REMARK 922        TOTAL FREE ENERGY PREDICTED BY IDOCK:   -7.85 KCAL/MOL
REMARK 923 INTER-LIGAND FREE ENERGY PREDICTED BY IDOCK:   -6.08 KCAL/MOL
REMARK 924 INTRA-LIGAND FREE ENERGY PREDICTED BY IDOCK:   -1.76 KCAL/MOL
REMARK 927      BINDING AFFINITY PREDICTED BY RF-SCORE:    0.00 PKD
ROOT
HETATM    1  C   UNK A   0     -11.121   2.596  73.581  1.00  0.00    -0.221 C  
HETATM    2  N   UNK A   0     -10.550   3.835  73.061  1.00  0.00    -0.173 NA 
ENDROOT
BRANCH   2   3
HETATM    3  C   UNK A   0      -9.444   3.754  72.256  1.00  0.00    -0.129 A  
HETATM    4  C   UNK A   0      -7.236   3.807  71.477  1.00  0.00    -0.039 A  
HETATM    5  C   UNK A   0      -8.108   3.650  72.601  1.00  0.00    -0.077 A  
HETATM    6  S   UNK A   0      -9.604   3.751  70.548  1.00  0.00    -0.169 SA 
HETATM    7  C   UNK A   0      -7.933   3.965  70.296  1.00  0.00    -0.050 A  
BRANCH   7   8
HETATM    8  C   UNK A   0      -7.418   4.306  68.981  1.00  0.00    -0.055 C  
HETATM    9  O   UNK A   0      -6.708   3.558  68.318  1.00  0.00    -0.044 OA 
ATOM     10  N   GLU A   1      -7.747   5.577  68.534  1.00  0.00    -0.084 N  
ATOM     11  H   GLU A   1      -8.311   6.185  69.129  1.00  0.00     0.000 HD 
BRANCH  10  12
ATOM     12  CA  GLU A   1      -7.303   6.066  67.226  1.00  0.00    -0.077 C  
ATOM     13  C   GLU A   1      -6.291   7.211  67.414  1.00  0.00    -0.050 C  
ATOM     14  O   GLU A   1      -6.424   7.871  68.591  1.00  0.00    -0.046 OA 
ATOM     15  OXT GLU A   1      -5.532   7.601  66.537  1.00  0.00    -0.024 OA 
BRANCH  12  16
ATOM     16  CB  GLU A   1      -8.517   6.550  66.425  1.00  0.00    -0.124 C  
BRANCH  16  17
ATOM     17  CG  GLU A   1      -9.521   7.319  67.283  1.00  0.00    -0.169 C  
ATOM     18  CD  GLU A   1     -10.821   6.572  67.442  1.00  0.00    -0.373 C  
ATOM     19  OE2 GLU A   1     -11.276   5.796  66.622  1.00  0.00    -0.135 OA 
ATOM     20  OE1 GLU A   1     -11.463   6.881  68.592  1.00  0.00     0.017 OA 
ENDBRANCH  16  17
ENDBRANCH  12  16
ENDBRANCH  10  12
ENDBRANCH   7   8
ENDBRANCH   2   3
BRANCH   2  21
HETATM   21  C   UNK A   0     -10.599   4.989  73.980  1.00  0.00    -0.298 C  
BRANCH  21  22
HETATM   22  C   UNK A   0     -10.629   6.298  73.220  1.00  0.00    -0.284 A  
HETATM   23  C   UNK A   0     -11.836   7.972  71.937  1.00  0.00    -0.353 A  
HETATM   24  C   UNK A   0     -10.688   8.757  71.836  1.00  0.00    -0.359 A  
HETATM   25  C   UNK A   0     -11.813   6.752  72.619  1.00  0.00    -0.054 A  
HETATM   26  H   UNK A   0     -13.925  10.110  70.292  1.00  0.00     0.000 HD 
HETATM   27  C   UNK A   0      -9.501   8.300  72.407  1.00  0.00    -0.357 A  
HETATM   28  C   UNK A   0     -12.003  11.752  69.994  1.00  0.00    -0.421 C  
HETATM   29  N   UNK A   0     -10.756   9.965  71.141  1.00  0.00    -0.280 NA 
HETATM   30  N   UNK A   0     -13.072   9.724  70.695  1.00  0.00    -0.586 N  
HETATM   31  C   UNK A   0      -9.475   7.083  73.099  1.00  0.00    -0.186 A  
HETATM   32  C   UNK A   0     -13.079   8.483  71.300  1.00  0.00    -0.143 C  
HETATM   33  O   UNK A   0     -14.079   7.773  71.336  1.00  0.00    -0.389 OA 
HETATM   34  C   UNK A   0     -11.961  10.390  70.647  1.00  0.00    -0.351 C  
ENDBRANCH  21  22
ENDBRANCH   2  21
TORSDOF 7
ENDMDL
MODEL      207
REMARK 921   NORMALIZED FREE ENERGY PREDICTED BY IDOCK:   -4.75 KCAL/MOL
REMARK 922        TOTAL FREE ENERGY PREDICTED BY IDOCK:   -7.82 KCAL/MOL
REMARK 923 INTER-LIGAND FREE ENERGY PREDICTED BY IDOCK:   -7.45 KCAL/MOL
REMARK 924 INTRA-LIGAND FREE ENERGY PREDICTED BY IDOCK:   -0.37 KCAL/MOL
REMARK 927      BINDING AFFINITY PREDICTED BY RF-SCORE:    0.00 PKD
ROOT
HETATM    1  C   UNK A   0     -10.336  13.410  65.536  1.00  0.00    -0.295 C  
HETATM    2  N   UNK A   0      -9.332  12.568  66.179  1.00  0.00    -0.386 NA 
ENDROOT
BRANCH   2   3
HETATM    3  C   UNK A   0      -9.724  11.354  66.679  1.00  0.00    -0.200 A  
HETATM    4  C   UNK A   0     -10.886   9.682  67.837  1.00  0.00    -0.272 A  
HETATM    5  C   UNK A   0     -10.935  10.979  67.233  1.00  0.00    -0.356 A  
HETATM    6  S   UNK A   0      -8.656  10.012  66.656  1.00  0.00    -0.125 SA 
HETATM    7  C   UNK A   0      -9.655   9.078  67.671  1.00  0.00    -0.150 A  
BRANCH   7   8
HETATM    8  C   UNK A   0      -9.166   7.847  68.265  1.00  0.00    -0.137 C  
HETATM    9  O   UNK A   0      -8.185   7.793  69.000  1.00  0.00    -0.123 OA 
ATOM     10  N   GLU A   1      -9.862   6.703  67.903  1.00  0.00    -0.122 N  
ATOM     11  H   GLU A   1     -10.652   6.782  67.262  1.00  0.00     0.000 HD 
BRANCH  10  12
ATOM     12  CA  GLU A   1      -9.489   5.384  68.422  1.00  0.00    -0.123 C  
ATOM     13  C   GLU A   1      -9.712   4.315  67.337  1.00  0.00    -0.163 C  
ATOM     14  O   GLU A   1     -10.648   4.656  66.417  1.00  0.00    -0.252 OA 
ATOM     15  OXT GLU A   1      -9.213   3.198  67.367  1.00  0.00    -0.163 OA 
BRANCH  12  16
ATOM     16  CB  GLU A   1     -10.330   5.069  69.665  1.00  0.00    -0.260 C  
BRANCH  16  17
ATOM     17  CG  GLU A   1     -11.530   6.004  69.816  1.00  0.00    -0.207 C  
ATOM     18  CD  GLU A   1     -11.646   6.557  71.213  1.00  0.00    -0.327 C  
ATOM     19  OE2 GLU A   1     -11.264   5.982  72.216  1.00  0.00    -0.263 OA 
ATOM     20  OE1 GLU A   1     -12.262   7.760  71.248  1.00  0.00    -0.307 OA 
ENDBRANCH  16  17
ENDBRANCH  12  16
ENDBRANCH  10  12
ENDBRANCH   7   8
ENDBRANCH   2   3
BRANCH   2  21
HETATM   21  C   UNK A   0      -8.305  13.289  66.957  1.00  0.00    -0.080 C  
BRANCH  21  22
HETATM   22  C   UNK A   0      -8.715  14.722  67.218  1.00  0.00    -0.226 A  
HETATM   23  C   UNK A   0      -8.475  17.103  66.790  1.00  0.00    -0.264 A  
HETATM   24  C   UNK A   0      -9.510  17.391  67.681  1.00  0.00    -0.251 A  
HETATM   25  C   UNK A   0      -8.076  15.783  66.559  1.00  0.00    -0.231 A  
HETATM   26  H   UNK A   0      -7.890  20.316  65.806  1.00  0.00     0.000 HD 
HETATM   27  C   UNK A   0     -10.131  16.344  68.361  1.00  0.00    -0.245 A  
HETATM   28  C   UNK A   0      -9.761  21.121  67.333  1.00  0.00    -0.050 C  
HETATM   29  N   UNK A   0      -9.870  18.722  67.885  1.00  0.00    -0.325 NA 
HETATM   30  N   UNK A   0      -8.295  19.526  66.307  1.00  0.00    -0.337 N  
HETATM   31  C   UNK A   0      -9.741  15.021  68.124  1.00  0.00    -0.215 A  
HETATM   32  C   UNK A   0      -7.823  18.245  66.098  1.00  0.00    -0.204 C  
HETATM   33  O   UNK A   0      -6.876  18.005  65.355  1.00  0.00    -0.449 OA 
HETATM   34  C   UNK A   0      -9.262  19.706  67.150  1.00  0.00    -0.332 C  
ENDBRANCH  21  22
ENDBRANCH   2  21
TORSDOF 7
ENDMDL
MODEL      208
REMARK 921   NORMALIZED FREE ENERGY PREDICTED BY IDOCK:   -4.73 KCAL/MOL
REMARK 922        TOTAL FREE ENERGY PREDICTED BY IDOCK:   -7.80 KCAL/MOL
REMARK 923 INTER-LIGAND FREE ENERGY PREDICTED BY IDOCK:   -7.49 KCAL/MOL
REMARK 924 INTRA-LIGAND FREE ENERGY PREDICTED BY IDOCK:   -0.31 KCAL/MOL
REMARK 927      BINDING AFFINITY PREDICTED BY RF-SCORE:    0.00 PKD
ROOT
HETATM    1  C   UNK A   0     -12.077  15.848  69.434  1.00  0.00    -0.168 C  
HETATM    2  N   UNK A   0     -10.966  14.981  69.054  1.00  0.00    -0.238 NA 
ENDROOT
BRANCH   2   3
HETATM    3  C   UNK A   0     -11.147  13.624  69.126  1.00  0.00    -0.231 A  
HETATM    4  C   UNK A   0     -11.721  11.481  69.876  1.00  0.00    -0.420 A  
HETATM    5  C   UNK A   0     -11.973  12.888  69.956  1.00  0.00    -0.380 A  
HETATM    6  S   UNK A   0     -10.296  12.571  68.072  1.00  0.00    -0.228 SA 
HETATM    7  C   UNK A   0     -10.751  11.179  68.942  1.00  0.00    -0.207 A  
BRANCH   7   8
HETATM    8  C   UNK A   0     -10.112   9.900  68.683  1.00  0.00    -0.175 C  
HETATM    9  O   UNK A   0      -9.283   9.726  67.796  1.00  0.00    -0.131 OA 
ATOM     10  N   GLU A   1     -10.543   8.855  69.487  1.00  0.00    -0.232 N  
ATOM     11  H   GLU A   1     -11.260   9.030  70.191  1.00  0.00     0.000 HD 
BRANCH  10  12
ATOM     12  CA  GLU A   1      -9.990   7.505  69.347  1.00  0.00    -0.178 C  
ATOM     13  C   GLU A   1     -11.072   6.462  69.684  1.00  0.00    -0.401 C  
ATOM     14  O   GLU A   1     -12.040   6.925  70.513  1.00  0.00    -0.353 OA 
ATOM     15  OXT GLU A   1     -11.004   5.282  69.366  1.00  0.00    -0.082 OA 
BRANCH  12  16
ATOM     16  CB  GLU A   1      -8.786   7.349  70.283  1.00  0.00    -0.147 C  
BRANCH  16  17
ATOM     17  CG  GLU A   1      -7.570   6.744  69.582  1.00  0.00    -0.101 C  
ATOM     18  CD  GLU A   1      -7.318   5.321  70.009  1.00  0.00    -0.064 C  
ATOM     19  OE2 GLU A   1      -7.609   4.867  71.101  1.00  0.00    -0.077 OA 
ATOM     20  OE1 GLU A   1      -6.692   4.593  69.057  1.00  0.00    -0.043 OA 
ENDBRANCH  16  17
ENDBRANCH  12  16
ENDBRANCH  10  12
ENDBRANCH   7   8
ENDBRANCH   2   3
BRANCH   2  21
HETATM   21  C   UNK A   0      -9.623  15.476  69.415  1.00  0.00    -0.279 C  
BRANCH  21  22
HETATM   22  C   UNK A   0      -9.193  16.611  68.512  1.00  0.00    -0.234 A  
HETATM   23  C   UNK A   0      -7.540  17.657  67.068  1.00  0.00    -0.230 A  
HETATM   24  C   UNK A   0      -8.410  18.714  66.800  1.00  0.00    -0.281 A  
HETATM   25  C   UNK A   0      -7.921  16.614  67.918  1.00  0.00    -0.177 A  
HETATM   26  H   UNK A   0      -5.003  18.703  65.042  1.00  0.00     0.000 HD 
HETATM   27  C   UNK A   0      -9.664  18.733  67.408  1.00  0.00    -0.340 A  
HETATM   28  C   UNK A   0      -6.393  20.719  64.348  1.00  0.00    -0.342 C  
HETATM   29  N   UNK A   0      -7.984  19.736  65.951  1.00  0.00    -0.367 NA 
HETATM   30  N   UNK A   0      -5.896  18.695  65.533  1.00  0.00    -0.196 N  
HETATM   31  C   UNK A   0     -10.053  17.686  68.252  1.00  0.00    -0.362 A  
HETATM   32  C   UNK A   0      -6.205  17.680  66.416  1.00  0.00    -0.220 C  
HETATM   33  O   UNK A   0      -5.413  16.782  66.691  1.00  0.00    -0.317 OA 
HETATM   34  C   UNK A   0      -6.763  19.639  65.338  1.00  0.00    -0.288 C  
ENDBRANCH  21  22
ENDBRANCH   2  21
TORSDOF 7
ENDMDL
MODEL      209
REMARK 921   NORMALIZED FREE ENERGY PREDICTED BY IDOCK:   -4.71 KCAL/MOL
REMARK 922        TOTAL FREE ENERGY PREDICTED BY IDOCK:   -7.77 KCAL/MOL
REMARK 923 INTER-LIGAND FREE ENERGY PREDICTED BY IDOCK:   -7.85 KCAL/MOL
REMARK 924 INTRA-LIGAND FREE ENERGY PREDICTED BY IDOCK:    0.08 KCAL/MOL
REMARK 927      BINDING AFFINITY PREDICTED BY RF-SCORE:    0.00 PKD
ROOT
HETATM    1  C   UNK A   0      -6.676   9.173  65.511  1.00  0.00    -0.073 C  
HETATM    2  N   UNK A   0      -7.814   8.649  64.761  1.00  0.00    -0.115 NA 
ENDROOT
BRANCH   2   3
HETATM    3  C   UNK A   0      -8.698   9.540  64.212  1.00  0.00    -0.207 A  
HETATM    4  C   UNK A   0      -9.729  11.060  62.759  1.00  0.00    -0.303 A  
HETATM    5  C   UNK A   0      -8.828   9.956  62.899  1.00  0.00    -0.248 A  
HETATM    6  S   UNK A   0      -9.883  10.309  65.185  1.00  0.00    -0.327 SA 
HETATM    7  C   UNK A   0     -10.308  11.414  63.960  1.00  0.00    -0.362 A  
BRANCH   7   8
HETATM    8  C   UNK A   0     -11.141  12.566  64.258  1.00  0.00    -0.356 C  
HETATM    9  O   UNK A   0     -12.272  12.717  63.808  1.00  0.00    -0.449 OA 
ATOM     10  N   GLU A   1     -10.546  13.530  65.059  1.00  0.00    -0.350 N  
ATOM     11  H   GLU A   1      -9.590  13.386  65.385  1.00  0.00     0.000 HD 
BRANCH  10  12
ATOM     12  CA  GLU A   1     -11.261  14.749  65.448  1.00  0.00    -0.347 C  
ATOM     13  C   GLU A   1     -10.259  15.901  65.641  1.00  0.00    -0.379 C  
ATOM     14  O   GLU A   1      -9.005  15.490  65.955  1.00  0.00    -0.303 OA 
ATOM     15  OXT GLU A   1     -10.574  17.083  65.663  1.00  0.00    -0.468 OA 
BRANCH  12  16
ATOM     16  CB  GLU A   1     -12.038  14.491  66.744  1.00  0.00    -0.313 C  
BRANCH  16  17
ATOM     17  CG  GLU A   1     -11.510  15.312  67.920  1.00  0.00    -0.325 C  
ATOM     18  CD  GLU A   1     -11.736  14.622  69.241  1.00  0.00    -0.312 C  
ATOM     19  OE2 GLU A   1     -12.654  13.855  69.470  1.00  0.00    -0.210 OA 
ATOM     20  OE1 GLU A   1     -10.824  14.972  70.176  1.00  0.00    -0.240 OA 
ENDBRANCH  16  17
ENDBRANCH  12  16
ENDBRANCH  10  12
ENDBRANCH   7   8
ENDBRANCH   2   3
BRANCH   2  21
HETATM   21  C   UNK A   0      -8.397   7.399  65.287  1.00  0.00    -0.104 C  
BRANCH  21  22
HETATM   22  C   UNK A   0      -8.371   7.371  66.800  1.00  0.00    -0.122 A  
HETATM   23  C   UNK A   0      -9.071   8.274  68.945  1.00  0.00    -0.147 A  
HETATM   24  C   UNK A   0      -8.348   7.292  69.621  1.00  0.00    -0.132 A  
HETATM   25  C   UNK A   0      -9.084   8.320  67.548  1.00  0.00    -0.148 A  
HETATM   26  H   UNK A   0     -10.388   9.776  71.711  1.00  0.00     0.000 HD 
HETATM   27  C   UNK A   0      -7.614   6.362  68.886  1.00  0.00    -0.100 A  
HETATM   28  C   UNK A   0      -9.199   8.080  73.192  1.00  0.00    -0.347 C  
HETATM   29  N   UNK A   0      -8.359   7.289  71.016  1.00  0.00    -0.118 NA 
HETATM   30  N   UNK A   0      -9.839   9.136  71.138  1.00  0.00    -0.295 N  
HETATM   31  C   UNK A   0      -7.632   6.399  67.487  1.00  0.00    -0.100 A  
HETATM   32  C   UNK A   0      -9.827   9.260  69.762  1.00  0.00    -0.188 C  
HETATM   33  O   UNK A   0     -10.420  10.161  69.177  1.00  0.00    -0.195 OA 
HETATM   34  C   UNK A   0      -9.140   8.192  71.686  1.00  0.00    -0.163 C  
ENDBRANCH  21  22
ENDBRANCH   2  21
TORSDOF 7
ENDMDL
MODEL      210
REMARK 921   NORMALIZED FREE ENERGY PREDICTED BY IDOCK:   -4.69 KCAL/MOL
REMARK 922        TOTAL FREE ENERGY PREDICTED BY IDOCK:   -7.75 KCAL/MOL
REMARK 923 INTER-LIGAND FREE ENERGY PREDICTED BY IDOCK:   -6.84 KCAL/MOL
REMARK 924 INTRA-LIGAND FREE ENERGY PREDICTED BY IDOCK:   -0.90 KCAL/MOL
REMARK 927      BINDING AFFINITY PREDICTED BY RF-SCORE:    0.00 PKD
ROOT
HETATM    1  C   UNK A   0     -12.009  12.102  65.251  1.00  0.00    -0.248 C  
HETATM    2  N   UNK A   0     -11.094  12.245  66.379  1.00  0.00    -0.287 NA 
ENDROOT
BRANCH   2   3
HETATM    3  C   UNK A   0     -10.002  11.419  66.440  1.00  0.00    -0.214 A  
HETATM    4  C   UNK A   0      -7.889  10.475  66.078  1.00  0.00    -0.147 A  
HETATM    5  C   UNK A   0      -8.694  11.658  66.056  1.00  0.00    -0.055 A  
HETATM    6  S   UNK A   0     -10.137   9.836  67.086  1.00  0.00    -0.225 SA 
HETATM    7  C   UNK A   0      -8.590   9.378  66.537  1.00  0.00    -0.134 A  
BRANCH   7   8
HETATM    8  C   UNK A   0      -8.179   7.985  66.556  1.00  0.00    -0.115 C  
HETATM    9  O   UNK A   0      -8.070   7.326  67.585  1.00  0.00    -0.112 OA 
ATOM     10  N   GLU A   1      -7.862   7.449  65.316  1.00  0.00    -0.113 N  
ATOM     11  H   GLU A   1      -7.931   8.039  64.486  1.00  0.00     0.000 HD 
BRANCH  10  12
ATOM     12  CA  GLU A   1      -7.432   6.056  65.173  1.00  0.00    -0.084 C  
ATOM     13  C   GLU A   1      -6.456   5.931  63.988  1.00  0.00    -0.033 C  
ATOM     14  O   GLU A   1      -6.610   6.896  63.048  1.00  0.00    -0.042 OA 
ATOM     15  OXT GLU A   1      -5.708   4.978  63.819  1.00  0.00    -0.016 OA 
BRANCH  12  16
ATOM     16  CB  GLU A   1      -8.660   5.165  64.950  1.00  0.00    -0.151 C  
BRANCH  16  17
ATOM     17  CG  GLU A   1      -8.525   3.798  65.621  1.00  0.00    -0.110 C  
ATOM     18  CD  GLU A   1      -9.128   2.696  64.789  1.00  0.00    -0.135 C  
ATOM     19  OE2 GLU A   1     -10.060   2.843  64.019  1.00  0.00    -0.157 OA 
ATOM     20  OE1 GLU A   1      -8.547   1.495  65.013  1.00  0.00    -0.086 OA 
ENDBRANCH  16  17
ENDBRANCH  12  16
ENDBRANCH  10  12
ENDBRANCH   7   8
ENDBRANCH   2   3
BRANCH   2  21
HETATM   21  C   UNK A   0     -11.728  12.577  67.670  1.00  0.00    -0.361 C  
BRANCH  21  22
HETATM   22  C   UNK A   0     -11.338  13.963  68.136  1.00  0.00    -0.324 A  
HETATM   23  C   UNK A   0     -10.683  16.252  67.649  1.00  0.00    -0.311 A  
HETATM   24  C   UNK A   0     -10.648  16.557  69.010  1.00  0.00    -0.324 A  
HETATM   25  C   UNK A   0     -11.022  14.969  67.210  1.00  0.00    -0.326 A  
HETATM   26  H   UNK A   0      -9.908  19.378  66.521  1.00  0.00     0.000 HD 
HETATM   27  C   UNK A   0     -10.933  15.555  69.937  1.00  0.00    -0.315 A  
HETATM   28  C   UNK A   0      -9.808  20.215  68.923  1.00  0.00    -0.192 C  
HETATM   29  N   UNK A   0     -10.298  17.849  69.401  1.00  0.00    -0.321 NA 
HETATM   30  N   UNK A   0     -10.091  18.609  67.166  1.00  0.00    -0.340 N  
HETATM   31  C   UNK A   0     -11.282  14.271  69.501  1.00  0.00    -0.286 A  
HETATM   32  C   UNK A   0     -10.355  17.340  66.690  1.00  0.00    -0.305 C  
HETATM   33  O   UNK A   0     -10.329  17.067  65.494  1.00  0.00    -0.585 OA 
HETATM   34  C   UNK A   0     -10.080  18.807  68.447  1.00  0.00    -0.393 C  
ENDBRANCH  21  22
ENDBRANCH   2  21
TORSDOF 7
ENDMDL
MODEL      211
REMARK 921   NORMALIZED FREE ENERGY PREDICTED BY IDOCK:   -4.67 KCAL/MOL
REMARK 922        TOTAL FREE ENERGY PREDICTED BY IDOCK:   -7.71 KCAL/MOL
REMARK 923 INTER-LIGAND FREE ENERGY PREDICTED BY IDOCK:   -6.68 KCAL/MOL
REMARK 924 INTRA-LIGAND FREE ENERGY PREDICTED BY IDOCK:   -1.03 KCAL/MOL
REMARK 927      BINDING AFFINITY PREDICTED BY RF-SCORE:    0.00 PKD
ROOT
HETATM    1  C   UNK A   0      -6.021   6.762  66.454  1.00  0.00    -0.029 C  
HETATM    2  N   UNK A   0      -6.908   7.502  67.345  1.00  0.00    -0.069 NA 
ENDROOT
BRANCH   2   3
HETATM    3  C   UNK A   0      -6.948   8.868  67.237  1.00  0.00    -0.078 A  
HETATM    4  C   UNK A   0      -6.455  11.145  67.471  1.00  0.00    -0.069 A  
HETATM    5  C   UNK A   0      -5.962   9.802  67.498  1.00  0.00    -0.051 A  
HETATM    6  S   UNK A   0      -8.366   9.661  66.687  1.00  0.00    -0.124 SA 
HETATM    7  C   UNK A   0      -7.791  11.202  67.128  1.00  0.00    -0.139 A  
BRANCH   7   8
HETATM    8  C   UNK A   0      -8.681  12.349  67.147  1.00  0.00    -0.195 C  
HETATM    9  O   UNK A   0      -9.901  12.260  67.069  1.00  0.00    -0.201 OA 
ATOM     10  N   GLU A   1      -8.048  13.582  67.211  1.00  0.00    -0.283 N  
ATOM     11  H   GLU A   1      -7.029  13.619  67.239  1.00  0.00     0.000 HD 
BRANCH  10  12
ATOM     12  CA  GLU A   1      -8.812  14.833  67.239  1.00  0.00    -0.204 C  
ATOM     13  C   GLU A   1      -8.021  15.942  66.521  1.00  0.00    -0.196 C  
ATOM     14  O   GLU A   1      -6.680  15.741  66.513  1.00  0.00    -0.012 OA 
ATOM     15  OXT GLU A   1      -8.519  16.986  66.122  1.00  0.00    -0.394 OA 
BRANCH  12  16
ATOM     16  CB  GLU A   1      -9.088  15.228  68.694  1.00  0.00    -0.193 C  
BRANCH  16  17
ATOM     17  CG  GLU A   1     -10.332  14.546  69.264  1.00  0.00    -0.154 C  
ATOM     18  CD  GLU A   1     -11.604  15.215  68.808  1.00  0.00    -0.349 C  
ATOM     19  OE2 GLU A   1     -11.700  16.396  68.527  1.00  0.00    -0.239 OA 
ATOM     20  OE1 GLU A   1     -12.656  14.366  68.775  1.00  0.00    -0.004 OA 
ENDBRANCH  16  17
ENDBRANCH  12  16
ENDBRANCH  10  12
ENDBRANCH   7   8
ENDBRANCH   2   3
BRANCH   2  21
HETATM   21  C   UNK A   0      -7.034   6.957  68.711  1.00  0.00    -0.075 C  
BRANCH  21  22
HETATM   22  C   UNK A   0      -8.483   6.855  69.134  1.00  0.00    -0.129 A  
HETATM   23  C   UNK A   0     -10.270   7.359  70.703  1.00  0.00    -0.202 A  
HETATM   24  C   UNK A   0     -11.195   6.694  69.899  1.00  0.00    -0.364 A  
HETATM   25  C   UNK A   0      -8.925   7.440  70.331  1.00  0.00    -0.150 A  
HETATM   26  H   UNK A   0     -12.482   8.390  73.087  1.00  0.00     0.000 HD 
HETATM   27  C   UNK A   0     -10.759   6.086  68.722  1.00  0.00    -0.375 A  
HETATM   28  C   UNK A   0     -14.379   7.284  71.799  1.00  0.00    -0.560 C  
HETATM   29  N   UNK A   0     -12.526   6.633  70.313  1.00  0.00    -0.387 NA 
HETATM   30  N   UNK A   0     -12.116   7.931  72.253  1.00  0.00    -0.417 N  
HETATM   31  C   UNK A   0      -9.415   6.173  68.341  1.00  0.00    -0.119 A  
HETATM   32  C   UNK A   0     -10.768   7.979  71.959  1.00  0.00    -0.258 C  
HETATM   33  O   UNK A   0      -9.951   8.518  72.700  1.00  0.00    -0.278 OA 
HETATM   34  C   UNK A   0     -12.908   7.294  71.450  1.00  0.00    -0.382 C  
ENDBRANCH  21  22
ENDBRANCH   2  21
TORSDOF 7
ENDMDL
MODEL      212
REMARK 921   NORMALIZED FREE ENERGY PREDICTED BY IDOCK:   -4.66 KCAL/MOL
REMARK 922        TOTAL FREE ENERGY PREDICTED BY IDOCK:   -7.70 KCAL/MOL
REMARK 923 INTER-LIGAND FREE ENERGY PREDICTED BY IDOCK:   -7.43 KCAL/MOL
REMARK 924 INTRA-LIGAND FREE ENERGY PREDICTED BY IDOCK:   -0.27 KCAL/MOL
REMARK 927      BINDING AFFINITY PREDICTED BY RF-SCORE:    0.00 PKD
ROOT
HETATM    1  C   UNK A   0      -5.841   6.769  66.502  1.00  0.00    -0.025 C  
HETATM    2  N   UNK A   0      -6.930   7.450  67.194  1.00  0.00    -0.080 NA 
ENDROOT
BRANCH   2   3
HETATM    3  C   UNK A   0      -7.259   8.721  66.798  1.00  0.00    -0.082 A  
HETATM    4  C   UNK A   0      -7.122  10.955  66.111  1.00  0.00    -0.097 A  
HETATM    5  C   UNK A   0      -6.483   9.675  66.166  1.00  0.00    -0.071 A  
HETATM    6  S   UNK A   0      -8.843   9.331  67.046  1.00  0.00    -0.123 SA 
HETATM    7  C   UNK A   0      -8.393  10.926  66.648  1.00  0.00    -0.143 A  
BRANCH   7   8
HETATM    8  C   UNK A   0      -9.287  12.038  66.918  1.00  0.00    -0.200 C  
HETATM    9  O   UNK A   0     -10.197  11.991  67.738  1.00  0.00    -0.195 OA 
ATOM     10  N   GLU A   1      -9.073  13.165  66.137  1.00  0.00    -0.458 N  
ATOM     11  H   GLU A   1      -8.329  13.155  65.440  1.00  0.00     0.000 HD 
BRANCH  10  12
ATOM     12  CA  GLU A   1      -9.893  14.370  66.293  1.00  0.00    -0.304 C  
ATOM     13  C   GLU A   1     -10.985  14.400  65.208  1.00  0.00    -0.350 C  
ATOM     14  O   GLU A   1     -10.666  13.703  64.090  1.00  0.00    -0.333 OA 
ATOM     15  OXT GLU A   1     -11.987  15.101  65.268  1.00  0.00    -0.159 OA 
BRANCH  12  16
ATOM     16  CB  GLU A   1      -9.000  15.611  66.189  1.00  0.00    -0.362 C  
BRANCH  16  17
ATOM     17  CG  GLU A   1      -8.490  16.086  67.549  1.00  0.00    -0.178 C  
ATOM     18  CD  GLU A   1      -7.842  17.445  67.469  1.00  0.00    -0.197 C  
ATOM     19  OE2 GLU A   1      -7.276  17.882  66.483  1.00  0.00    -0.200 OA 
ATOM     20  OE1 GLU A   1      -7.919  18.129  68.633  1.00  0.00    -0.300 OA 
ENDBRANCH  16  17
ENDBRANCH  12  16
ENDBRANCH  10  12
ENDBRANCH   7   8
ENDBRANCH   2   3
BRANCH   2  21
HETATM   21  C   UNK A   0      -7.031   7.177  68.641  1.00  0.00    -0.082 C  
BRANCH  21  22
HETATM   22  C   UNK A   0      -8.472   7.011  69.072  1.00  0.00    -0.129 A  
HETATM   23  C   UNK A   0     -10.295   7.513  70.600  1.00  0.00    -0.211 A  
HETATM   24  C   UNK A   0     -11.171   6.727  69.850  1.00  0.00    -0.326 A  
HETATM   25  C   UNK A   0      -8.957   7.655  70.221  1.00  0.00    -0.146 A  
HETATM   26  H   UNK A   0     -12.581   8.573  72.900  1.00  0.00     0.000 HD 
HETATM   27  C   UNK A   0     -10.690   6.061  68.723  1.00  0.00    -0.375 A  
HETATM   28  C   UNK A   0     -14.394   7.247  71.703  1.00  0.00    -0.583 C  
HETATM   29  N   UNK A   0     -12.496   6.609  70.269  1.00  0.00    -0.387 NA 
HETATM   30  N   UNK A   0     -12.181   8.077  72.103  1.00  0.00    -0.343 N  
HETATM   31  C   UNK A   0      -9.353   6.209  68.335  1.00  0.00    -0.116 A  
HETATM   32  C   UNK A   0     -10.838   8.192  71.805  1.00  0.00    -0.256 C  
HETATM   33  O   UNK A   0     -10.062   8.840  72.501  1.00  0.00    -0.250 OA 
HETATM   34  C   UNK A   0     -12.926   7.328  71.353  1.00  0.00    -0.373 C  
ENDBRANCH  21  22
ENDBRANCH   2  21
TORSDOF 7
ENDMDL
MODEL      213
REMARK 921   NORMALIZED FREE ENERGY PREDICTED BY IDOCK:   -4.66 KCAL/MOL
REMARK 922        TOTAL FREE ENERGY PREDICTED BY IDOCK:   -7.69 KCAL/MOL
REMARK 923 INTER-LIGAND FREE ENERGY PREDICTED BY IDOCK:   -6.96 KCAL/MOL
REMARK 924 INTRA-LIGAND FREE ENERGY PREDICTED BY IDOCK:   -0.73 KCAL/MOL
REMARK 927      BINDING AFFINITY PREDICTED BY RF-SCORE:    0.00 PKD
ROOT
HETATM    1  C   UNK A   0      -9.951   2.142  71.284  1.00  0.00     0.013 C  
HETATM    2  N   UNK A   0      -9.795   3.590  71.194  1.00  0.00    -0.163 NA 
ENDROOT
BRANCH   2   3
HETATM    3  C   UNK A   0      -8.901   4.093  70.285  1.00  0.00    -0.085 A  
HETATM    4  C   UNK A   0      -6.930   4.846  69.268  1.00  0.00    -0.051 A  
HETATM    5  C   UNK A   0      -7.520   4.009  70.268  1.00  0.00    -0.045 A  
HETATM    6  S   UNK A   0      -9.446   4.958  68.908  1.00  0.00    -0.155 SA 
HETATM    7  C   UNK A   0      -7.881   5.499  68.509  1.00  0.00    -0.088 A  
BRANCH   7   8
HETATM    8  C   UNK A   0      -7.686   6.541  67.517  1.00  0.00    -0.106 C  
HETATM    9  O   UNK A   0      -7.123   6.357  66.443  1.00  0.00    -0.065 OA 
ATOM     10  N   GLU A   1      -8.142   7.797  67.889  1.00  0.00    -0.124 N  
ATOM     11  H   GLU A   1      -8.574   7.921  68.805  1.00  0.00     0.000 HD 
BRANCH  10  12
ATOM     12  CA  GLU A   1      -8.018   8.951  66.993  1.00  0.00    -0.102 C  
ATOM     13  C   GLU A   1      -8.357  10.243  67.759  1.00  0.00    -0.110 C  
ATOM     14  O   GLU A   1      -9.176  10.051  68.823  1.00  0.00    -0.146 OA 
ATOM     15  OXT GLU A   1      -8.051  11.364  67.375  1.00  0.00    -0.131 OA 
BRANCH  12  16
ATOM     16  CB  GLU A   1      -8.964   8.773  65.800  1.00  0.00    -0.253 C  
BRANCH  16  17
ATOM     17  CG  GLU A   1      -9.744  10.045  65.471  1.00  0.00    -0.355 C  
ATOM     18  CD  GLU A   1      -9.548  10.478  64.041  1.00  0.00    -0.311 C  
ATOM     19  OE2 GLU A   1      -8.545  10.260  63.386  1.00  0.00    -0.169 OA 
ATOM     20  OE1 GLU A   1     -10.601  11.176  63.558  1.00  0.00    -0.375 OA 
ENDBRANCH  16  17
ENDBRANCH  12  16
ENDBRANCH  10  12
ENDBRANCH   7   8
ENDBRANCH   2   3
BRANCH   2  21
HETATM   21  C   UNK A   0      -9.899   4.320  72.473  1.00  0.00    -0.154 C  
BRANCH  21  22
HETATM   22  C   UNK A   0     -10.269   5.770  72.252  1.00  0.00    -0.233 A  
HETATM   23  C   UNK A   0     -11.932   7.486  71.808  1.00  0.00    -0.334 A  
HETATM   24  C   UNK A   0     -10.958   8.482  71.879  1.00  0.00    -0.324 A  
HETATM   25  C   UNK A   0     -11.597   6.141  71.989  1.00  0.00    -0.364 A  
HETATM   26  H   UNK A   0     -14.590   9.562  71.293  1.00  0.00     0.000 HD 
HETATM   27  C   UNK A   0      -9.632   8.119  72.112  1.00  0.00    -0.308 A  
HETATM   28  C   UNK A   0     -13.035  11.574  71.412  1.00  0.00    -0.450 C  
HETATM   29  N   UNK A   0     -11.339   9.810  71.685  1.00  0.00    -0.290 NA 
HETATM   30  N   UNK A   0     -13.628   9.252  71.433  1.00  0.00    -0.476 N  
HETATM   31  C   UNK A   0      -9.293   6.775  72.304  1.00  0.00    -0.145 A  
HETATM   32  C   UNK A   0     -13.332   7.908  71.539  1.00  0.00    -0.303 C  
HETATM   33  O   UNK A   0     -14.185   7.033  71.420  1.00  0.00    -0.325 OA 
HETATM   34  C   UNK A   0     -12.663  10.113  71.513  1.00  0.00    -0.436 C  
ENDBRANCH  21  22
ENDBRANCH   2  21
TORSDOF 7
ENDMDL
MODEL      214
REMARK 921   NORMALIZED FREE ENERGY PREDICTED BY IDOCK:   -4.66 KCAL/MOL
REMARK 922        TOTAL FREE ENERGY PREDICTED BY IDOCK:   -7.69 KCAL/MOL
REMARK 923 INTER-LIGAND FREE ENERGY PREDICTED BY IDOCK:   -7.80 KCAL/MOL
REMARK 924 INTRA-LIGAND FREE ENERGY PREDICTED BY IDOCK:    0.11 KCAL/MOL
REMARK 927      BINDING AFFINITY PREDICTED BY RF-SCORE:    0.00 PKD
ROOT
HETATM    1  C   UNK A   0      -9.394   9.768  64.087  1.00  0.00    -0.175 C  
HETATM    2  N   UNK A   0      -9.425   9.250  65.451  1.00  0.00    -0.397 NA 
ENDROOT
BRANCH   2   3
HETATM    3  C   UNK A   0      -9.963  10.038  66.435  1.00  0.00    -0.237 A  
HETATM    4  C   UNK A   0     -11.347  10.857  68.137  1.00  0.00    -0.383 A  
HETATM    5  C   UNK A   0     -10.857   9.708  67.437  1.00  0.00    -0.242 A  
HETATM    6  S   UNK A   0      -9.530  11.693  66.565  1.00  0.00    -0.211 SA 
HETATM    7  C   UNK A   0     -10.765  12.026  67.690  1.00  0.00    -0.217 A  
BRANCH   7   8
HETATM    8  C   UNK A   0     -11.108  13.395  68.032  1.00  0.00    -0.255 C  
HETATM    9  O   UNK A   0     -11.963  14.046  67.442  1.00  0.00    -0.388 OA 
ATOM     10  N   GLU A   1     -10.357  13.948  69.059  1.00  0.00    -0.409 N  
ATOM     11  H   GLU A   1      -9.629  13.388  69.504  1.00  0.00     0.000 HD 
BRANCH  10  12
ATOM     12  CA  GLU A   1     -10.586  15.320  69.520  1.00  0.00    -0.267 C  
ATOM     13  C   GLU A   1     -11.681  15.331  70.602  1.00  0.00    -0.332 C  
ATOM     14  O   GLU A   1     -12.540  14.284  70.522  1.00  0.00    -0.332 OA 
ATOM     15  OXT GLU A   1     -11.867  16.261  71.376  1.00  0.00    -0.438 OA 
BRANCH  12  16
ATOM     16  CB  GLU A   1     -11.001  16.194  68.330  1.00  0.00    -0.341 C  
BRANCH  16  17
ATOM     17  CG  GLU A   1      -9.921  17.201  67.934  1.00  0.00    -0.292 C  
ATOM     18  CD  GLU A   1      -9.156  16.762  66.713  1.00  0.00    -0.241 C  
ATOM     19  OE2 GLU A   1      -8.972  15.602  66.394  1.00  0.00    -0.275 OA 
ATOM     20  OE1 GLU A   1      -8.653  17.803  66.010  1.00  0.00    -0.497 OA 
ENDBRANCH  16  17
ENDBRANCH  12  16
ENDBRANCH  10  12
ENDBRANCH   7   8
ENDBRANCH   2   3
BRANCH   2  21
HETATM   21  C   UNK A   0      -8.263   8.429  65.843  1.00  0.00    -0.123 C  
BRANCH  21  22
HETATM   22  C   UNK A   0      -8.652   7.366  66.847  1.00  0.00    -0.120 A  
HETATM   23  C   UNK A   0      -8.475   6.382  69.063  1.00  0.00    -0.124 A  
HETATM   24  C   UNK A   0      -9.410   5.403  68.729  1.00  0.00    -0.128 A  
HETATM   25  C   UNK A   0      -8.094   7.356  68.135  1.00  0.00    -0.124 A  
HETATM   26  H   UNK A   0      -8.020   5.410  72.302  1.00  0.00     0.000 HD 
HETATM   27  C   UNK A   0      -9.949   5.389  67.443  1.00  0.00    -0.198 A  
HETATM   28  C   UNK A   0      -9.722   3.546  71.977  1.00  0.00    -0.232 C  
HETATM   29  N   UNK A   0      -9.756   4.448  69.685  1.00  0.00    -0.209 NA 
HETATM   30  N   UNK A   0      -8.364   5.416  71.342  1.00  0.00    -0.120 N  
HETATM   31  C   UNK A   0      -9.577   6.368  66.513  1.00  0.00    -0.185 A  
HETATM   32  C   UNK A   0      -7.908   6.355  70.437  1.00  0.00    -0.107 C  
HETATM   33  O   UNK A   0      -7.044   7.179  70.722  1.00  0.00    -0.063 OA 
HETATM   34  C   UNK A   0      -9.236   4.542  70.949  1.00  0.00    -0.139 C  
ENDBRANCH  21  22
ENDBRANCH   2  21
TORSDOF 7
ENDMDL
MODEL      215
REMARK 921   NORMALIZED FREE ENERGY PREDICTED BY IDOCK:   -4.63 KCAL/MOL
REMARK 922        TOTAL FREE ENERGY PREDICTED BY IDOCK:   -7.66 KCAL/MOL
REMARK 923 INTER-LIGAND FREE ENERGY PREDICTED BY IDOCK:   -7.08 KCAL/MOL
REMARK 924 INTRA-LIGAND FREE ENERGY PREDICTED BY IDOCK:   -0.58 KCAL/MOL
REMARK 927      BINDING AFFINITY PREDICTED BY RF-SCORE:    0.00 PKD
ROOT
HETATM    1  C   UNK A   0     -10.273  10.805  64.638  1.00  0.00    -0.350 C  
HETATM    2  N   UNK A   0      -9.481  11.831  65.309  1.00  0.00    -0.387 NA 
ENDROOT
BRANCH   2   3
HETATM    3  C   UNK A   0      -8.745  11.470  66.408  1.00  0.00    -0.179 A  
HETATM    4  C   UNK A   0      -7.073  11.368  68.045  1.00  0.00    -0.074 A  
HETATM    5  C   UNK A   0      -7.753  12.168  67.072  1.00  0.00    -0.112 A  
HETATM    6  S   UNK A   0      -9.009   9.962  67.181  1.00  0.00    -0.138 SA 
HETATM    7  C   UNK A   0      -7.606  10.098  68.138  1.00  0.00    -0.087 A  
BRANCH   7   8
HETATM    8  C   UNK A   0      -7.102   8.958  68.881  1.00  0.00    -0.066 C  
HETATM    9  O   UNK A   0      -6.257   9.047  69.766  1.00  0.00    -0.037 OA 
ATOM     10  N   GLU A   1      -7.610   7.728  68.487  1.00  0.00    -0.103 N  
ATOM     11  H   GLU A   1      -8.284   7.689  67.723  1.00  0.00     0.000 HD 
BRANCH  10  12
ATOM     12  CA  GLU A   1      -7.198   6.485  69.144  1.00  0.00    -0.091 C  
ATOM     13  C   GLU A   1      -6.087   5.805  68.322  1.00  0.00    -0.018 C  
ATOM     14  O   GLU A   1      -6.102   6.131  67.006  1.00  0.00    -0.020 OA 
ATOM     15  OXT GLU A   1      -5.347   4.936  68.763  1.00  0.00    -0.003 OA 
BRANCH  12  16
ATOM     16  CB  GLU A   1      -8.410   5.555  69.278  1.00  0.00    -0.101 C  
BRANCH  16  17
ATOM     17  CG  GLU A   1      -9.334   5.612  68.062  1.00  0.00    -0.114 C  
ATOM     18  CD  GLU A   1     -10.707   6.123  68.417  1.00  0.00    -0.293 C  
ATOM     19  OE2 GLU A   1     -11.234   5.987  69.505  1.00  0.00    -0.398 OA 
ATOM     20  OE1 GLU A   1     -11.322   6.729  67.376  1.00  0.00    -0.274 OA 
ENDBRANCH  16  17
ENDBRANCH  12  16
ENDBRANCH  10  12
ENDBRANCH   7   8
ENDBRANCH   2   3
BRANCH   2  21
HETATM   21  C   UNK A   0     -10.089  13.175  65.351  1.00  0.00    -0.248 C  
BRANCH  21  22
HETATM   22  C   UNK A   0     -10.628  13.495  66.728  1.00  0.00    -0.272 A  
HETATM   23  C   UNK A   0     -10.840  15.009  68.618  1.00  0.00    -0.249 A  
HETATM   24  C   UNK A   0     -11.666  14.101  69.282  1.00  0.00    -0.323 A  
HETATM   25  C   UNK A   0     -10.321  14.713  67.354  1.00  0.00    -0.241 A  
HETATM   26  H   UNK A   0     -10.972  17.469  70.979  1.00  0.00     0.000 HD 
HETATM   27  C   UNK A   0     -11.953  12.877  68.679  1.00  0.00    -0.282 A  
HETATM   28  C   UNK A   0     -12.526  16.027  72.388  1.00  0.00    -0.549 C  
HETATM   29  N   UNK A   0     -12.156  14.436  70.544  1.00  0.00    -0.312 NA 
HETATM   30  N   UNK A   0     -11.129  16.573  70.518  1.00  0.00    -0.399 N  
HETATM   31  C   UNK A   0     -11.443  12.582  67.409  1.00  0.00    -0.404 A  
HETATM   32  C   UNK A   0     -10.541  16.295  69.300  1.00  0.00    -0.293 C  
HETATM   33  O   UNK A   0      -9.771  17.076  68.747  1.00  0.00    -0.257 OA 
HETATM   34  C   UNK A   0     -11.886  15.674  71.065  1.00  0.00    -0.400 C  
ENDBRANCH  21  22
ENDBRANCH   2  21
TORSDOF 7
ENDMDL
MODEL      216
REMARK 921   NORMALIZED FREE ENERGY PREDICTED BY IDOCK:   -4.61 KCAL/MOL
REMARK 922        TOTAL FREE ENERGY PREDICTED BY IDOCK:   -7.63 KCAL/MOL
REMARK 923 INTER-LIGAND FREE ENERGY PREDICTED BY IDOCK:   -7.84 KCAL/MOL
REMARK 924 INTRA-LIGAND FREE ENERGY PREDICTED BY IDOCK:    0.20 KCAL/MOL
REMARK 927      BINDING AFFINITY PREDICTED BY RF-SCORE:    0.00 PKD
ROOT
HETATM    1  C   UNK A   0     -10.883  12.286  68.232  1.00  0.00    -0.225 C  
HETATM    2  N   UNK A   0     -11.370  11.847  66.927  1.00  0.00    -0.344 NA 
ENDROOT
BRANCH   2   3
HETATM    3  C   UNK A   0     -10.550  11.067  66.155  1.00  0.00    -0.228 A  
HETATM    4  C   UNK A   0      -9.526  10.029  64.322  1.00  0.00    -0.336 A  
HETATM    5  C   UNK A   0     -10.260  11.159  64.806  1.00  0.00    -0.365 A  
HETATM    6  S   UNK A   0      -9.680   9.761  66.847  1.00  0.00    -0.203 SA 
HETATM    7  C   UNK A   0      -9.223   9.136  65.330  1.00  0.00    -0.179 A  
BRANCH   7   8
HETATM    8  C   UNK A   0      -8.638   7.812  65.218  1.00  0.00    -0.042 C  
HETATM    9  O   UNK A   0      -7.707   7.544  64.466  1.00  0.00    -0.109 OA 
ATOM     10  N   GLU A   1      -9.243   6.835  65.996  1.00  0.00    -0.345 N  
ATOM     11  H   GLU A   1     -10.038   7.087  66.583  1.00  0.00     0.000 HD 
BRANCH  10  12
ATOM     12  CA  GLU A   1      -8.764   5.450  65.993  1.00  0.00    -0.137 C  
ATOM     13  C   GLU A   1      -9.917   4.501  65.615  1.00  0.00    -0.231 C  
ATOM     14  O   GLU A   1     -11.148   4.997  65.895  1.00  0.00    -0.160 OA 
ATOM     15  OXT GLU A   1      -9.755   3.349  65.237  1.00  0.00    -0.152 OA 
BRANCH  12  16
ATOM     16  CB  GLU A   1      -8.214   5.098  67.381  1.00  0.00    -0.107 C  
BRANCH  16  17
ATOM     17  CG  GLU A   1      -6.973   5.912  67.746  1.00  0.00    -0.069 C  
ATOM     18  CD  GLU A   1      -5.978   5.967  66.615  1.00  0.00    -0.022 C  
ATOM     19  OE2 GLU A   1      -5.841   5.098  65.774  1.00  0.00    -0.017 OA 
ATOM     20  OE1 GLU A   1      -5.212   7.081  66.649  1.00  0.00    -0.020 OA 
ENDBRANCH  16  17
ENDBRANCH  12  16
ENDBRANCH  10  12
ENDBRANCH   7   8
ENDBRANCH   2   3
BRANCH   2  21
HETATM   21  C   UNK A   0     -12.206  12.824  66.202  1.00  0.00    -0.271 C  
BRANCH  21  22
HETATM   22  C   UNK A   0     -11.582  14.203  66.216  1.00  0.00    -0.379 A  
HETATM   23  C   UNK A   0     -10.853  16.182  67.423  1.00  0.00    -0.265 A  
HETATM   24  C   UNK A   0     -10.384  16.758  66.243  1.00  0.00    -0.310 A  
HETATM   25  C   UNK A   0     -11.449  14.918  67.417  1.00  0.00    -0.354 A  
HETATM   26  H   UNK A   0      -9.873  18.697  69.510  1.00  0.00     0.000 HD 
HETATM   27  C   UNK A   0     -10.537  16.066  65.042  1.00  0.00    -0.342 A  
HETATM   28  C   UNK A   0      -8.897  19.958  67.526  1.00  0.00    -0.411 C  
HETATM   29  N   UNK A   0      -9.801  18.024  66.297  1.00  0.00    -0.441 NA 
HETATM   30  N   UNK A   0     -10.034  18.173  68.651  1.00  0.00    -0.383 N  
HETATM   31  C   UNK A   0     -11.125  14.796  65.032  1.00  0.00    -0.412 A  
HETATM   32  C   UNK A   0     -10.689  16.957  68.681  1.00  0.00    -0.345 C  
HETATM   33  O   UNK A   0     -11.149  16.482  69.716  1.00  0.00    -0.337 OA 
HETATM   34  C   UNK A   0      -9.628  18.635  67.510  1.00  0.00    -0.294 C  
ENDBRANCH  21  22
ENDBRANCH   2  21
TORSDOF 7
ENDMDL
MODEL      217
REMARK 921   NORMALIZED FREE ENERGY PREDICTED BY IDOCK:   -4.61 KCAL/MOL
REMARK 922        TOTAL FREE ENERGY PREDICTED BY IDOCK:   -7.63 KCAL/MOL
REMARK 923 INTER-LIGAND FREE ENERGY PREDICTED BY IDOCK:   -8.03 KCAL/MOL
REMARK 924 INTRA-LIGAND FREE ENERGY PREDICTED BY IDOCK:    0.40 KCAL/MOL
REMARK 927      BINDING AFFINITY PREDICTED BY RF-SCORE:    0.00 PKD
ROOT
HETATM    1  C   UNK A   0      -9.327  10.038  62.939  1.00  0.00    -0.260 C  
HETATM    2  N   UNK A   0      -9.615  10.427  64.316  1.00  0.00    -0.294 NA 
ENDROOT
BRANCH   2   3
HETATM    3  C   UNK A   0     -10.255  11.619  64.535  1.00  0.00    -0.291 A  
HETATM    4  C   UNK A   0     -11.319  13.680  64.207  1.00  0.00    -0.372 A  
HETATM    5  C   UNK A   0     -10.988  12.400  63.659  1.00  0.00    -0.525 A  
HETATM    6  S   UNK A   0     -10.241  12.347  66.088  1.00  0.00    -0.247 SA 
HETATM    7  C   UNK A   0     -10.882  13.816  65.510  1.00  0.00    -0.299 A  
BRANCH   7   8
HETATM    8  C   UNK A   0     -10.884  15.004  66.344  1.00  0.00    -0.326 C  
HETATM    9  O   UNK A   0     -11.149  16.126  65.925  1.00  0.00    -0.133 OA 
ATOM     10  N   GLU A   1     -10.511  14.795  67.664  1.00  0.00    -0.252 N  
ATOM     11  H   GLU A   1     -10.263  13.854  67.969  1.00  0.00     0.000 HD 
BRANCH  10  12
ATOM     12  CA  GLU A   1     -10.467  15.897  68.630  1.00  0.00    -0.240 C  
ATOM     13  C   GLU A   1     -11.465  15.630  69.772  1.00  0.00    -0.342 C  
ATOM     14  O   GLU A   1     -12.495  14.821  69.420  1.00  0.00    -0.188 OA 
ATOM     15  OXT GLU A   1     -11.432  16.200  70.853  1.00  0.00    -0.403 OA 
BRANCH  12  16
ATOM     16  CB  GLU A   1     -10.807  17.211  67.918  1.00  0.00    -0.294 C  
BRANCH  16  17
ATOM     17  CG  GLU A   1      -9.880  18.357  68.323  1.00  0.00    -0.383 C  
ATOM     18  CD  GLU A   1      -9.117  18.912  67.147  1.00  0.00    -0.287 C  
ATOM     19  OE2 GLU A   1      -8.801  18.267  66.164  1.00  0.00    -0.464 OA 
ATOM     20  OE1 GLU A   1      -8.778  20.211  67.311  1.00  0.00    -0.327 OA 
ENDBRANCH  16  17
ENDBRANCH  12  16
ENDBRANCH  10  12
ENDBRANCH   7   8
ENDBRANCH   2   3
BRANCH   2  21
HETATM   21  C   UNK A   0      -8.588  10.052  65.308  1.00  0.00    -0.154 C  
BRANCH  21  22
HETATM   22  C   UNK A   0      -8.973   8.790  66.050  1.00  0.00    -0.235 A  
HETATM   23  C   UNK A   0      -8.392   6.619  66.976  1.00  0.00    -0.113 A  
HETATM   24  C   UNK A   0      -9.687   6.456  67.466  1.00  0.00    -0.121 A  
HETATM   25  C   UNK A   0      -8.033   7.772  66.271  1.00  0.00    -0.100 A  
HETATM   26  H   UNK A   0      -7.124   3.705  68.218  1.00  0.00     0.000 HD 
HETATM   27  C   UNK A   0     -10.635   7.450  67.226  1.00  0.00    -0.393 A  
HETATM   28  C   UNK A   0      -9.386   3.168  69.254  1.00  0.00    -0.223 C  
HETATM   29  N   UNK A   0     -10.002   5.286  68.158  1.00  0.00    -0.154 NA 
HETATM   30  N   UNK A   0      -7.794   4.440  67.992  1.00  0.00    -0.080 N  
HETATM   31  C   UNK A   0     -10.277   8.610  66.530  1.00  0.00    -0.295 A  
HETATM   32  C   UNK A   0      -7.414   5.530  67.234  1.00  0.00    -0.084 C  
HETATM   33  O   UNK A   0      -6.288   5.641  66.759  1.00  0.00    -0.033 OA 
HETATM   34  C   UNK A   0      -9.018   4.367  68.411  1.00  0.00    -0.115 C  
ENDBRANCH  21  22
ENDBRANCH   2  21
TORSDOF 7
ENDMDL
MODEL      218
REMARK 921   NORMALIZED FREE ENERGY PREDICTED BY IDOCK:   -4.61 KCAL/MOL
REMARK 922        TOTAL FREE ENERGY PREDICTED BY IDOCK:   -7.62 KCAL/MOL
REMARK 923 INTER-LIGAND FREE ENERGY PREDICTED BY IDOCK:   -6.14 KCAL/MOL
REMARK 924 INTRA-LIGAND FREE ENERGY PREDICTED BY IDOCK:   -1.48 KCAL/MOL
REMARK 927      BINDING AFFINITY PREDICTED BY RF-SCORE:    0.00 PKD
ROOT
HETATM    1  C   UNK A   0      -6.947   5.193  64.452  1.00  0.00    -0.049 C  
HETATM    2  N   UNK A   0      -7.456   6.325  65.219  1.00  0.00    -0.080 NA 
ENDROOT
BRANCH   2   3
HETATM    3  C   UNK A   0      -8.099   6.073  66.403  1.00  0.00    -0.110 A  
HETATM    4  C   UNK A   0      -9.762   5.766  68.024  1.00  0.00    -0.142 A  
HETATM    5  C   UNK A   0      -9.422   5.739  66.634  1.00  0.00    -0.161 A  
HETATM    6  S   UNK A   0      -7.247   6.127  67.890  1.00  0.00    -0.085 SA 
HETATM    7  C   UNK A   0      -8.672   6.060  68.820  1.00  0.00    -0.111 A  
BRANCH   7   8
HETATM    8  C   UNK A   0      -8.642   6.331  70.246  1.00  0.00    -0.138 C  
HETATM    9  O   UNK A   0      -7.670   6.102  70.958  1.00  0.00    -0.097 OA 
ATOM     10  N   GLU A   1      -9.824   6.832  70.774  1.00  0.00    -0.183 N  
ATOM     11  H   GLU A   1     -10.623   6.976  70.157  1.00  0.00     0.000 HD 
BRANCH  10  12
ATOM     12  CA  GLU A   1      -9.948   7.157  72.197  1.00  0.00    -0.165 C  
ATOM     13  C   GLU A   1     -10.368   5.902  72.984  1.00  0.00    -0.203 C  
ATOM     14  O   GLU A   1     -11.036   4.987  72.238  1.00  0.00    -0.183 OA 
ATOM     15  OXT GLU A   1     -10.253   5.787  74.197  1.00  0.00    -0.228 OA 
BRANCH  12  16
ATOM     16  CB  GLU A   1     -10.984   8.273  72.375  1.00  0.00    -0.438 C  
BRANCH  16  17
ATOM     17  CG  GLU A   1     -11.587   8.735  71.049  1.00  0.00    -0.337 C  
ATOM     18  CD  GLU A   1     -12.560   9.870  71.233  1.00  0.00    -0.381 C  
ATOM     19  OE2 GLU A   1     -13.227  10.052  72.235  1.00  0.00    -0.427 OA 
ATOM     20  OE1 GLU A   1     -12.650  10.663  70.141  1.00  0.00    -0.318 OA 
ENDBRANCH  16  17
ENDBRANCH  12  16
ENDBRANCH  10  12
ENDBRANCH   7   8
ENDBRANCH   2   3
BRANCH   2  21
HETATM   21  C   UNK A   0      -7.990   7.445  64.418  1.00  0.00    -0.109 C  
BRANCH  21  22
HETATM   22  C   UNK A   0      -7.811   8.768  65.131  1.00  0.00    -0.108 A  
HETATM   23  C   UNK A   0      -8.728  10.844  65.999  1.00  0.00    -0.192 A  
HETATM   24  C   UNK A   0      -7.478  11.217  66.493  1.00  0.00    -0.131 A  
HETATM   25  C   UNK A   0      -8.899   9.634  65.321  1.00  0.00    -0.204 A  
HETATM   26  H   UNK A   0     -10.441  13.557  67.160  1.00  0.00     0.000 HD 
HETATM   27  C   UNK A   0      -6.387  10.375  66.284  1.00  0.00    -0.097 A  
HETATM   28  C   UNK A   0      -8.299  14.460  68.197  1.00  0.00    -0.158 C  
HETATM   29  N   UNK A   0      -7.354  12.437  67.158  1.00  0.00    -0.300 NA 
HETATM   30  N   UNK A   0      -9.664  12.929  66.957  1.00  0.00    -0.224 N  
HETATM   31  C   UNK A   0      -6.555   9.157  65.614  1.00  0.00    -0.068 A  
HETATM   32  C   UNK A   0      -9.864  11.776  66.224  1.00  0.00    -0.221 C  
HETATM   33  O   UNK A   0     -10.955  11.481  65.744  1.00  0.00    -0.292 OA 
HETATM   34  C   UNK A   0      -8.470  13.199  67.382  1.00  0.00    -0.201 C  
ENDBRANCH  21  22
ENDBRANCH   2  21
TORSDOF 7
ENDMDL
MODEL      219
REMARK 921   NORMALIZED FREE ENERGY PREDICTED BY IDOCK:   -4.60 KCAL/MOL
REMARK 922        TOTAL FREE ENERGY PREDICTED BY IDOCK:   -7.62 KCAL/MOL
REMARK 923 INTER-LIGAND FREE ENERGY PREDICTED BY IDOCK:   -7.87 KCAL/MOL
REMARK 924 INTRA-LIGAND FREE ENERGY PREDICTED BY IDOCK:    0.26 KCAL/MOL
REMARK 927      BINDING AFFINITY PREDICTED BY RF-SCORE:    0.00 PKD
ROOT
HETATM    1  C   UNK A   0      -8.614   7.061  70.901  1.00  0.00    -0.139 C  
HETATM    2  N   UNK A   0      -8.098   7.999  69.909  1.00  0.00    -0.115 NA 
ENDROOT
BRANCH   2   3
HETATM    3  C   UNK A   0      -8.974   8.878  69.326  1.00  0.00    -0.144 A  
HETATM    4  C   UNK A   0     -10.886   9.810  68.346  1.00  0.00    -0.244 A  
HETATM    5  C   UNK A   0     -10.350   8.802  69.210  1.00  0.00    -0.221 A  
HETATM    6  S   UNK A   0      -8.411  10.335  68.618  1.00  0.00    -0.134 SA 
HETATM    7  C   UNK A   0      -9.909  10.665  67.876  1.00  0.00    -0.161 A  
BRANCH   7   8
HETATM    8  C   UNK A   0     -10.024  11.702  66.866  1.00  0.00    -0.202 C  
HETATM    9  O   UNK A   0      -9.217  11.851  65.955  1.00  0.00    -0.217 OA 
ATOM     10  N   GLU A   1     -11.100  12.562  67.029  1.00  0.00    -0.267 N  
ATOM     11  H   GLU A   1     -11.730  12.429  67.819  1.00  0.00     0.000 HD 
BRANCH  10  12
ATOM     12  CA  GLU A   1     -11.351  13.658  66.089  1.00  0.00    -0.312 C  
ATOM     13  C   GLU A   1     -12.287  13.177  64.965  1.00  0.00    -0.459 C  
ATOM     14  O   GLU A   1     -12.242  11.839  64.750  1.00  0.00    -0.183 OA 
ATOM     15  OXT GLU A   1     -12.908  13.929  64.226  1.00  0.00    -0.618 OA 
BRANCH  12  16
ATOM     16  CB  GLU A   1     -10.019  14.143  65.505  1.00  0.00    -0.323 C  
BRANCH  16  17
ATOM     17  CG  GLU A   1      -9.595  15.504  66.054  1.00  0.00    -0.380 C  
ATOM     18  CD  GLU A   1     -10.451  16.623  65.520  1.00  0.00    -0.267 C  
ATOM     19  OE2 GLU A   1     -11.002  16.613  64.434  1.00  0.00    -0.924 OA 
ATOM     20  OE1 GLU A   1     -10.521  17.676  66.366  1.00  0.00    -0.341 OA 
ENDBRANCH  16  17
ENDBRANCH  12  16
ENDBRANCH  10  12
ENDBRANCH   7   8
ENDBRANCH   2   3
BRANCH   2  21
HETATM   21  C   UNK A   0      -7.030   7.474  69.035  1.00  0.00    -0.073 C  
BRANCH  21  22
HETATM   22  C   UNK A   0      -7.602   6.824  67.795  1.00  0.00    -0.107 A  
HETATM   23  C   UNK A   0      -8.634   4.923  66.687  1.00  0.00    -0.109 A  
HETATM   24  C   UNK A   0      -8.702   5.629  65.486  1.00  0.00    -0.150 A  
HETATM   25  C   UNK A   0      -8.089   5.508  67.833  1.00  0.00    -0.100 A  
HETATM   26  H   UNK A   0     -10.169   2.088  65.569  1.00  0.00     0.000 HD 
HETATM   27  C   UNK A   0      -8.196   6.927  65.433  1.00  0.00    -0.134 A  
HETATM   28  C   UNK A   0     -10.455   3.153  63.275  1.00  0.00    -0.219 C  
HETATM   29  N   UNK A   0      -9.250   5.002  64.367  1.00  0.00    -0.353 NA 
HETATM   30  N   UNK A   0      -9.758   3.021  65.564  1.00  0.00    -0.379 N  
HETATM   31  C   UNK A   0      -7.657   7.520  66.580  1.00  0.00    -0.097 A  
HETATM   32  C   UNK A   0      -9.167   3.535  66.702  1.00  0.00    -0.177 C  
HETATM   33  O   UNK A   0      -9.061   2.887  67.739  1.00  0.00    -0.144 OA 
HETATM   34  C   UNK A   0      -9.781   3.746  64.490  1.00  0.00    -0.182 C  
ENDBRANCH  21  22
ENDBRANCH   2  21
TORSDOF 7
ENDMDL
MODEL      220
REMARK 921   NORMALIZED FREE ENERGY PREDICTED BY IDOCK:   -4.59 KCAL/MOL
REMARK 922        TOTAL FREE ENERGY PREDICTED BY IDOCK:   -7.60 KCAL/MOL
REMARK 923 INTER-LIGAND FREE ENERGY PREDICTED BY IDOCK:   -6.30 KCAL/MOL
REMARK 924 INTRA-LIGAND FREE ENERGY PREDICTED BY IDOCK:   -1.30 KCAL/MOL
REMARK 927      BINDING AFFINITY PREDICTED BY RF-SCORE:    0.00 PKD
ROOT
HETATM    1  C   UNK A   0      -6.008  13.234  70.820  1.00  0.00    -0.049 C  
HETATM    2  N   UNK A   0      -6.572  12.688  69.589  1.00  0.00    -0.319 NA 
ENDROOT
BRANCH   2   3
HETATM    3  C   UNK A   0      -6.412  11.351  69.337  1.00  0.00    -0.108 A  
HETATM    4  C   UNK A   0      -5.621   9.311  68.500  1.00  0.00    -0.041 A  
HETATM    5  C   UNK A   0      -5.325  10.676  68.812  1.00  0.00    -0.041 A  
HETATM    6  S   UNK A   0      -7.665  10.237  69.700  1.00  0.00    -0.142 SA 
HETATM    7  C   UNK A   0      -6.910   8.966  68.854  1.00  0.00    -0.061 A  
BRANCH   7   8
HETATM    8  C   UNK A   0      -7.630   7.739  68.560  1.00  0.00    -0.105 C  
HETATM    9  O   UNK A   0      -7.087   6.716  68.157  1.00  0.00    -0.077 OA 
ATOM     10  N   GLU A   1      -9.006   7.813  68.722  1.00  0.00    -0.141 N  
ATOM     11  H   GLU A   1      -9.426   8.692  69.025  1.00  0.00     0.000 HD 
BRANCH  10  12
ATOM     12  CA  GLU A   1      -9.869   6.656  68.466  1.00  0.00    -0.139 C  
ATOM     13  C   GLU A   1     -10.585   6.830  67.114  1.00  0.00    -0.331 C  
ATOM     14  O   GLU A   1     -10.726   8.123  66.731  1.00  0.00    -0.278 OA 
ATOM     15  OXT GLU A   1     -11.116   5.913  66.501  1.00  0.00    -0.205 OA 
BRANCH  12  16
ATOM     16  CB  GLU A   1     -10.892   6.524  69.600  1.00  0.00    -0.359 C  
BRANCH  16  17
ATOM     17  CG  GLU A   1     -10.386   7.106  70.920  1.00  0.00    -0.214 C  
ATOM     18  CD  GLU A   1     -11.516   7.509  71.832  1.00  0.00    -0.270 C  
ATOM     19  OE2 GLU A   1     -12.613   7.875  71.451  1.00  0.00    -0.316 OA 
ATOM     20  OE1 GLU A   1     -11.175   7.459  73.140  1.00  0.00    -0.335 OA 
ENDBRANCH  16  17
ENDBRANCH  12  16
ENDBRANCH  10  12
ENDBRANCH   7   8
ENDBRANCH   2   3
BRANCH   2  21
HETATM   21  C   UNK A   0      -6.511  13.581  68.415  1.00  0.00    -0.094 C  
BRANCH  21  22
HETATM   22  C   UNK A   0      -7.762  13.470  67.572  1.00  0.00    -0.182 A  
HETATM   23  C   UNK A   0      -9.164  12.233  66.018  1.00  0.00    -0.086 A  
HETATM   24  C   UNK A   0     -10.117  13.252  66.030  1.00  0.00    -0.299 A  
HETATM   25  C   UNK A   0      -7.995  12.336  66.778  1.00  0.00     0.010 A  
HETATM   26  H   UNK A   0     -10.867  10.120  63.950  1.00  0.00     0.000 HD 
HETATM   27  C   UNK A   0      -9.880  14.393  66.795  1.00  0.00    -0.269 A  
HETATM   28  C   UNK A   0     -12.779  11.795  63.819  1.00  0.00    -0.369 C  
HETATM   29  N   UNK A   0     -11.265  13.108  65.252  1.00  0.00    -0.288 NA 
HETATM   30  N   UNK A   0     -10.640  10.951  64.496  1.00  0.00    -0.322 N  
HETATM   31  C   UNK A   0      -8.715  14.496  67.564  1.00  0.00    -0.195 A  
HETATM   32  C   UNK A   0      -9.442  11.039  65.177  1.00  0.00    -0.228 C  
HETATM   33  O   UNK A   0      -8.584  10.163  65.117  1.00  0.00    -0.148 OA 
HETATM   34  C   UNK A   0     -11.471  11.943  64.563  1.00  0.00    -0.294 C  
ENDBRANCH  21  22
ENDBRANCH   2  21
TORSDOF 7
ENDMDL
MODEL      221
REMARK 921   NORMALIZED FREE ENERGY PREDICTED BY IDOCK:   -4.58 KCAL/MOL
REMARK 922        TOTAL FREE ENERGY PREDICTED BY IDOCK:   -7.59 KCAL/MOL
REMARK 923 INTER-LIGAND FREE ENERGY PREDICTED BY IDOCK:   -7.10 KCAL/MOL
REMARK 924 INTRA-LIGAND FREE ENERGY PREDICTED BY IDOCK:   -0.49 KCAL/MOL
REMARK 927      BINDING AFFINITY PREDICTED BY RF-SCORE:    0.00 PKD
ROOT
HETATM    1  C   UNK A   0     -12.863  13.927  70.394  1.00  0.00    -0.137 C  
HETATM    2  N   UNK A   0     -12.016  12.866  69.860  1.00  0.00    -0.351 NA 
ENDROOT
BRANCH   2   3
HETATM    3  C   UNK A   0     -12.195  11.591  70.331  1.00  0.00    -0.355 A  
HETATM    4  C   UNK A   0     -12.635   9.765  71.729  1.00  0.00    -0.506 A  
HETATM    5  C   UNK A   0     -12.848  11.156  71.470  1.00  0.00    -0.542 A  
HETATM    6  S   UNK A   0     -11.587  10.243  69.461  1.00  0.00    -0.120 SA 
HETATM    7  C   UNK A   0     -11.876   9.163  70.746  1.00  0.00    -0.227 A  
BRANCH   7   8
HETATM    8  C   UNK A   0     -11.318   7.822  70.727  1.00  0.00    -0.279 C  
HETATM    9  O   UNK A   0     -11.656   6.960  69.924  1.00  0.00    -0.272 OA 
ATOM     10  N   GLU A   1     -10.395   7.557  71.728  1.00  0.00    -0.192 N  
ATOM     11  H   GLU A   1     -10.165   8.288  72.402  1.00  0.00     0.000 HD 
BRANCH  10  12
ATOM     12  CA  GLU A   1      -9.743   6.249  71.840  1.00  0.00    -0.152 C  
ATOM     13  C   GLU A   1     -10.534   5.354  72.813  1.00  0.00    -0.213 C  
ATOM     14  O   GLU A   1     -11.260   6.046  73.725  1.00  0.00     0.069 OA 
ATOM     15  OXT GLU A   1     -10.415   4.138  72.870  1.00  0.00    -0.164 OA 
BRANCH  12  16
ATOM     16  CB  GLU A   1      -8.305   6.438  72.336  1.00  0.00    -0.106 C  
BRANCH  16  17
ATOM     17  CG  GLU A   1      -7.944   7.908  72.549  1.00  0.00    -0.157 C  
ATOM     18  CD  GLU A   1      -6.573   8.238  72.016  1.00  0.00    -0.069 C  
ATOM     19  OE2 GLU A   1      -5.650   7.447  71.948  1.00  0.00    -0.036 OA 
ATOM     20  OE1 GLU A   1      -6.455   9.534  71.648  1.00  0.00    -0.286 OA 
ENDBRANCH  16  17
ENDBRANCH  12  16
ENDBRANCH  10  12
ENDBRANCH   7   8
ENDBRANCH   2   3
BRANCH   2  21
HETATM   21  C   UNK A   0     -10.624  13.256  69.561  1.00  0.00     0.368 C  
BRANCH  21  22
HETATM   22  C   UNK A   0     -10.554  14.655  68.989  1.00  0.00    -0.248 A  
HETATM   23  C   UNK A   0     -10.603  16.168  67.087  1.00  0.00    -0.294 A  
HETATM   24  C   UNK A   0     -10.460  17.270  67.931  1.00  0.00    -0.382 A  
HETATM   25  C   UNK A   0     -10.648  14.870  67.605  1.00  0.00    -0.264 A  
HETATM   26  H   UNK A   0     -10.849  17.926  64.174  1.00  0.00     0.000 HD 
HETATM   27  C   UNK A   0     -10.337  17.062  69.304  1.00  0.00    -0.276 A  
HETATM   28  C   UNK A   0     -10.639  20.104  65.474  1.00  0.00    -0.232 C  
HETATM   29  N   UNK A   0     -10.414  18.546  67.369  1.00  0.00    -0.403 NA 
HETATM   30  N   UNK A   0     -10.730  17.728  65.167  1.00  0.00     0.086 N  
HETATM   31  C   UNK A   0     -10.392  15.765  69.828  1.00  0.00    -0.307 A  
HETATM   32  C   UNK A   0     -10.712  16.427  65.628  1.00  0.00    -0.270 C  
HETATM   33  O   UNK A   0     -10.782  15.460  64.874  1.00  0.00    -0.420 OA 
HETATM   34  C   UNK A   0     -10.593  18.695  66.019  1.00  0.00    -0.365 C  
ENDBRANCH  21  22
ENDBRANCH   2  21
TORSDOF 7
ENDMDL
MODEL      222
REMARK 921   NORMALIZED FREE ENERGY PREDICTED BY IDOCK:   -4.57 KCAL/MOL
REMARK 922        TOTAL FREE ENERGY PREDICTED BY IDOCK:   -7.58 KCAL/MOL
REMARK 923 INTER-LIGAND FREE ENERGY PREDICTED BY IDOCK:   -6.18 KCAL/MOL
REMARK 924 INTRA-LIGAND FREE ENERGY PREDICTED BY IDOCK:   -1.39 KCAL/MOL
REMARK 927      BINDING AFFINITY PREDICTED BY RF-SCORE:    0.00 PKD
ROOT
HETATM    1  C   UNK A   0     -11.019   2.627  73.575  1.00  0.00    -0.212 C  
HETATM    2  N   UNK A   0     -10.486   3.861  73.007  1.00  0.00    -0.168 NA 
ENDROOT
BRANCH   2   3
HETATM    3  C   UNK A   0      -9.498   3.769  72.061  1.00  0.00    -0.137 A  
HETATM    4  C   UNK A   0      -7.404   3.681  71.016  1.00  0.00    -0.037 A  
HETATM    5  C   UNK A   0      -8.156   3.470  72.216  1.00  0.00    -0.072 A  
HETATM    6  S   UNK A   0      -9.850   4.018  70.401  1.00  0.00    -0.052 SA 
HETATM    7  C   UNK A   0      -8.204   4.076  69.963  1.00  0.00    -0.057 A  
BRANCH   7   8
HETATM    8  C   UNK A   0      -7.803   4.535  68.645  1.00  0.00    -0.075 C  
HETATM    9  O   UNK A   0      -6.637   4.579  68.270  1.00  0.00    -0.043 OA 
ATOM     10  N   GLU A   1      -8.841   4.974  67.836  1.00  0.00    -0.103 N  
ATOM     11  H   GLU A   1      -9.796   4.955  68.194  1.00  0.00     0.000 HD 
BRANCH  10  12
ATOM     12  CA  GLU A   1      -8.595   5.465  66.477  1.00  0.00    -0.116 C  
ATOM     13  C   GLU A   1      -8.813   6.988  66.426  1.00  0.00    -0.145 C  
ATOM     14  O   GLU A   1      -9.658   7.453  67.380  1.00  0.00    -0.138 OA 
ATOM     15  OXT GLU A   1      -8.394   7.707  65.529  1.00  0.00    -0.129 OA 
BRANCH  12  16
ATOM     16  CB  GLU A   1      -9.541   4.755  65.501  1.00  0.00    -0.172 C  
BRANCH  16  17
ATOM     17  CG  GLU A   1      -8.930   4.579  64.111  1.00  0.00    -0.144 C  
ATOM     18  CD  GLU A   1      -8.217   3.259  63.969  1.00  0.00    -0.089 C  
ATOM     19  OE2 GLU A   1      -7.687   2.658  64.886  1.00  0.00    -0.074 OA 
ATOM     20  OE1 GLU A   1      -8.191   2.815  62.691  1.00  0.00    -0.071 OA 
ENDBRANCH  16  17
ENDBRANCH  12  16
ENDBRANCH  10  12
ENDBRANCH   7   8
ENDBRANCH   2   3
BRANCH   2  21
HETATM   21  C   UNK A   0     -10.382   4.997  73.944  1.00  0.00    -0.249 C  
BRANCH  21  22
HETATM   22  C   UNK A   0     -10.529   6.321  73.224  1.00  0.00    -0.267 A  
HETATM   23  C   UNK A   0     -11.895   7.945  72.041  1.00  0.00    -0.364 A  
HETATM   24  C   UNK A   0     -10.805   8.807  71.917  1.00  0.00    -0.360 A  
HETATM   25  C   UNK A   0     -11.764   6.712  72.685  1.00  0.00    -0.123 A  
HETATM   26  H   UNK A   0     -14.186   9.984  70.546  1.00  0.00     0.000 HD 
HETATM   27  C   UNK A   0      -9.568   8.414  72.426  1.00  0.00    -0.373 A  
HETATM   28  C   UNK A   0     -12.389  11.756  70.218  1.00  0.00    -0.320 C  
HETATM   29  N   UNK A   0     -10.981  10.025  71.261  1.00  0.00    -0.226 NA 
HETATM   30  N   UNK A   0     -13.293   9.644  70.901  1.00  0.00    -0.596 N  
HETATM   31  C   UNK A   0      -9.435   7.184  73.080  1.00  0.00    -0.204 A  
HETATM   32  C   UNK A   0     -13.194   8.390  71.470  1.00  0.00    -0.290 C  
HETATM   33  O   UNK A   0     -14.144   7.615  71.526  1.00  0.00    -0.414 OA 
HETATM   34  C   UNK A   0     -12.231  10.383  70.828  1.00  0.00    -0.359 C  
ENDBRANCH  21  22
ENDBRANCH   2  21
TORSDOF 7
ENDMDL
MODEL      223
REMARK 921   NORMALIZED FREE ENERGY PREDICTED BY IDOCK:   -4.57 KCAL/MOL
REMARK 922        TOTAL FREE ENERGY PREDICTED BY IDOCK:   -7.57 KCAL/MOL
REMARK 923 INTER-LIGAND FREE ENERGY PREDICTED BY IDOCK:   -6.71 KCAL/MOL
REMARK 924 INTRA-LIGAND FREE ENERGY PREDICTED BY IDOCK:   -0.86 KCAL/MOL
REMARK 927      BINDING AFFINITY PREDICTED BY RF-SCORE:    0.00 PKD
ROOT
HETATM    1  C   UNK A   0      -7.689  11.776  67.274  1.00  0.00    -0.158 C  
HETATM    2  N   UNK A   0      -8.294  11.720  68.601  1.00  0.00    -0.291 NA 
ENDROOT
BRANCH   2   3
HETATM    3  C   UNK A   0      -7.831  10.782  69.488  1.00  0.00    -0.035 A  
HETATM    4  C   UNK A   0      -6.427   9.485  70.840  1.00  0.00    -0.094 A  
HETATM    5  C   UNK A   0      -6.629  10.733  70.170  1.00  0.00    -0.144 A  
HETATM    6  S   UNK A   0      -8.797   9.432  69.916  1.00  0.00    -0.217 SA 
HETATM    7  C   UNK A   0      -7.509   8.639  70.701  1.00  0.00    -0.074 A  
BRANCH   7   8
HETATM    8  C   UNK A   0      -7.624   7.246  71.093  1.00  0.00    -0.080 C  
HETATM    9  O   UNK A   0      -7.219   6.809  72.165  1.00  0.00    -0.078 OA 
ATOM     10  N   GLU A   1      -8.189   6.412  70.138  1.00  0.00    -0.127 N  
ATOM     11  H   GLU A   1      -8.482   6.805  69.244  1.00  0.00     0.000 HD 
BRANCH  10  12
ATOM     12  CA  GLU A   1      -8.374   4.980  70.388  1.00  0.00    -0.100 C  
ATOM     13  C   GLU A   1      -7.921   4.174  69.156  1.00  0.00    -0.060 C  
ATOM     14  O   GLU A   1      -7.980   4.871  67.994  1.00  0.00    -0.086 OA 
ATOM     15  OXT GLU A   1      -7.671   2.976  69.179  1.00  0.00    -0.047 OA 
BRANCH  12  16
ATOM     16  CB  GLU A   1      -9.850   4.703  70.695  1.00  0.00    -0.296 C  
BRANCH  16  17
ATOM     17  CG  GLU A   1     -10.791   5.686  69.999  1.00  0.00    -0.366 C  
ATOM     18  CD  GLU A   1     -11.605   6.486  70.984  1.00  0.00    -0.348 C  
ATOM     19  OE2 GLU A   1     -11.935   6.092  72.087  1.00  0.00    -0.331 OA 
ATOM     20  OE1 GLU A   1     -11.970   7.695  70.498  1.00  0.00    -0.170 OA 
ENDBRANCH  16  17
ENDBRANCH  12  16
ENDBRANCH  10  12
ENDBRANCH   7   8
ENDBRANCH   2   3
BRANCH   2  21
HETATM   21  C   UNK A   0      -9.744  11.996  68.649  1.00  0.00    -0.096 C  
BRANCH  21  22
HETATM   22  C   UNK A   0     -10.029  13.474  68.488  1.00  0.00    -0.202 A  
HETATM   23  C   UNK A   0      -9.283  15.787  68.510  1.00  0.00    -0.198 A  
HETATM   24  C   UNK A   0     -10.557  16.226  68.150  1.00  0.00    -0.307 A  
HETATM   25  C   UNK A   0      -9.015  14.426  68.682  1.00  0.00    -0.172 A  
HETATM   26  H   UNK A   0      -7.796  18.858  68.533  1.00  0.00     0.000 HD 
HETATM   27  C   UNK A   0     -11.576  15.289  67.983  1.00  0.00    -0.325 A  
HETATM   28  C   UNK A   0     -10.001  19.926  67.841  1.00  0.00    -0.552 C  
HETATM   29  N   UNK A   0     -10.779  17.594  67.996  1.00  0.00    -0.376 NA 
HETATM   30  N   UNK A   0      -8.520  18.144  68.453  1.00  0.00    -0.294 N  
HETATM   31  C   UNK A   0     -11.310  13.924  68.144  1.00  0.00    -0.324 A  
HETATM   32  C   UNK A   0      -8.227  16.816  68.698  1.00  0.00    -0.252 C  
HETATM   33  O   UNK A   0      -7.118  16.444  69.069  1.00  0.00    -0.183 OA 
HETATM   34  C   UNK A   0      -9.730  18.465  68.120  1.00  0.00    -0.331 C  
ENDBRANCH  21  22
ENDBRANCH   2  21
TORSDOF 7
ENDMDL
MODEL      224
REMARK 921   NORMALIZED FREE ENERGY PREDICTED BY IDOCK:   -4.56 KCAL/MOL
REMARK 922        TOTAL FREE ENERGY PREDICTED BY IDOCK:   -7.55 KCAL/MOL
REMARK 923 INTER-LIGAND FREE ENERGY PREDICTED BY IDOCK:   -7.96 KCAL/MOL
REMARK 924 INTRA-LIGAND FREE ENERGY PREDICTED BY IDOCK:    0.40 KCAL/MOL
REMARK 927      BINDING AFFINITY PREDICTED BY RF-SCORE:    0.00 PKD
ROOT
HETATM    1  C   UNK A   0     -12.263  15.855  69.847  1.00  0.00    -0.167 C  
HETATM    2  N   UNK A   0     -11.236  14.898  69.449  1.00  0.00    -0.268 NA 
ENDROOT
BRANCH   2   3
HETATM    3  C   UNK A   0     -11.539  13.562  69.492  1.00  0.00    -0.294 A  
HETATM    4  C   UNK A   0     -12.269  11.456  70.212  1.00  0.00    -0.433 A  
HETATM    5  C   UNK A   0     -12.382  12.877  70.348  1.00  0.00    -0.333 A  
HETATM    6  S   UNK A   0     -10.854  12.473  68.358  1.00  0.00    -0.253 SA 
HETATM    7  C   UNK A   0     -11.387  11.099  69.212  1.00  0.00    -0.281 A  
BRANCH   7   8
HETATM    8  C   UNK A   0     -10.888   9.777  68.877  1.00  0.00    -0.192 C  
HETATM    9  O   UNK A   0     -10.486   9.468  67.760  1.00  0.00    -0.224 OA 
ATOM     10  N   GLU A   1     -10.940   8.851  69.909  1.00  0.00    -0.331 N  
ATOM     11  H   GLU A   1     -11.313   9.134  70.815  1.00  0.00     0.000 HD 
BRANCH  10  12
ATOM     12  CA  GLU A   1     -10.470   7.475  69.726  1.00  0.00    -0.230 C  
ATOM     13  C   GLU A   1      -8.996   7.366  70.157  1.00  0.00    -0.148 C  
ATOM     14  O   GLU A   1      -8.315   8.536  70.080  1.00  0.00    -0.115 OA 
ATOM     15  OXT GLU A   1      -8.434   6.307  70.406  1.00  0.00    -0.130 OA 
BRANCH  12  16
ATOM     16  CB  GLU A   1     -10.628   7.075  68.254  1.00  0.00    -0.238 C  
BRANCH  16  17
ATOM     17  CG  GLU A   1     -10.806   5.568  68.069  1.00  0.00    -0.062 C  
ATOM     18  CD  GLU A   1      -9.634   4.942  67.358  1.00  0.00    -0.152 C  
ATOM     19  OE2 GLU A   1      -8.929   5.518  66.549  1.00  0.00    -0.117 OA 
ATOM     20  OE1 GLU A   1      -9.460   3.641  67.684  1.00  0.00    -0.190 OA 
ENDBRANCH  16  17
ENDBRANCH  12  16
ENDBRANCH  10  12
ENDBRANCH   7   8
ENDBRANCH   2   3
BRANCH   2  21
HETATM   21  C   UNK A   0      -9.854  15.261  69.820  1.00  0.00    -0.176 C  
BRANCH  21  22
HETATM   22  C   UNK A   0      -9.173  16.042  68.717  1.00  0.00    -0.224 A  
HETATM   23  C   UNK A   0      -8.708  18.146  67.592  1.00  0.00    -0.249 A  
HETATM   24  C   UNK A   0      -7.872  17.501  66.681  1.00  0.00    -0.250 A  
HETATM   25  C   UNK A   0      -9.357  17.429  68.602  1.00  0.00    -0.267 A  
HETATM   26  H   UNK A   0      -8.230  21.308  66.402  1.00  0.00     0.000 HD 
HETATM   27  C   UNK A   0      -7.707  16.119  66.772  1.00  0.00    -0.288 A  
HETATM   28  C   UNK A   0      -6.628  20.399  64.644  1.00  0.00    -0.288 C  
HETATM   29  N   UNK A   0      -7.250  18.256  65.686  1.00  0.00    -0.539 NA 
HETATM   30  N   UNK A   0      -8.162  20.293  66.483  1.00  0.00    -0.497 N  
HETATM   31  C   UNK A   0      -8.347  15.399  67.787  1.00  0.00    -0.156 A  
HETATM   32  C   UNK A   0      -8.875  19.617  67.453  1.00  0.00    -0.316 C  
HETATM   33  O   UNK A   0      -9.651  20.184  68.216  1.00  0.00    -0.297 OA 
HETATM   34  C   UNK A   0      -7.406  19.617  65.677  1.00  0.00    -0.251 C  
ENDBRANCH  21  22
ENDBRANCH   2  21
TORSDOF 7
ENDMDL
MODEL      225
REMARK 921   NORMALIZED FREE ENERGY PREDICTED BY IDOCK:   -4.54 KCAL/MOL
REMARK 922        TOTAL FREE ENERGY PREDICTED BY IDOCK:   -7.52 KCAL/MOL
REMARK 923 INTER-LIGAND FREE ENERGY PREDICTED BY IDOCK:   -7.22 KCAL/MOL
REMARK 924 INTRA-LIGAND FREE ENERGY PREDICTED BY IDOCK:   -0.30 KCAL/MOL
REMARK 927      BINDING AFFINITY PREDICTED BY RF-SCORE:    0.00 PKD
ROOT
HETATM    1  C   UNK A   0     -12.145  12.529  65.830  1.00  0.00    -0.352 C  
HETATM    2  N   UNK A   0     -10.869  11.862  66.076  1.00  0.00    -0.288 NA 
ENDROOT
BRANCH   2   3
HETATM    3  C   UNK A   0     -10.825  10.871  67.021  1.00  0.00    -0.266 A  
HETATM    4  C   UNK A   0     -10.872   9.723  69.062  1.00  0.00    -0.223 A  
HETATM    5  C   UNK A   0     -11.299  10.870  68.320  1.00  0.00    -0.374 A  
HETATM    6  S   UNK A   0     -10.120   9.349  66.660  1.00  0.00    -0.255 SA 
HETATM    7  C   UNK A   0     -10.134   8.849  68.289  1.00  0.00    -0.187 A  
BRANCH   7   8
HETATM    8  C   UNK A   0      -9.399   7.669  68.708  1.00  0.00    -0.148 C  
HETATM    9  O   UNK A   0      -8.963   7.512  69.844  1.00  0.00    -0.141 OA 
ATOM     10  N   GLU A   1      -9.175   6.732  67.710  1.00  0.00    -0.113 N  
ATOM     11  H   GLU A   1      -9.522   6.913  66.768  1.00  0.00     0.000 HD 
BRANCH  10  12
ATOM     12  CA  GLU A   1      -8.450   5.487  67.980  1.00  0.00    -0.098 C  
ATOM     13  C   GLU A   1      -7.018   5.586  67.420  1.00  0.00    -0.069 C  
ATOM     14  O   GLU A   1      -6.892   6.463  66.394  1.00  0.00    -0.058 OA 
ATOM     15  OXT GLU A   1      -6.103   4.846  67.755  1.00  0.00    -0.025 OA 
BRANCH  12  16
ATOM     16  CB  GLU A   1      -9.196   4.313  67.336  1.00  0.00    -0.171 C  
BRANCH  16  17
ATOM     17  CG  GLU A   1     -10.376   4.766  66.476  1.00  0.00    -0.284 C  
ATOM     18  CD  GLU A   1     -10.211   4.369  65.031  1.00  0.00    -0.145 C  
ATOM     19  OE2 GLU A   1      -9.139   4.234  64.471  1.00  0.00    -0.140 OA 
ATOM     20  OE1 GLU A   1     -11.395   4.208  64.397  1.00  0.00    -0.279 OA 
ENDBRANCH  16  17
ENDBRANCH  12  16
ENDBRANCH  10  12
ENDBRANCH   7   8
ENDBRANCH   2   3
BRANCH   2  21
HETATM   21  C   UNK A   0      -9.675  12.726  65.986  1.00  0.00    -0.224 C  
BRANCH  21  22
HETATM   22  C   UNK A   0      -9.856  14.001  66.779  1.00  0.00    -0.275 A  
HETATM   23  C   UNK A   0      -9.524  16.395  67.041  1.00  0.00    -0.240 A  
HETATM   24  C   UNK A   0     -10.228  16.384  68.246  1.00  0.00    -0.255 A  
HETATM   25  C   UNK A   0      -9.335  15.218  66.311  1.00  0.00    -0.345 A  
HETATM   26  H   UNK A   0      -8.944  19.756  66.948  1.00  0.00     0.000 HD 
HETATM   27  C   UNK A   0     -10.725  15.175  68.731  1.00  0.00    -0.239 A  
HETATM   28  C   UNK A   0     -10.214  20.031  69.137  1.00  0.00    -0.237 C  
HETATM   29  N   UNK A   0     -10.387  17.582  68.943  1.00  0.00    -0.358 NA 
HETATM   30  N   UNK A   0      -9.262  18.847  67.284  1.00  0.00    -0.281 N  
HETATM   31  C   UNK A   0     -10.546  13.996  67.999  1.00  0.00    -0.250 A  
HETATM   32  C   UNK A   0      -8.993  17.699  66.564  1.00  0.00    -0.262 C  
HETATM   33  O   UNK A   0      -8.326  17.708  65.534  1.00  0.00    -0.251 OA 
HETATM   34  C   UNK A   0      -9.925  18.748  68.393  1.00  0.00    -0.392 C  
ENDBRANCH  21  22
ENDBRANCH   2  21
TORSDOF 7
ENDMDL
MODEL      226
REMARK 921   NORMALIZED FREE ENERGY PREDICTED BY IDOCK:   -4.51 KCAL/MOL
REMARK 922        TOTAL FREE ENERGY PREDICTED BY IDOCK:   -7.48 KCAL/MOL
REMARK 923 INTER-LIGAND FREE ENERGY PREDICTED BY IDOCK:   -6.96 KCAL/MOL
REMARK 924 INTRA-LIGAND FREE ENERGY PREDICTED BY IDOCK:   -0.52 KCAL/MOL
REMARK 927      BINDING AFFINITY PREDICTED BY RF-SCORE:    0.00 PKD
ROOT
HETATM    1  C   UNK A   0     -10.490   9.296  71.738  1.00  0.00    -0.168 C  
HETATM    2  N   UNK A   0     -11.516   8.487  71.087  1.00  0.00    -0.269 NA 
ENDROOT
BRANCH   2   3
HETATM    3  C   UNK A   0     -11.118   7.532  70.188  1.00  0.00    -0.231 A  
HETATM    4  C   UNK A   0     -10.617   5.477  69.183  1.00  0.00    -0.300 A  
HETATM    5  C   UNK A   0     -11.390   6.176  70.164  1.00  0.00    -0.433 A  
HETATM    6  S   UNK A   0     -10.153   7.953  68.834  1.00  0.00    -0.200 SA 
HETATM    7  C   UNK A   0      -9.822   6.329  68.444  1.00  0.00    -0.130 A  
BRANCH   7   8
HETATM    8  C   UNK A   0      -8.792   5.993  67.476  1.00  0.00    -0.109 C  
HETATM    9  O   UNK A   0      -7.715   6.575  67.406  1.00  0.00    -0.098 OA 
ATOM     10  N   GLU A   1      -9.129   4.983  66.587  1.00  0.00    -0.117 N  
ATOM     11  H   GLU A   1     -10.049   4.546  66.653  1.00  0.00     0.000 HD 
BRANCH  10  12
ATOM     12  CA  GLU A   1      -8.194   4.531  65.553  1.00  0.00    -0.110 C  
ATOM     13  C   GLU A   1      -8.965   4.198  64.262  1.00  0.00    -0.144 C  
ATOM     14  O   GLU A   1     -10.261   3.861  64.471  1.00  0.00    -0.210 OA 
ATOM     15  OXT GLU A   1      -8.440   4.096  63.162  1.00  0.00    -0.087 OA 
BRANCH  12  16
ATOM     16  CB  GLU A   1      -7.436   3.298  66.057  1.00  0.00    -0.073 C  
BRANCH  16  17
ATOM     17  CG  GLU A   1      -8.368   2.147  66.436  1.00  0.00    -0.095 C  
ATOM     18  CD  GLU A   1      -8.557   2.038  67.927  1.00  0.00    -0.082 C  
ATOM     19  OE2 GLU A   1      -7.729   2.373  68.754  1.00  0.00    -0.050 OA 
ATOM     20  OE1 GLU A   1      -9.746   1.487  68.263  1.00  0.00    -0.186 OA 
ENDBRANCH  16  17
ENDBRANCH  12  16
ENDBRANCH  10  12
ENDBRANCH   7   8
ENDBRANCH   2   3
BRANCH   2  21
HETATM   21  C   UNK A   0     -12.773   9.192  70.769  1.00  0.00     0.091 C  
BRANCH  21  22
HETATM   22  C   UNK A   0     -12.539  10.674  70.573  1.00  0.00    -0.433 A  
HETATM   23  C   UNK A   0     -11.794  12.535  69.198  1.00  0.00    -0.348 A  
HETATM   24  C   UNK A   0     -12.140  13.443  70.198  1.00  0.00    -0.344 A  
HETATM   25  C   UNK A   0     -11.987  11.162  69.378  1.00  0.00    -0.420 A  
HETATM   26  H   UNK A   0     -10.763  14.841  66.904  1.00  0.00     0.000 HD 
HETATM   27  C   UNK A   0     -12.663  12.965  71.398  1.00  0.00    -0.366 A  
HETATM   28  C   UNK A   0     -11.340  16.711  68.532  1.00  0.00    -0.152 C  
HETATM   29  N   UNK A   0     -11.924  14.803  69.976  1.00  0.00    -0.297 NA 
HETATM   30  N   UNK A   0     -11.111  14.447  67.778  1.00  0.00    -0.278 N  
HETATM   31  C   UNK A   0     -12.867  11.592  71.580  1.00  0.00    -0.485 A  
HETATM   32  C   UNK A   0     -11.222  13.080  67.939  1.00  0.00    -0.271 C  
HETATM   33  O   UNK A   0     -10.864  12.285  67.075  1.00  0.00    -0.235 OA 
HETATM   34  C   UNK A   0     -11.458  15.222  68.758  1.00  0.00    -0.331 C  
ENDBRANCH  21  22
ENDBRANCH   2  21
TORSDOF 7
ENDMDL
MODEL      227
REMARK 921   NORMALIZED FREE ENERGY PREDICTED BY IDOCK:   -4.50 KCAL/MOL
REMARK 922        TOTAL FREE ENERGY PREDICTED BY IDOCK:   -7.48 KCAL/MOL
REMARK 923 INTER-LIGAND FREE ENERGY PREDICTED BY IDOCK:   -6.79 KCAL/MOL
REMARK 924 INTRA-LIGAND FREE ENERGY PREDICTED BY IDOCK:   -0.69 KCAL/MOL
REMARK 927      BINDING AFFINITY PREDICTED BY RF-SCORE:    0.00 PKD
ROOT
HETATM    1  C   UNK A   0      -9.610   3.362  69.749  1.00  0.00    -0.110 C  
HETATM    2  N   UNK A   0      -9.367   4.800  69.689  1.00  0.00    -0.119 NA 
ENDROOT
BRANCH   2   3
HETATM    3  C   UNK A   0      -8.709   5.304  68.598  1.00  0.00    -0.093 A  
HETATM    4  C   UNK A   0      -7.124   6.352  67.229  1.00  0.00    -0.073 A  
HETATM    5  C   UNK A   0      -7.381   5.666  68.458  1.00  0.00    -0.076 A  
HETATM    6  S   UNK A   0      -9.536   5.551  67.115  1.00  0.00    -0.144 SA 
HETATM    7  C   UNK A   0      -8.251   6.440  66.437  1.00  0.00    -0.115 A  
BRANCH   7   8
HETATM    8  C   UNK A   0      -8.435   7.188  65.206  1.00  0.00    -0.051 C  
HETATM    9  O   UNK A   0      -8.160   6.743  64.096  1.00  0.00    -0.111 OA 
ATOM     10  N   GLU A   1      -8.906   8.482  65.370  1.00  0.00    -0.312 N  
ATOM     11  H   GLU A   1      -9.090   8.830  66.311  1.00  0.00     0.000 HD 
BRANCH  10  12
ATOM     12  CA  GLU A   1      -9.144   9.361  64.222  1.00  0.00    -0.106 C  
ATOM     13  C   GLU A   1      -7.848  10.111  63.862  1.00  0.00    -0.149 C  
ATOM     14  O   GLU A   1      -6.990  10.251  64.902  1.00  0.00    -0.136 OA 
ATOM     15  OXT GLU A   1      -7.657  10.665  62.788  1.00  0.00    -0.127 OA 
BRANCH  12  16
ATOM     16  CB  GLU A   1     -10.260  10.355  64.564  1.00  0.00    -0.281 C  
BRANCH  16  17
ATOM     17  CG  GLU A   1      -9.828  11.810  64.386  1.00  0.00    -0.227 C  
ATOM     18  CD  GLU A   1     -10.809  12.773  65.005  1.00  0.00    -0.292 C  
ATOM     19  OE2 GLU A   1     -12.002  12.561  65.124  1.00  0.00    -0.395 OA 
ATOM     20  OE1 GLU A   1     -10.229  13.932  65.389  1.00  0.00    -0.321 OA 
ENDBRANCH  16  17
ENDBRANCH  12  16
ENDBRANCH  10  12
ENDBRANCH   7   8
ENDBRANCH   2   3
BRANCH   2  21
HETATM   21  C   UNK A   0      -9.065   5.445  70.982  1.00  0.00    -0.143 C  
BRANCH  21  22
HETATM   22  C   UNK A   0      -9.936   6.663  71.207  1.00  0.00    -0.196 A  
HETATM   23  C   UNK A   0     -10.559   8.948  70.663  1.00  0.00    -0.277 A  
HETATM   24  C   UNK A   0     -11.587   8.917  71.605  1.00  0.00    -0.338 A  
HETATM   25  C   UNK A   0      -9.736   7.835  70.463  1.00  0.00    -0.175 A  
HETATM   26  H   UNK A   0     -11.174  12.098  69.505  1.00  0.00     0.000 HD 
HETATM   27  C   UNK A   0     -11.774   7.765  72.368  1.00  0.00    -0.394 A  
HETATM   28  C   UNK A   0     -13.136  12.302  71.114  1.00  0.00    -0.116 C  
HETATM   29  N   UNK A   0     -12.379  10.053  71.775  1.00  0.00    -0.384 NA 
HETATM   30  N   UNK A   0     -11.255  11.249  70.065  1.00  0.00    -0.470 N  
HETATM   31  C   UNK A   0     -10.959   6.646  72.164  1.00  0.00    -0.277 A  
HETATM   32  C   UNK A   0     -10.377  10.199  69.881  1.00  0.00    -0.261 C  
HETATM   33  O   UNK A   0      -9.441  10.254  69.089  1.00  0.00    -0.193 OA 
HETATM   34  C   UNK A   0     -12.185  11.137  70.961  1.00  0.00    -0.333 C  
ENDBRANCH  21  22
ENDBRANCH   2  21
TORSDOF 7
ENDMDL
MODEL      228
REMARK 921   NORMALIZED FREE ENERGY PREDICTED BY IDOCK:   -4.49 KCAL/MOL
REMARK 922        TOTAL FREE ENERGY PREDICTED BY IDOCK:   -7.46 KCAL/MOL
REMARK 923 INTER-LIGAND FREE ENERGY PREDICTED BY IDOCK:   -6.78 KCAL/MOL
REMARK 924 INTRA-LIGAND FREE ENERGY PREDICTED BY IDOCK:   -0.68 KCAL/MOL
REMARK 927      BINDING AFFINITY PREDICTED BY RF-SCORE:    0.00 PKD
ROOT
HETATM    1  C   UNK A   0      -7.091   9.769  64.045  1.00  0.00    -0.123 C  
HETATM    2  N   UNK A   0      -6.654   9.620  65.429  1.00  0.00    -0.077 NA 
ENDROOT
BRANCH   2   3
HETATM    3  C   UNK A   0      -7.355   8.771  66.245  1.00  0.00    -0.087 A  
HETATM    4  C   UNK A   0      -9.055   7.448  67.164  1.00  0.00    -0.146 A  
HETATM    5  C   UNK A   0      -8.511   8.056  65.988  1.00  0.00    -0.144 A  
HETATM    6  S   UNK A   0      -6.814   8.444  67.840  1.00  0.00    -0.067 SA 
HETATM    7  C   UNK A   0      -8.265   7.664  68.274  1.00  0.00    -0.125 A  
BRANCH   7   8
HETATM    8  C   UNK A   0      -8.551   7.351  69.663  1.00  0.00    -0.137 C  
HETATM    9  O   UNK A   0      -7.740   6.828  70.420  1.00  0.00    -0.096 OA 
ATOM     10  N   GLU A   1      -9.844   7.641  70.076  1.00  0.00    -0.180 N  
ATOM     11  H   GLU A   1     -10.502   8.043  69.408  1.00  0.00     0.000 HD 
BRANCH  10  12
ATOM     12  CA  GLU A   1     -10.283   7.383  71.450  1.00  0.00    -0.187 C  
ATOM     13  C   GLU A   1     -11.502   6.441  71.438  1.00  0.00    -0.308 C  
ATOM     14  O   GLU A   1     -12.219   6.488  70.288  1.00  0.00    -0.278 OA 
ATOM     15  OXT GLU A   1     -11.889   5.815  72.416  1.00  0.00    -0.293 OA 
BRANCH  12  16
ATOM     16  CB  GLU A   1     -10.640   8.711  72.128  1.00  0.00    -0.411 C  
BRANCH  16  17
ATOM     17  CG  GLU A   1     -11.300   9.702  71.171  1.00  0.00    -0.456 C  
ATOM     18  CD  GLU A   1     -12.663  10.132  71.651  1.00  0.00    -0.447 C  
ATOM     19  OE2 GLU A   1     -13.403   9.445  72.332  1.00  0.00    -0.452 OA 
ATOM     20  OE1 GLU A   1     -13.006  11.364  71.211  1.00  0.00    -0.385 OA 
ENDBRANCH  16  17
ENDBRANCH  12  16
ENDBRANCH  10  12
ENDBRANCH   7   8
ENDBRANCH   2   3
BRANCH   2  21
HETATM   21  C   UNK A   0      -6.133  10.846  66.065  1.00  0.00    -0.122 C  
BRANCH  21  22
HETATM   22  C   UNK A   0      -7.255  11.705  66.609  1.00  0.00    -0.025 A  
HETATM   23  C   UNK A   0      -8.045  13.471  68.080  1.00  0.00    -0.154 A  
HETATM   24  C   UNK A   0      -9.344  13.328  67.592  1.00  0.00    -0.212 A  
HETATM   25  C   UNK A   0      -7.006  12.668  67.599  1.00  0.00    -0.140 A  
HETATM   26  H   UNK A   0      -8.697  16.067  70.196  1.00  0.00     0.000 HD 
HETATM   27  C   UNK A   0      -9.604  12.354  66.629  1.00  0.00    -0.230 A  
HETATM   28  C   UNK A   0     -11.133  16.050  69.459  1.00  0.00    -0.333 C  
HETATM   29  N   UNK A   0     -10.350  14.147  68.106  1.00  0.00    -0.234 NA 
HETATM   30  N   UNK A   0      -8.851  15.321  69.517  1.00  0.00    -0.388 N  
HETATM   31  C   UNK A   0      -8.566  11.555  66.137  1.00  0.00    -0.094 A  
HETATM   32  C   UNK A   0      -7.809  14.507  69.120  1.00  0.00    -0.071 C  
HETATM   33  O   UNK A   0      -6.681  14.601  69.594  1.00  0.00    -0.143 OA 
HETATM   34  C   UNK A   0     -10.027  15.122  69.012  1.00  0.00    -0.239 C  
ENDBRANCH  21  22
ENDBRANCH   2  21
TORSDOF 7
ENDMDL
MODEL      229
REMARK 921   NORMALIZED FREE ENERGY PREDICTED BY IDOCK:   -4.49 KCAL/MOL
REMARK 922        TOTAL FREE ENERGY PREDICTED BY IDOCK:   -7.46 KCAL/MOL
REMARK 923 INTER-LIGAND FREE ENERGY PREDICTED BY IDOCK:   -6.66 KCAL/MOL
REMARK 924 INTRA-LIGAND FREE ENERGY PREDICTED BY IDOCK:   -0.79 KCAL/MOL
REMARK 927      BINDING AFFINITY PREDICTED BY RF-SCORE:    0.00 PKD
ROOT
HETATM    1  C   UNK A   0      -6.733  11.492  68.050  1.00  0.00    -0.059 C  
HETATM    2  N   UNK A   0      -8.189  11.405  68.004  1.00  0.00    -0.133 NA 
ENDROOT
BRANCH   2   3
HETATM    3  C   UNK A   0      -8.791  10.292  68.532  1.00  0.00    -0.127 A  
HETATM    4  C   UNK A   0      -9.378   8.533  69.961  1.00  0.00    -0.164 A  
HETATM    5  C   UNK A   0      -8.834   9.851  69.842  1.00  0.00    -0.222 A  
HETATM    6  S   UNK A   0      -9.672   9.216  67.528  1.00  0.00    -0.169 SA 
HETATM    7  C   UNK A   0      -9.793   8.029  68.745  1.00  0.00    -0.172 A  
BRANCH   7   8
HETATM    8  C   UNK A   0     -10.245   6.686  68.429  1.00  0.00    -0.171 C  
HETATM    9  O   UNK A   0     -11.063   6.071  69.104  1.00  0.00    -0.362 OA 
ATOM     10  N   GLU A   1      -9.644   6.110  67.319  1.00  0.00    -0.113 N  
ATOM     11  H   GLU A   1      -8.941   6.639  66.801  1.00  0.00     0.000 HD 
BRANCH  10  12
ATOM     12  CA  GLU A   1      -9.997   4.760  66.873  1.00  0.00    -0.217 C  
ATOM     13  C   GLU A   1      -9.177   3.720  67.659  1.00  0.00    -0.174 C  
ATOM     14  O   GLU A   1      -8.003   4.200  68.140  1.00  0.00    -0.080 OA 
ATOM     15  OXT GLU A   1      -9.466   2.533  67.727  1.00  0.00    -0.202 OA 
BRANCH  12  16
ATOM     16  CB  GLU A   1      -9.723   4.632  65.370  1.00  0.00    -0.174 C  
BRANCH  16  17
ATOM     17  CG  GLU A   1     -10.777   3.793  64.648  1.00  0.00    -0.078 C  
ATOM     18  CD  GLU A   1     -10.472   3.639  63.180  1.00  0.00    -0.224 C  
ATOM     19  OE2 GLU A   1      -9.863   4.455  62.512  1.00  0.00    -0.140 OA 
ATOM     20  OE1 GLU A   1     -10.981   2.500  62.658  1.00  0.00    -0.173 OA 
ENDBRANCH  16  17
ENDBRANCH  12  16
ENDBRANCH  10  12
ENDBRANCH   7   8
ENDBRANCH   2   3
BRANCH   2  21
HETATM   21  C   UNK A   0      -8.821  11.972  66.797  1.00  0.00    -0.198 C  
BRANCH  21  22
HETATM   22  C   UNK A   0      -9.416  13.336  67.074  1.00  0.00    -0.243 A  
HETATM   23  C   UNK A   0      -9.279  15.761  66.987  1.00  0.00    -0.233 A  
HETATM   24  C   UNK A   0     -10.547  15.876  67.559  1.00  0.00    -0.315 A  
HETATM   25  C   UNK A   0      -8.713  14.506  66.747  1.00  0.00    -0.214 A  
HETATM   26  H   UNK A   0      -8.729  19.101  66.560  1.00  0.00     0.000 HD 
HETATM   27  C   UNK A   0     -11.239  14.719  67.912  1.00  0.00    -0.318 A  
HETATM   28  C   UNK A   0     -11.023  19.600  67.545  1.00  0.00    -0.346 C  
HETATM   29  N   UNK A   0     -11.069  17.149  67.786  1.00  0.00    -0.180 NA 
HETATM   30  N   UNK A   0      -9.188  18.232  66.834  1.00  0.00    -0.275 N  
HETATM   31  C   UNK A   0     -10.680  13.460  67.664  1.00  0.00    -0.257 A  
HETATM   32  C   UNK A   0      -8.563  17.016  66.641  1.00  0.00    -0.252 C  
HETATM   33  O   UNK A   0      -7.425  16.925  66.188  1.00  0.00    -0.283 OA 
HETATM   34  C   UNK A   0     -10.368  18.250  67.370  1.00  0.00    -0.392 C  
ENDBRANCH  21  22
ENDBRANCH   2  21
TORSDOF 7
ENDMDL
MODEL      230
REMARK 921   NORMALIZED FREE ENERGY PREDICTED BY IDOCK:   -4.49 KCAL/MOL
REMARK 922        TOTAL FREE ENERGY PREDICTED BY IDOCK:   -7.46 KCAL/MOL
REMARK 923 INTER-LIGAND FREE ENERGY PREDICTED BY IDOCK:   -7.63 KCAL/MOL
REMARK 924 INTRA-LIGAND FREE ENERGY PREDICTED BY IDOCK:    0.17 KCAL/MOL
REMARK 927      BINDING AFFINITY PREDICTED BY RF-SCORE:    0.00 PKD
ROOT
HETATM    1  C   UNK A   0      -9.813  10.546  63.876  1.00  0.00    -0.310 C  
HETATM    2  N   UNK A   0      -9.474  10.085  65.219  1.00  0.00    -0.241 NA 
ENDROOT
BRANCH   2   3
HETATM    3  C   UNK A   0      -9.950  10.794  66.291  1.00  0.00    -0.222 A  
HETATM    4  C   UNK A   0     -11.232  11.480  68.127  1.00  0.00    -0.335 A  
HETATM    5  C   UNK A   0     -10.792  10.389  67.310  1.00  0.00    -0.324 A  
HETATM    6  S   UNK A   0      -9.494  12.430  66.530  1.00  0.00    -0.238 SA 
HETATM    7  C   UNK A   0     -10.663  12.678  67.744  1.00  0.00    -0.220 A  
BRANCH   7   8
HETATM    8  C   UNK A   0     -10.972  14.017  68.214  1.00  0.00    -0.255 C  
HETATM    9  O   UNK A   0     -11.766  14.764  67.653  1.00  0.00    -0.349 OA 
ATOM     10  N   GLU A   1     -10.262  14.424  69.334  1.00  0.00    -0.424 N  
ATOM     11  H   GLU A   1      -9.584  13.788  69.754  1.00  0.00     0.000 HD 
BRANCH  10  12
ATOM     12  CA  GLU A   1     -10.465  15.748  69.928  1.00  0.00    -0.320 C  
ATOM     13  C   GLU A   1     -11.566  15.675  71.002  1.00  0.00    -0.392 C  
ATOM     14  O   GLU A   1     -12.446  14.660  70.815  1.00  0.00    -0.299 OA 
ATOM     15  OXT GLU A   1     -11.737  16.527  71.863  1.00  0.00    -0.458 OA 
BRANCH  12  16
ATOM     16  CB  GLU A   1     -10.855  16.744  68.829  1.00  0.00    -0.318 C  
BRANCH  16  17
ATOM     17  CG  GLU A   1      -9.928  17.959  68.780  1.00  0.00    -0.377 C  
ATOM     18  CD  GLU A   1      -9.403  18.216  67.391  1.00  0.00    -0.254 C  
ATOM     19  OE2 GLU A   1      -9.229  17.354  66.549  1.00  0.00    -0.253 OA 
ATOM     20  OE1 GLU A   1      -9.104  19.517  67.179  1.00  0.00    -0.293 OA 
ENDBRANCH  16  17
ENDBRANCH  12  16
ENDBRANCH  10  12
ENDBRANCH   7   8
ENDBRANCH   2   3
BRANCH   2  21
HETATM   21  C   UNK A   0      -8.120   9.515  65.369  1.00  0.00    -0.125 C  
BRANCH  21  22
HETATM   22  C   UNK A   0      -8.115   8.358  66.346  1.00  0.00    -0.104 A  
HETATM   23  C   UNK A   0      -8.879   6.150  67.015  1.00  0.00    -0.110 A  
HETATM   24  C   UNK A   0      -8.071   6.189  68.151  1.00  0.00    -0.111 A  
HETATM   25  C   UNK A   0      -8.907   7.223  66.118  1.00  0.00    -0.181 A  
HETATM   26  H   UNK A   0     -10.111   3.007  67.508  1.00  0.00     0.000 HD 
HETATM   27  C   UNK A   0      -7.302   7.325  68.398  1.00  0.00    -0.103 A  
HETATM   28  C   UNK A   0      -8.708   2.793  69.621  1.00  0.00    -0.131 C  
HETATM   29  N   UNK A   0      -8.080   5.098  69.020  1.00  0.00    -0.084 NA 
HETATM   30  N   UNK A   0      -9.590   3.869  67.669  1.00  0.00    -0.179 N  
HETATM   31  C   UNK A   0      -7.319   8.397  67.498  1.00  0.00    -0.093 A  
HETATM   32  C   UNK A   0      -9.700   4.931  66.793  1.00  0.00    -0.181 C  
HETATM   33  O   UNK A   0     -10.455   4.911  65.826  1.00  0.00    -0.235 OA 
HETATM   34  C   UNK A   0      -8.814   3.987  68.700  1.00  0.00    -0.106 C  
ENDBRANCH  21  22
ENDBRANCH   2  21
TORSDOF 7
ENDMDL
MODEL      231
REMARK 921   NORMALIZED FREE ENERGY PREDICTED BY IDOCK:   -4.48 KCAL/MOL
REMARK 922        TOTAL FREE ENERGY PREDICTED BY IDOCK:   -7.45 KCAL/MOL
REMARK 923 INTER-LIGAND FREE ENERGY PREDICTED BY IDOCK:   -6.72 KCAL/MOL
REMARK 924 INTRA-LIGAND FREE ENERGY PREDICTED BY IDOCK:   -0.72 KCAL/MOL
REMARK 927      BINDING AFFINITY PREDICTED BY RF-SCORE:    0.00 PKD
ROOT
HETATM    1  C   UNK A   0     -12.105  15.577  68.570  1.00  0.00    -0.024 C  
HETATM    2  N   UNK A   0     -11.779  14.533  67.603  1.00  0.00    -0.373 NA 
ENDROOT
BRANCH   2   3
HETATM    3  C   UNK A   0     -11.147  13.403  68.053  1.00  0.00    -0.255 A  
HETATM    4  C   UNK A   0      -9.552  11.936  68.943  1.00  0.00     0.068 A  
HETATM    5  C   UNK A   0     -10.041  13.280  68.874  1.00  0.00     0.012 A  
HETATM    6  S   UNK A   0     -11.726  11.847  67.623  1.00  0.00    -0.211 SA 
HETATM    7  C   UNK A   0     -10.337  11.061  68.220  1.00  0.00    -0.178 A  
BRANCH   7   8
HETATM    8  C   UNK A   0     -10.088   9.663  67.915  1.00  0.00    -0.181 C  
HETATM    9  O   UNK A   0     -10.547   9.092  66.932  1.00  0.00    -0.248 OA 
ATOM     10  N   GLU A   1      -9.321   8.986  68.853  1.00  0.00    -0.143 N  
ATOM     11  H   GLU A   1      -8.986   9.485  69.677  1.00  0.00     0.000 HD 
BRANCH  10  12
ATOM     12  CA  GLU A   1      -8.982   7.570  68.685  1.00  0.00    -0.132 C  
ATOM     13  C   GLU A   1     -10.038   6.695  69.387  1.00  0.00    -0.173 C  
ATOM     14  O   GLU A   1     -10.681   7.322  70.402  1.00  0.00    -0.225 OA 
ATOM     15  OXT GLU A   1     -10.192   5.502  69.163  1.00  0.00    -0.197 OA 
BRANCH  12  16
ATOM     16  CB  GLU A   1      -7.591   7.307  69.273  1.00  0.00    -0.102 C  
BRANCH  16  17
ATOM     17  CG  GLU A   1      -6.962   8.560  69.882  1.00  0.00    -0.043 C  
ATOM     18  CD  GLU A   1      -6.829   8.458  71.379  1.00  0.00    -0.069 C  
ATOM     19  OE2 GLU A   1      -7.569   7.809  72.095  1.00  0.00    -0.073 OA 
ATOM     20  OE1 GLU A   1      -5.809   9.202  71.864  1.00  0.00    -0.073 OA 
ENDBRANCH  16  17
ENDBRANCH  12  16
ENDBRANCH  10  12
ENDBRANCH   7   8
ENDBRANCH   2   3
BRANCH   2  21
HETATM   21  C   UNK A   0     -11.376  15.011  66.266  1.00  0.00    -0.273 C  
BRANCH  21  22
HETATM   22  C   UNK A   0     -10.296  16.067  66.360  1.00  0.00    -0.312 A  
HETATM   23  C   UNK A   0      -9.610  18.359  66.788  1.00  0.00    -0.308 A  
HETATM   24  C   UNK A   0      -8.273  18.024  66.570  1.00  0.00    -0.271 A  
HETATM   25  C   UNK A   0     -10.617  17.395  66.683  1.00  0.00    -0.182 A  
HETATM   26  H   UNK A   0      -9.076  21.634  67.584  1.00  0.00     0.000 HD 
HETATM   27  C   UNK A   0      -7.950  16.714  66.221  1.00  0.00    -0.340 A  
HETATM   28  C   UNK A   0      -6.571  21.294  67.283  1.00  0.00    -0.403 C  
HETATM   29  N   UNK A   0      -7.303  19.021  66.680  1.00  0.00    -0.217 NA 
HETATM   30  N   UNK A   0      -8.886  20.673  67.298  1.00  0.00    -0.500 N  
HETATM   31  C   UNK A   0      -8.954  15.743  66.124  1.00  0.00    -0.372 A  
HETATM   32  C   UNK A   0      -9.919  19.770  67.140  1.00  0.00    -0.409 C  
HETATM   33  O   UNK A   0     -11.097  20.085  67.280  1.00  0.00    -0.197 OA 
HETATM   34  C   UNK A   0      -7.672  20.279  67.078  1.00  0.00    -0.321 C  
ENDBRANCH  21  22
ENDBRANCH   2  21
TORSDOF 7
ENDMDL
MODEL      232
REMARK 921   NORMALIZED FREE ENERGY PREDICTED BY IDOCK:   -4.48 KCAL/MOL
REMARK 922        TOTAL FREE ENERGY PREDICTED BY IDOCK:   -7.44 KCAL/MOL
REMARK 923 INTER-LIGAND FREE ENERGY PREDICTED BY IDOCK:   -7.11 KCAL/MOL
REMARK 924 INTRA-LIGAND FREE ENERGY PREDICTED BY IDOCK:   -0.33 KCAL/MOL
REMARK 927      BINDING AFFINITY PREDICTED BY RF-SCORE:    0.00 PKD
ROOT
HETATM    1  C   UNK A   0      -7.726  11.428  67.218  1.00  0.00    -0.145 C  
HETATM    2  N   UNK A   0      -9.167  11.247  67.073  1.00  0.00    -0.163 NA 
ENDROOT
BRANCH   2   3
HETATM    3  C   UNK A   0      -9.680   9.983  67.198  1.00  0.00    -0.174 A  
HETATM    4  C   UNK A   0     -10.597   8.019  68.085  1.00  0.00    -0.174 A  
HETATM    5  C   UNK A   0     -10.432   9.434  68.221  1.00  0.00    -0.260 A  
HETATM    6  S   UNK A   0      -9.444   8.817  65.962  1.00  0.00    -0.206 SA 
HETATM    7  C   UNK A   0     -10.018   7.537  66.928  1.00  0.00    -0.248 A  
BRANCH   7   8
HETATM    8  C   UNK A   0      -9.835   6.156  66.516  1.00  0.00    -0.133 C  
HETATM    9  O   UNK A   0     -10.725   5.314  66.556  1.00  0.00    -0.301 OA 
ATOM     10  N   GLU A   1      -8.548   5.831  66.111  1.00  0.00    -0.129 N  
ATOM     11  H   GLU A   1      -7.824   6.549  66.124  1.00  0.00     0.000 HD 
BRANCH  10  12
ATOM     12  CA  GLU A   1      -8.207   4.477  65.665  1.00  0.00    -0.110 C  
ATOM     13  C   GLU A   1      -6.929   4.000  66.379  1.00  0.00    -0.059 C  
ATOM     14  O   GLU A   1      -6.124   5.009  66.793  1.00  0.00    -0.029 OA 
ATOM     15  OXT GLU A   1      -6.582   2.828  66.445  1.00  0.00    -0.034 OA 
BRANCH  12  16
ATOM     16  CB  GLU A   1      -8.002   4.479  64.145  1.00  0.00    -0.093 C  
BRANCH  16  17
ATOM     17  CG  GLU A   1      -9.296   4.214  63.376  1.00  0.00    -0.143 C  
ATOM     18  CD  GLU A   1      -9.872   2.856  63.686  1.00  0.00    -0.138 C  
ATOM     19  OE2 GLU A   1      -9.214   1.885  64.011  1.00  0.00    -0.104 OA 
ATOM     20  OE1 GLU A   1     -11.215   2.811  63.530  1.00  0.00    -0.299 OA 
ENDBRANCH  16  17
ENDBRANCH  12  16
ENDBRANCH  10  12
ENDBRANCH   7   8
ENDBRANCH   2   3
BRANCH   2  21
HETATM   21  C   UNK A   0      -9.817  12.114  66.070  1.00  0.00    -0.243 C  
BRANCH  21  22
HETATM   22  C   UNK A   0      -9.818  13.562  66.511  1.00  0.00    -0.292 A  
HETATM   23  C   UNK A   0     -10.378  15.894  66.113  1.00  0.00    -0.341 A  
HETATM   24  C   UNK A   0      -9.853  16.255  67.354  1.00  0.00    -0.242 A  
HETATM   25  C   UNK A   0     -10.362  14.561  65.689  1.00  0.00    -0.367 A  
HETATM   26  H   UNK A   0     -11.448  19.005  65.210  1.00  0.00     0.000 HD 
HETATM   27  C   UNK A   0      -9.286  15.272  68.164  1.00  0.00    -0.183 A  
HETATM   28  C   UNK A   0     -10.603  19.934  67.425  1.00  0.00    -0.505 C  
HETATM   29  N   UNK A   0      -9.885  17.597  67.733  1.00  0.00    -0.282 NA 
HETATM   30  N   UNK A   0     -11.013  18.262  65.757  1.00  0.00     0.026 N  
HETATM   31  C   UNK A   0      -9.276  13.936  67.747  1.00  0.00    -0.197 A  
HETATM   32  C   UNK A   0     -10.958  16.971  65.269  1.00  0.00    -0.006 C  
HETATM   33  O   UNK A   0     -11.372  16.670  64.153  1.00  0.00    -1.141 OA 
HETATM   34  C   UNK A   0     -10.503  18.512  66.921  1.00  0.00    -0.396 C  
ENDBRANCH  21  22
ENDBRANCH   2  21
TORSDOF 7
ENDMDL
MODEL      233
REMARK 921   NORMALIZED FREE ENERGY PREDICTED BY IDOCK:   -4.46 KCAL/MOL
REMARK 922        TOTAL FREE ENERGY PREDICTED BY IDOCK:   -7.42 KCAL/MOL
REMARK 923 INTER-LIGAND FREE ENERGY PREDICTED BY IDOCK:   -6.28 KCAL/MOL
REMARK 924 INTRA-LIGAND FREE ENERGY PREDICTED BY IDOCK:   -1.14 KCAL/MOL
REMARK 927      BINDING AFFINITY PREDICTED BY RF-SCORE:    0.00 PKD
ROOT
HETATM    1  C   UNK A   0      -9.291   8.101  73.053  1.00  0.00    -0.265 C  
HETATM    2  N   UNK A   0      -9.440   7.691  71.660  1.00  0.00    -0.145 NA 
ENDROOT
BRANCH   2   3
HETATM    3  C   UNK A   0      -8.458   8.040  70.770  1.00  0.00    -0.124 A  
HETATM    4  C   UNK A   0      -6.926   9.276  69.502  1.00  0.00    -0.052 A  
HETATM    5  C   UNK A   0      -7.699   9.194  70.704  1.00  0.00    -0.152 A  
HETATM    6  S   UNK A   0      -7.993   6.966  69.516  1.00  0.00    -0.127 SA 
HETATM    7  C   UNK A   0      -7.071   8.152  68.713  1.00  0.00    -0.071 A  
BRANCH   7   8
HETATM    8  C   UNK A   0      -6.584   7.926  67.364  1.00  0.00    -0.057 C  
HETATM    9  O   UNK A   0      -5.450   8.214  66.996  1.00  0.00    -0.035 OA 
ATOM     10  N   GLU A   1      -7.518   7.398  66.484  1.00  0.00    -0.083 N  
ATOM     11  H   GLU A   1      -8.463   7.205  66.816  1.00  0.00     0.000 HD 
BRANCH  10  12
ATOM     12  CA  GLU A   1      -7.177   7.113  65.087  1.00  0.00    -0.073 C  
ATOM     13  C   GLU A   1      -7.558   8.313  64.202  1.00  0.00    -0.127 C  
ATOM     14  O   GLU A   1      -8.552   9.079  64.716  1.00  0.00    -0.173 OA 
ATOM     15  OXT GLU A   1      -7.124   8.492  63.072  1.00  0.00    -0.090 OA 
BRANCH  12  16
ATOM     16  CB  GLU A   1      -7.920   5.852  64.629  1.00  0.00    -0.123 C  
BRANCH  16  17
ATOM     17  CG  GLU A   1      -8.041   4.805  65.736  1.00  0.00    -0.111 C  
ATOM     18  CD  GLU A   1      -9.420   4.776  66.342  1.00  0.00    -0.158 C  
ATOM     19  OE2 GLU A   1     -10.165   5.737  66.407  1.00  0.00    -0.180 OA 
ATOM     20  OE1 GLU A   1      -9.742   3.564  66.849  1.00  0.00    -0.173 OA 
ENDBRANCH  16  17
ENDBRANCH  12  16
ENDBRANCH  10  12
ENDBRANCH   7   8
ENDBRANCH   2   3
BRANCH   2  21
HETATM   21  C   UNK A   0     -10.822   7.706  71.140  1.00  0.00    -0.235 C  
BRANCH  21  22
HETATM   22  C   UNK A   0     -11.008   8.790  70.101  1.00  0.00    -0.236 A  
HETATM   23  C   UNK A   0     -11.563  11.081  69.509  1.00  0.00    -0.384 A  
HETATM   24  C   UNK A   0     -11.317  10.818  68.162  1.00  0.00    -0.308 A  
HETATM   25  C   UNK A   0     -11.414  10.080  70.474  1.00  0.00    -0.407 A  
HETATM   26  H   UNK A   0     -12.293  14.394  69.141  1.00  0.00     0.000 HD 
HETATM   27  C   UNK A   0     -10.939   9.531  67.779  1.00  0.00    -0.165 A  
HETATM   28  C   UNK A   0     -11.872  14.204  66.638  1.00  0.00    -0.447 C  
HETATM   29  N   UNK A   0     -11.484  11.846  67.234  1.00  0.00    -0.415 NA 
HETATM   30  N   UNK A   0     -12.051  13.433  68.900  1.00  0.00    -0.309 N  
HETATM   31  C   UNK A   0     -10.780   8.529  68.743  1.00  0.00    -0.089 A  
HETATM   32  C   UNK A   0     -11.982  12.459  69.877  1.00  0.00    -0.299 C  
HETATM   33  O   UNK A   0     -12.254  12.685  71.053  1.00  0.00    -0.304 OA 
HETATM   34  C   UNK A   0     -11.804  13.103  67.672  1.00  0.00    -0.359 C  
ENDBRANCH  21  22
ENDBRANCH   2  21
TORSDOF 7
ENDMDL
MODEL      234
REMARK 921   NORMALIZED FREE ENERGY PREDICTED BY IDOCK:   -4.46 KCAL/MOL
REMARK 922        TOTAL FREE ENERGY PREDICTED BY IDOCK:   -7.41 KCAL/MOL
REMARK 923 INTER-LIGAND FREE ENERGY PREDICTED BY IDOCK:   -7.60 KCAL/MOL
REMARK 924 INTRA-LIGAND FREE ENERGY PREDICTED BY IDOCK:    0.19 KCAL/MOL
REMARK 927      BINDING AFFINITY PREDICTED BY RF-SCORE:    0.00 PKD
ROOT
HETATM    1  C   UNK A   0     -12.569  14.542  66.235  1.00  0.00     0.023 C  
HETATM    2  N   UNK A   0     -12.013  14.286  67.561  1.00  0.00    -0.500 NA 
ENDROOT
BRANCH   2   3
HETATM    3  C   UNK A   0     -11.170  15.220  68.105  1.00  0.00    -0.324 A  
HETATM    4  C   UNK A   0     -10.317  17.205  69.008  1.00  0.00    -0.331 A  
HETATM    5  C   UNK A   0     -11.470  16.387  68.783  1.00  0.00    -0.222 A  
HETATM    6  S   UNK A   0      -9.469  15.020  68.017  1.00  0.00    -0.195 SA 
HETATM    7  C   UNK A   0      -9.160  16.609  68.548  1.00  0.00    -0.234 A  
BRANCH   7   8
HETATM    8  C   UNK A   0      -7.827  17.178  68.449  1.00  0.00    -0.244 C  
HETATM    9  O   UNK A   0      -6.891  16.616  67.892  1.00  0.00    -0.136 OA 
ATOM     10  N   GLU A   1      -7.664  18.403  69.080  1.00  0.00    -0.203 N  
ATOM     11  H   GLU A   1      -8.457  18.825  69.564  1.00  0.00     0.000 HD 
BRANCH  10  12
ATOM     12  CA  GLU A   1      -6.377  19.105  69.066  1.00  0.00    -0.268 C  
ATOM     13  C   GLU A   1      -6.216  19.923  70.360  1.00  0.00    -0.295 C  
ATOM     14  O   GLU A   1      -7.392  20.273  70.936  1.00  0.00     0.229 OA 
ATOM     15  OXT GLU A   1      -5.145  20.354  70.765  1.00  0.00    -0.222 OA 
BRANCH  12  16
ATOM     16  CB  GLU A   1      -6.312  20.023  67.840  1.00  0.00    -0.269 C  
BRANCH  16  17
ATOM     17  CG  GLU A   1      -7.693  20.337  67.264  1.00  0.00    -0.357 C  
ATOM     18  CD  GLU A   1      -7.940  19.624  65.960  1.00  0.00    -0.328 C  
ATOM     19  OE2 GLU A   1      -7.069  19.313  65.168  1.00  0.00    -0.433 OA 
ATOM     20  OE1 GLU A   1      -9.252  19.390  65.734  1.00  0.00    -0.379 OA 
ENDBRANCH  16  17
ENDBRANCH  12  16
ENDBRANCH  10  12
ENDBRANCH   7   8
ENDBRANCH   2   3
BRANCH   2  21
HETATM   21  C   UNK A   0     -11.689  12.875  67.851  1.00  0.00    -0.357 C  
BRANCH  21  22
HETATM   22  C   UNK A   0     -10.990  12.218  66.681  1.00  0.00    -0.321 A  
HETATM   23  C   UNK A   0      -9.027  11.161  65.711  1.00  0.00    -0.207 A  
HETATM   24  C   UNK A   0      -9.702  10.958  64.507  1.00  0.00    -0.282 A  
HETATM   25  C   UNK A   0      -9.659  11.786  66.790  1.00  0.00    -0.212 A  
HETATM   26  H   UNK A   0      -6.114   9.639  64.795  1.00  0.00     0.000 HD 
HETATM   27  C   UNK A   0     -11.016  11.409  64.381  1.00  0.00    -0.371 A  
HETATM   28  C   UNK A   0      -7.114   9.106  62.516  1.00  0.00    -0.097 C  
HETATM   29  N   UNK A   0      -9.030  10.336  63.455  1.00  0.00    -0.218 NA 
HETATM   30  N   UNK A   0      -7.061  10.013  64.734  1.00  0.00    -0.133 N  
HETATM   31  C   UNK A   0     -11.655  12.027  65.463  1.00  0.00    -0.352 A  
HETATM   32  C   UNK A   0      -7.622  10.684  65.802  1.00  0.00    -0.120 C  
HETATM   33  O   UNK A   0      -7.003  10.908  66.838  1.00  0.00    -0.103 OA 
HETATM   34  C   UNK A   0      -7.759   9.865  63.652  1.00  0.00    -0.141 C  
ENDBRANCH  21  22
ENDBRANCH   2  21
TORSDOF 7
ENDMDL
MODEL      235
REMARK 921   NORMALIZED FREE ENERGY PREDICTED BY IDOCK:   -4.41 KCAL/MOL
REMARK 922        TOTAL FREE ENERGY PREDICTED BY IDOCK:   -7.35 KCAL/MOL
REMARK 923 INTER-LIGAND FREE ENERGY PREDICTED BY IDOCK:   -7.24 KCAL/MOL
REMARK 924 INTRA-LIGAND FREE ENERGY PREDICTED BY IDOCK:   -0.11 KCAL/MOL
REMARK 927      BINDING AFFINITY PREDICTED BY RF-SCORE:    0.00 PKD
ROOT
HETATM    1  C   UNK A   0      -8.895  10.358  65.555  1.00  0.00    -0.176 C  
HETATM    2  N   UNK A   0     -10.107  10.172  66.347  1.00  0.00    -0.231 NA 
ENDROOT
BRANCH   2   3
HETATM    3  C   UNK A   0     -10.595  11.242  67.051  1.00  0.00    -0.246 A  
HETATM    4  C   UNK A   0     -12.015  12.681  68.233  1.00  0.00    -0.271 A  
HETATM    5  C   UNK A   0     -11.728  11.335  67.838  1.00  0.00    -0.289 A  
HETATM    6  S   UNK A   0      -9.761  12.740  67.055  1.00  0.00    -0.230 SA 
HETATM    7  C   UNK A   0     -11.057  13.569  67.786  1.00  0.00    -0.268 A  
BRANCH   7   8
HETATM    8  C   UNK A   0     -11.073  15.020  67.843  1.00  0.00    -0.307 C  
HETATM    9  O   UNK A   0     -11.970  15.666  68.374  1.00  0.00    -0.283 OA 
ATOM     10  N   GLU A   1     -10.012  15.644  67.203  1.00  0.00    -0.237 N  
ATOM     11  H   GLU A   1      -9.303  15.074  66.741  1.00  0.00     0.000 HD 
BRANCH  10  12
ATOM     12  CA  GLU A   1      -9.888  17.104  67.175  1.00  0.00    -0.271 C  
ATOM     13  C   GLU A   1     -10.464  17.651  65.856  1.00  0.00    -0.246 C  
ATOM     14  O   GLU A   1     -10.445  16.756  64.838  1.00  0.00    -0.652 OA 
ATOM     15  OXT GLU A   1     -10.776  18.821  65.682  1.00  0.00    -0.543 OA 
BRANCH  12  16
ATOM     16  CB  GLU A   1      -8.411  17.491  67.316  1.00  0.00    -0.224 C  
BRANCH  16  17
ATOM     17  CG  GLU A   1      -7.696  17.585  65.969  1.00  0.00    -0.237 C  
ATOM     18  CD  GLU A   1      -6.613  18.633  65.973  1.00  0.00    -0.241 C  
ATOM     19  OE2 GLU A   1      -6.627  19.637  66.662  1.00  0.00    -0.189 OA 
ATOM     20  OE1 GLU A   1      -5.622  18.363  65.093  1.00  0.00    -0.187 OA 
ENDBRANCH  16  17
ENDBRANCH  12  16
ENDBRANCH  10  12
ENDBRANCH   7   8
ENDBRANCH   2   3
BRANCH   2  21
HETATM   21  C   UNK A   0     -10.244   8.853  66.996  1.00  0.00    -0.275 C  
BRANCH  21  22
HETATM   22  C   UNK A   0      -9.544   8.823  68.337  1.00  0.00    -0.157 A  
HETATM   23  C   UNK A   0      -7.544   8.472  69.673  1.00  0.00    -0.088 A  
HETATM   24  C   UNK A   0      -8.235   8.804  70.838  1.00  0.00    -0.161 A  
HETATM   25  C   UNK A   0      -8.187   8.477  68.432  1.00  0.00    -0.123 A  
HETATM   26  H   UNK A   0      -4.498   8.002  71.137  1.00  0.00     0.000 HD 
HETATM   27  C   UNK A   0      -9.591   9.121  70.756  1.00  0.00    -0.338 A  
HETATM   28  C   UNK A   0      -5.498   8.602  73.400  1.00  0.00    -0.086 C  
HETATM   29  N   UNK A   0      -7.554   8.780  72.055  1.00  0.00    -0.320 NA 
HETATM   30  N   UNK A   0      -5.495   8.195  71.038  1.00  0.00    -0.029 N  
HETATM   31  C   UNK A   0     -10.236   9.137  69.514  1.00  0.00    -0.208 A  
HETATM   32  C   UNK A   0      -6.105   8.122  69.801  1.00  0.00    -0.029 C  
HETATM   33  O   UNK A   0      -5.503   7.775  68.789  1.00  0.00    -0.025 OA 
HETATM   34  C   UNK A   0      -6.211   8.513  72.070  1.00  0.00    -0.069 C  
ENDBRANCH  21  22
ENDBRANCH   2  21
TORSDOF 7
ENDMDL
MODEL      236
REMARK 921   NORMALIZED FREE ENERGY PREDICTED BY IDOCK:   -4.41 KCAL/MOL
REMARK 922        TOTAL FREE ENERGY PREDICTED BY IDOCK:   -7.35 KCAL/MOL
REMARK 923 INTER-LIGAND FREE ENERGY PREDICTED BY IDOCK:   -5.26 KCAL/MOL
REMARK 924 INTRA-LIGAND FREE ENERGY PREDICTED BY IDOCK:   -2.09 KCAL/MOL
REMARK 927      BINDING AFFINITY PREDICTED BY RF-SCORE:    0.00 PKD
ROOT
HETATM    1  C   UNK A   0      -5.585  17.673  66.455  1.00  0.00    -0.204 C  
HETATM    2  N   UNK A   0      -6.081  16.543  67.234  1.00  0.00    -0.158 NA 
ENDROOT
BRANCH   2   3
HETATM    3  C   UNK A   0      -7.412  16.511  67.560  1.00  0.00    -0.147 A  
HETATM    4  C   UNK A   0      -9.447  16.800  68.682  1.00  0.00    -0.255 A  
HETATM    5  C   UNK A   0      -8.114  17.277  68.472  1.00  0.00    -0.262 A  
HETATM    6  S   UNK A   0      -8.478  15.418  66.778  1.00  0.00    -0.255 SA 
HETATM    7  C   UNK A   0      -9.745  15.719  67.877  1.00  0.00    -0.216 A  
BRANCH   7   8
HETATM    8  C   UNK A   0     -10.919  14.866  67.906  1.00  0.00    -0.286 C  
HETATM    9  O   UNK A   0     -12.031  15.256  68.246  1.00  0.00    -0.297 OA 
ATOM     10  N   GLU A   1     -10.691  13.540  67.565  1.00  0.00    -0.257 N  
ATOM     11  H   GLU A   1      -9.746  13.243  67.322  1.00  0.00     0.000 HD 
BRANCH  10  12
ATOM     12  CA  GLU A   1     -11.778  12.557  67.547  1.00  0.00    -0.374 C  
ATOM     13  C   GLU A   1     -11.718  11.690  68.818  1.00  0.00    -0.330 C  
ATOM     14  O   GLU A   1     -10.481  11.611  69.368  1.00  0.00    -0.069 OA 
ATOM     15  OXT GLU A   1     -12.650  11.010  69.224  1.00  0.00    -0.361 OA 
BRANCH  12  16
ATOM     16  CB  GLU A   1     -11.651  11.682  66.295  1.00  0.00    -0.120 C  
BRANCH  16  17
ATOM     17  CG  GLU A   1     -10.509  12.123  65.380  1.00  0.00    -0.305 C  
ATOM     18  CD  GLU A   1      -9.356  11.152  65.402  1.00  0.00    -0.219 C  
ATOM     19  OE2 GLU A   1      -9.062  10.451  66.353  1.00  0.00    -0.152 OA 
ATOM     20  OE1 GLU A   1      -8.644  11.162  64.252  1.00  0.00     0.064 OA 
ENDBRANCH  16  17
ENDBRANCH  12  16
ENDBRANCH  10  12
ENDBRANCH   7   8
ENDBRANCH   2   3
BRANCH   2  21
HETATM   21  C   UNK A   0      -5.152  16.020  68.255  1.00  0.00    -0.104 C  
BRANCH  21  22
HETATM   22  C   UNK A   0      -5.464  14.580  68.601  1.00  0.00    -0.094 A  
HETATM   23  C   UNK A   0      -5.706  12.252  67.946  1.00  0.00    -0.079 A  
HETATM   24  C   UNK A   0      -6.011  11.891  69.258  1.00  0.00    -0.079 A  
HETATM   25  C   UNK A   0      -5.437  13.583  67.613  1.00  0.00    -0.012 A  
HETATM   26  H   UNK A   0      -5.817   9.106  66.630  1.00  0.00     0.000 HD 
HETATM   27  C   UNK A   0      -6.068  12.880  70.239  1.00  0.00    -0.068 A  
HETATM   28  C   UNK A   0      -6.355   8.166  68.933  1.00  0.00    -0.040 C  
HETATM   29  N   UNK A   0      -6.279  10.552  69.542  1.00  0.00    -0.048 NA 
HETATM   30  N   UNK A   0      -5.880   9.864  67.309  1.00  0.00    -0.050 N  
HETATM   31  C   UNK A   0      -5.789  14.212  69.913  1.00  0.00    -0.124 A  
HETATM   32  C   UNK A   0      -5.673  11.174  66.923  1.00  0.00    -0.090 C  
HETATM   33  O   UNK A   0      -5.460  11.491  65.757  1.00  0.00    -0.221 OA 
HETATM   34  C   UNK A   0      -6.156   9.615  68.550  1.00  0.00    -0.043 C  
ENDBRANCH  21  22
ENDBRANCH   2  21
TORSDOF 7
ENDMDL
MODEL      237
REMARK 921   NORMALIZED FREE ENERGY PREDICTED BY IDOCK:   -4.38 KCAL/MOL
REMARK 922        TOTAL FREE ENERGY PREDICTED BY IDOCK:   -7.30 KCAL/MOL
REMARK 923 INTER-LIGAND FREE ENERGY PREDICTED BY IDOCK:   -6.27 KCAL/MOL
REMARK 924 INTRA-LIGAND FREE ENERGY PREDICTED BY IDOCK:   -1.03 KCAL/MOL
REMARK 927      BINDING AFFINITY PREDICTED BY RF-SCORE:    0.00 PKD
ROOT
HETATM    1  C   UNK A   0      -5.802  12.167  69.667  1.00  0.00    -0.107 C  
HETATM    2  N   UNK A   0      -6.690  12.657  68.617  1.00  0.00    -0.082 NA 
ENDROOT
BRANCH   2   3
HETATM    3  C   UNK A   0      -7.556  11.771  68.031  1.00  0.00    -0.116 A  
HETATM    4  C   UNK A   0      -9.458  10.496  67.539  1.00  0.00    -0.166 A  
HETATM    5  C   UNK A   0      -8.934  11.691  68.126  1.00  0.00    -0.182 A  
HETATM    6  S   UNK A   0      -6.975  10.541  66.986  1.00  0.00    -0.094 SA 
HETATM    7  C   UNK A   0      -8.471   9.726  66.957  1.00  0.00    -0.117 A  
BRANCH   7   8
HETATM    8  C   UNK A   0      -8.575   8.386  66.407  1.00  0.00    -0.127 C  
HETATM    9  O   UNK A   0      -8.480   8.137  65.210  1.00  0.00    -0.157 OA 
ATOM     10  N   GLU A   1      -8.843   7.390  67.335  1.00  0.00    -0.123 N  
ATOM     11  H   GLU A   1      -8.950   7.640  68.318  1.00  0.00     0.000 HD 
BRANCH  10  12
ATOM     12  CA  GLU A   1      -8.975   5.987  66.934  1.00  0.00    -0.117 C  
ATOM     13  C   GLU A   1     -10.432   5.696  66.529  1.00  0.00    -0.249 C  
ATOM     14  O   GLU A   1     -11.336   6.525  67.106  1.00  0.00    -0.333 OA 
ATOM     15  OXT GLU A   1     -10.776   4.722  65.872  1.00  0.00    -0.318 OA 
BRANCH  12  16
ATOM     16  CB  GLU A   1      -8.551   5.083  68.097  1.00  0.00    -0.102 C  
BRANCH  16  17
ATOM     17  CG  GLU A   1      -7.623   3.952  67.656  1.00  0.00    -0.068 C  
ATOM     18  CD  GLU A   1      -8.364   2.655  67.455  1.00  0.00    -0.084 C  
ATOM     19  OE2 GLU A   1      -9.374   2.338  68.056  1.00  0.00    -0.192 OA 
ATOM     20  OE1 GLU A   1      -7.765   1.846  66.552  1.00  0.00    -0.065 OA 
ENDBRANCH  16  17
ENDBRANCH  12  16
ENDBRANCH  10  12
ENDBRANCH   7   8
ENDBRANCH   2   3
BRANCH   2  21
HETATM   21  C   UNK A   0      -6.114  13.684  67.727  1.00  0.00    -0.136 C  
BRANCH  21  22
HETATM   22  C   UNK A   0      -6.766  15.032  67.945  1.00  0.00    -0.172 A  
HETATM   23  C   UNK A   0      -8.407  16.714  67.323  1.00  0.00    -0.198 A  
HETATM   24  C   UNK A   0      -8.003  17.532  68.379  1.00  0.00    -0.261 A  
HETATM   25  C   UNK A   0      -7.796  15.476  67.102  1.00  0.00    -0.256 A  
HETATM   26  H   UNK A   0     -10.913  18.733  66.191  1.00  0.00     0.000 HD 
HETATM   27  C   UNK A   0      -6.961  17.110  69.203  1.00  0.00    -0.224 A  
HETATM   28  C   UNK A   0     -10.409  20.395  68.052  1.00  0.00    -0.279 C  
HETATM   29  N   UNK A   0      -8.637  18.761  68.558  1.00  0.00    -0.338 NA 
HETATM   30  N   UNK A   0     -10.127  18.403  66.750  1.00  0.00    -0.351 N  
HETATM   31  C   UNK A   0      -6.353  15.867  68.991  1.00  0.00    -0.133 A  
HETATM   32  C   UNK A   0      -9.508  17.204  66.453  1.00  0.00    -0.269 C  
HETATM   33  O   UNK A   0      -9.832  16.516  65.490  1.00  0.00    -0.537 OA 
HETATM   34  C   UNK A   0      -9.690  19.100  67.750  1.00  0.00    -0.321 C  
ENDBRANCH  21  22
ENDBRANCH   2  21
TORSDOF 7
ENDMDL
MODEL      238
REMARK 921   NORMALIZED FREE ENERGY PREDICTED BY IDOCK:   -4.37 KCAL/MOL
REMARK 922        TOTAL FREE ENERGY PREDICTED BY IDOCK:   -7.30 KCAL/MOL
REMARK 923 INTER-LIGAND FREE ENERGY PREDICTED BY IDOCK:   -5.75 KCAL/MOL
REMARK 924 INTRA-LIGAND FREE ENERGY PREDICTED BY IDOCK:   -1.54 KCAL/MOL
REMARK 927      BINDING AFFINITY PREDICTED BY RF-SCORE:    0.00 PKD
ROOT
HETATM    1  C   UNK A   0      -7.992   3.156  66.220  1.00  0.00    -0.081 C  
HETATM    2  N   UNK A   0      -8.108   4.585  66.494  1.00  0.00    -0.103 NA 
ENDROOT
BRANCH   2   3
HETATM    3  C   UNK A   0      -9.274   5.050  67.044  1.00  0.00    -0.120 A  
HETATM    4  C   UNK A   0     -11.348   6.098  67.332  1.00  0.00     0.075 A  
HETATM    5  C   UNK A   0     -10.428   5.488  66.421  1.00  0.00    -0.294 A  
HETATM    6  S   UNK A   0      -9.467   5.132  68.746  1.00  0.00    -0.143 SA 
HETATM    7  C   UNK A   0     -10.896   6.052  68.636  1.00  0.00    -0.307 A  
BRANCH   7   8
HETATM    8  C   UNK A   0     -11.459   6.693  69.811  1.00  0.00    -0.328 C  
HETATM    9  O   UNK A   0     -12.146   6.106  70.639  1.00  0.00    -0.054 OA 
ATOM     10  N   GLU A   1     -11.205   8.054  69.915  1.00  0.00    -0.448 N  
ATOM     11  H   GLU A   1     -10.659   8.516  69.188  1.00  0.00     0.000 HD 
BRANCH  10  12
ATOM     12  CA  GLU A   1     -11.705   8.840  71.046  1.00  0.00    -0.282 C  
ATOM     13  C   GLU A   1     -12.010  10.278  70.587  1.00  0.00    -0.342 C  
ATOM     14  O   GLU A   1     -11.296  10.669  69.502  1.00  0.00    -0.237 OA 
ATOM     15  OXT GLU A   1     -12.712  11.059  71.214  1.00  0.00    -0.387 OA 
BRANCH  12  16
ATOM     16  CB  GLU A   1     -10.656   8.846  72.164  1.00  0.00    -0.323 C  
BRANCH  16  17
ATOM     17  CG  GLU A   1      -9.244   8.567  71.649  1.00  0.00    -0.304 C  
ATOM     18  CD  GLU A   1      -8.415   7.803  72.650  1.00  0.00    -0.135 C  
ATOM     19  OE2 GLU A   1      -8.560   7.866  73.857  1.00  0.00    -0.234 OA 
ATOM     20  OE1 GLU A   1      -7.453   7.054  72.067  1.00  0.00    -0.088 OA 
ENDBRANCH  16  17
ENDBRANCH  12  16
ENDBRANCH  10  12
ENDBRANCH   7   8
ENDBRANCH   2   3
BRANCH   2  21
HETATM   21  C   UNK A   0      -7.455   5.473  65.512  1.00  0.00    -0.074 C  
BRANCH  21  22
HETATM   22  C   UNK A   0      -7.245   6.861  66.078  1.00  0.00    -0.074 A  
HETATM   23  C   UNK A   0      -7.626   9.260  65.994  1.00  0.00    -0.096 A  
HETATM   24  C   UNK A   0      -6.881   9.443  67.158  1.00  0.00    -0.084 A  
HETATM   25  C   UNK A   0      -7.808   7.984  65.452  1.00  0.00    -0.106 A  
HETATM   26  H   UNK A   0      -8.509  12.528  65.568  1.00  0.00     0.000 HD 
HETATM   27  C   UNK A   0      -6.295   8.336  67.770  1.00  0.00    -0.053 A  
HETATM   28  C   UNK A   0      -7.243  13.142  67.689  1.00  0.00    -0.160 C  
HETATM   29  N   UNK A   0      -6.721  10.735  67.659  1.00  0.00    -0.068 NA 
HETATM   30  N   UNK A   0      -8.071  11.697  65.965  1.00  0.00    -0.374 N  
HETATM   31  C   UNK A   0      -6.483   7.055  67.237  1.00  0.00    -0.053 A  
HETATM   32  C   UNK A   0      -8.220  10.466  65.358  1.00  0.00    -0.159 C  
HETATM   33  O   UNK A   0      -8.831  10.320  64.303  1.00  0.00    -0.184 OA 
HETATM   34  C   UNK A   0      -7.364  11.779  67.047  1.00  0.00    -0.133 C  
ENDBRANCH  21  22
ENDBRANCH   2  21
TORSDOF 7
ENDMDL
MODEL      239
REMARK 921   NORMALIZED FREE ENERGY PREDICTED BY IDOCK:   -4.36 KCAL/MOL
REMARK 922        TOTAL FREE ENERGY PREDICTED BY IDOCK:   -7.27 KCAL/MOL
REMARK 923 INTER-LIGAND FREE ENERGY PREDICTED BY IDOCK:   -5.96 KCAL/MOL
REMARK 924 INTRA-LIGAND FREE ENERGY PREDICTED BY IDOCK:   -1.31 KCAL/MOL
REMARK 927      BINDING AFFINITY PREDICTED BY RF-SCORE:    0.00 PKD
ROOT
HETATM    1  C   UNK A   0     -10.696  12.568  67.211  1.00  0.00    -0.233 C  
HETATM    2  N   UNK A   0     -10.038  11.265  67.209  1.00  0.00    -0.184 NA 
ENDROOT
BRANCH   2   3
HETATM    3  C   UNK A   0      -9.651  10.729  68.410  1.00  0.00    -0.176 A  
HETATM    4  C   UNK A   0      -8.363   9.825  70.144  1.00  0.00    -0.201 A  
HETATM    5  C   UNK A   0      -8.390  10.647  68.973  1.00  0.00    -0.153 A  
HETATM    6  S   UNK A   0     -10.808  10.045  69.476  1.00  0.00    -0.266 SA 
HETATM    7  C   UNK A   0      -9.616   9.352  70.476  1.00  0.00    -0.271 A  
BRANCH   7   8
HETATM    8  C   UNK A   0      -9.975   8.373  71.488  1.00  0.00    -0.217 C  
HETATM    9  O   UNK A   0     -10.793   8.586  72.375  1.00  0.00    -0.346 OA 
ATOM     10  N   GLU A   1      -9.282   7.173  71.415  1.00  0.00    -0.150 N  
ATOM     11  H   GLU A   1      -8.582   7.045  70.684  1.00  0.00     0.000 HD 
BRANCH  10  12
ATOM     12  CA  GLU A   1      -9.533   6.086  72.365  1.00  0.00    -0.145 C  
ATOM     13  C   GLU A   1      -8.195   5.527  72.883  1.00  0.00    -0.109 C  
ATOM     14  O   GLU A   1      -7.156   5.718  72.033  1.00  0.00    -0.082 OA 
ATOM     15  OXT GLU A   1      -8.087   4.843  73.892  1.00  0.00    -0.104 OA 
BRANCH  12  16
ATOM     16  CB  GLU A   1     -10.342   4.983  71.673  1.00  0.00    -0.262 C  
BRANCH  16  17
ATOM     17  CG  GLU A   1      -9.876   4.720  70.241  1.00  0.00    -0.313 C  
ATOM     18  CD  GLU A   1      -9.317   3.331  70.072  1.00  0.00    -0.168 C  
ATOM     19  OE2 GLU A   1      -8.772   2.694  70.956  1.00  0.00    -0.061 OA 
ATOM     20  OE1 GLU A   1      -9.448   2.866  68.809  1.00  0.00    -0.177 OA 
ENDBRANCH  16  17
ENDBRANCH  12  16
ENDBRANCH  10  12
ENDBRANCH   7   8
ENDBRANCH   2   3
BRANCH   2  21
HETATM   21  C   UNK A   0      -9.138  11.012  66.067  1.00  0.00    -0.195 C  
BRANCH  21  22
HETATM   22  C   UNK A   0      -8.896   9.531  65.872  1.00  0.00    -0.193 A  
HETATM   23  C   UNK A   0      -9.552   7.216  66.220  1.00  0.00    -0.098 A  
HETATM   24  C   UNK A   0      -8.460   6.771  65.475  1.00  0.00    -0.119 A  
HETATM   25  C   UNK A   0      -9.772   8.582  66.422  1.00  0.00    -0.328 A  
HETATM   26  H   UNK A   0     -10.895   4.142  66.838  1.00  0.00     0.000 HD 
HETATM   27  C   UNK A   0      -7.570   7.706  64.949  1.00  0.00    -0.099 A  
HETATM   28  C   UNK A   0      -9.023   3.059  65.496  1.00  0.00    -0.145 C  
HETATM   29  N   UNK A   0      -8.277   5.398  65.304  1.00  0.00    -0.126 NA 
HETATM   30  N   UNK A   0     -10.251   4.856  66.499  1.00  0.00    -0.252 N  
HETATM   31  C   UNK A   0      -7.792   9.074  65.141  1.00  0.00    -0.108 A  
HETATM   32  C   UNK A   0     -10.470   6.190  66.781  1.00  0.00    -0.252 C  
HETATM   33  O   UNK A   0     -11.401   6.571  67.483  1.00  0.00    -0.284 OA 
HETATM   34  C   UNK A   0      -9.213   4.527  65.798  1.00  0.00    -0.146 C  
ENDBRANCH  21  22
ENDBRANCH   2  21
TORSDOF 7
ENDMDL
MODEL      240
REMARK 921   NORMALIZED FREE ENERGY PREDICTED BY IDOCK:   -4.34 KCAL/MOL
REMARK 922        TOTAL FREE ENERGY PREDICTED BY IDOCK:   -7.25 KCAL/MOL
REMARK 923 INTER-LIGAND FREE ENERGY PREDICTED BY IDOCK:   -5.90 KCAL/MOL
REMARK 924 INTRA-LIGAND FREE ENERGY PREDICTED BY IDOCK:   -1.35 KCAL/MOL
REMARK 927      BINDING AFFINITY PREDICTED BY RF-SCORE:    0.00 PKD
ROOT
HETATM    1  C   UNK A   0     -12.870  10.713  71.466  1.00  0.00    -0.462 C  
HETATM    2  N   UNK A   0     -11.948   9.771  70.839  1.00  0.00    -0.309 NA 
ENDROOT
BRANCH   2   3
HETATM    3  C   UNK A   0     -11.274  10.171  69.715  1.00  0.00    -0.272 A  
HETATM    4  C   UNK A   0     -10.776  10.878  67.539  1.00  0.00    -0.299 A  
HETATM    5  C   UNK A   0     -11.745  10.825  68.591  1.00  0.00    -0.289 A  
HETATM    6  S   UNK A   0      -9.587   9.898  69.563  1.00  0.00    -0.235 SA 
HETATM    7  C   UNK A   0      -9.572  10.317  67.912  1.00  0.00    -0.145 A  
BRANCH   7   8
HETATM    8  C   UNK A   0      -8.409  10.039  67.087  1.00  0.00    -0.121 C  
HETATM    9  O   UNK A   0      -7.412  10.753  67.061  1.00  0.00    -0.103 OA 
ATOM     10  N   GLU A   1      -8.518   8.918  66.278  1.00  0.00    -0.119 N  
ATOM     11  H   GLU A   1      -9.377   8.368  66.300  1.00  0.00     0.000 HD 
BRANCH  10  12
ATOM     12  CA  GLU A   1      -7.427   8.507  65.390  1.00  0.00    -0.086 C  
ATOM     13  C   GLU A   1      -7.725   8.966  63.951  1.00  0.00    -0.129 C  
ATOM     14  O   GLU A   1      -9.046   9.126  63.690  1.00  0.00    -0.072 OA 
ATOM     15  OXT GLU A   1      -6.879   9.040  63.069  1.00  0.00    -0.091 OA 
BRANCH  12  16
ATOM     16  CB  GLU A   1      -7.273   6.983  65.445  1.00  0.00    -0.073 C  
BRANCH  16  17
ATOM     17  CG  GLU A   1      -8.334   6.314  66.318  1.00  0.00    -0.122 C  
ATOM     18  CD  GLU A   1      -8.927   5.096  65.658  1.00  0.00    -0.154 C  
ATOM     19  OE2 GLU A   1      -9.026   4.943  64.454  1.00  0.00    -0.147 OA 
ATOM     20  OE1 GLU A   1      -9.382   4.188  66.551  1.00  0.00    -0.148 OA 
ENDBRANCH  16  17
ENDBRANCH  12  16
ENDBRANCH  10  12
ENDBRANCH   7   8
ENDBRANCH   2   3
BRANCH   2  21
HETATM   21  C   UNK A   0     -12.366   8.356  70.875  1.00  0.00    -0.042 C  
BRANCH  21  22
HETATM   22  C   UNK A   0     -11.370   7.505  71.632  1.00  0.00    -0.283 A  
HETATM   23  C   UNK A   0      -9.939   5.545  71.774  1.00  0.00    -0.228 A  
HETATM   24  C   UNK A   0      -9.483   5.941  73.032  1.00  0.00    -0.150 A  
HETATM   25  C   UNK A   0     -10.875   6.314  71.077  1.00  0.00    -0.326 A  
HETATM   26  H   UNK A   0      -7.997   2.753  71.507  1.00  0.00     0.000 HD 
HETATM   27  C   UNK A   0      -9.991   7.108  73.602  1.00  0.00    -0.367 A  
HETATM   28  C   UNK A   0      -6.968   3.256  73.780  1.00  0.00    -0.041 C  
HETATM   29  N   UNK A   0      -8.554   5.139  73.694  1.00  0.00    -0.111 NA 
HETATM   30  N   UNK A   0      -8.418   3.594  71.901  1.00  0.00    -0.084 N  
HETATM   31  C   UNK A   0     -10.921   7.886  72.903  1.00  0.00    -0.452 A  
HETATM   32  C   UNK A   0      -9.390   4.286  71.206  1.00  0.00    -0.149 C  
HETATM   33  O   UNK A   0      -9.826   3.902  70.125  1.00  0.00    -0.200 OA 
HETATM   34  C   UNK A   0      -8.049   4.032  73.064  1.00  0.00    -0.089 C  
ENDBRANCH  21  22
ENDBRANCH   2  21
TORSDOF 7
ENDMDL
MODEL      241
REMARK 921   NORMALIZED FREE ENERGY PREDICTED BY IDOCK:   -4.32 KCAL/MOL
REMARK 922        TOTAL FREE ENERGY PREDICTED BY IDOCK:   -7.22 KCAL/MOL
REMARK 923 INTER-LIGAND FREE ENERGY PREDICTED BY IDOCK:   -5.90 KCAL/MOL
REMARK 924 INTRA-LIGAND FREE ENERGY PREDICTED BY IDOCK:   -1.32 KCAL/MOL
REMARK 927      BINDING AFFINITY PREDICTED BY RF-SCORE:    0.00 PKD
ROOT
HETATM    1  C   UNK A   0      -8.032   6.518  64.638  1.00  0.00    -0.116 C  
HETATM    2  N   UNK A   0      -6.997   7.205  65.404  1.00  0.00    -0.055 NA 
ENDROOT
BRANCH   2   3
HETATM    3  C   UNK A   0      -7.033   7.117  66.771  1.00  0.00    -0.073 A  
HETATM    4  C   UNK A   0      -6.426   6.777  69.007  1.00  0.00    -0.036 A  
HETATM    5  C   UNK A   0      -5.991   7.092  67.680  1.00  0.00    -0.028 A  
HETATM    6  S   UNK A   0      -8.531   7.043  67.604  1.00  0.00    -0.123 SA 
HETATM    7  C   UNK A   0      -7.796   6.632  69.085  1.00  0.00    -0.111 A  
BRANCH   7   8
HETATM    8  C   UNK A   0      -8.594   6.163  70.204  1.00  0.00    -0.133 C  
HETATM    9  O   UNK A   0      -8.576   5.006  70.610  1.00  0.00    -0.109 OA 
ATOM     10  N   GLU A   1      -9.433   7.115  70.766  1.00  0.00    -0.164 N  
ATOM     11  H   GLU A   1      -9.447   8.058  70.378  1.00  0.00     0.000 HD 
BRANCH  10  12
ATOM     12  CA  GLU A   1     -10.299   6.794  71.904  1.00  0.00    -0.197 C  
ATOM     13  C   GLU A   1     -11.776   6.886  71.477  1.00  0.00    -0.311 C  
ATOM     14  O   GLU A   1     -11.991   7.715  70.425  1.00  0.00    -0.092 OA 
ATOM     15  OXT GLU A   1     -12.700   6.387  72.105  1.00  0.00    -0.244 OA 
BRANCH  12  16
ATOM     16  CB  GLU A   1     -10.012   7.768  73.052  1.00  0.00    -0.356 C  
BRANCH  16  17
ATOM     17  CG  GLU A   1      -8.783   7.370  73.870  1.00  0.00    -0.258 C  
ATOM     18  CD  GLU A   1      -7.578   8.208  73.529  1.00  0.00    -0.155 C  
ATOM     19  OE2 GLU A   1      -7.376   8.716  72.441  1.00  0.00    -0.263 OA 
ATOM     20  OE1 GLU A   1      -6.708   8.313  74.559  1.00  0.00    -0.124 OA 
ENDBRANCH  16  17
ENDBRANCH  12  16
ENDBRANCH  10  12
ENDBRANCH   7   8
ENDBRANCH   2   3
BRANCH   2  21
HETATM   21  C   UNK A   0      -6.551   8.498  64.849  1.00  0.00    -0.068 C  
BRANCH  21  22
HETATM   22  C   UNK A   0      -7.372   9.646  65.397  1.00  0.00    -0.108 A  
HETATM   23  C   UNK A   0      -9.318  11.098  65.285  1.00  0.00    -0.243 A  
HETATM   24  C   UNK A   0      -8.918  11.762  66.444  1.00  0.00    -0.201 A  
HETATM   25  C   UNK A   0      -8.555  10.050  64.760  1.00  0.00    -0.188 A  
HETATM   26  H   UNK A   0     -12.227  12.819  64.822  1.00  0.00     0.000 HD 
HETATM   27  C   UNK A   0      -7.729  11.385  67.067  1.00  0.00    -0.154 A  
HETATM   28  C   UNK A   0     -11.760  14.167  66.930  1.00  0.00    -0.437 C  
HETATM   29  N   UNK A   0      -9.707  12.806  66.928  1.00  0.00    -0.228 NA 
HETATM   30  N   UNK A   0     -11.336  12.534  65.228  1.00  0.00    -0.313 N  
HETATM   31  C   UNK A   0      -6.967  10.330  66.550  1.00  0.00    -0.107 A  
HETATM   32  C   UNK A   0     -10.581  11.540  64.637  1.00  0.00    -0.311 C  
HETATM   33  O   UNK A   0     -10.911  10.998  63.587  1.00  0.00    -0.319 OA 
HETATM   34  C   UNK A   0     -10.892  13.099  66.306  1.00  0.00    -0.279 C  
ENDBRANCH  21  22
ENDBRANCH   2  21
TORSDOF 7
ENDMDL
MODEL      242
REMARK 921   NORMALIZED FREE ENERGY PREDICTED BY IDOCK:   -4.31 KCAL/MOL
REMARK 922        TOTAL FREE ENERGY PREDICTED BY IDOCK:   -7.21 KCAL/MOL
REMARK 923 INTER-LIGAND FREE ENERGY PREDICTED BY IDOCK:   -6.32 KCAL/MOL
REMARK 924 INTRA-LIGAND FREE ENERGY PREDICTED BY IDOCK:   -0.89 KCAL/MOL
REMARK 927      BINDING AFFINITY PREDICTED BY RF-SCORE:    0.00 PKD
ROOT
HETATM    1  C   UNK A   0      -5.808  11.988  67.660  1.00  0.00    -0.093 C  
HETATM    2  N   UNK A   0      -5.919  12.269  69.088  1.00  0.00    -0.074 NA 
ENDROOT
BRANCH   2   3
HETATM    3  C   UNK A   0      -6.038  11.212  69.952  1.00  0.00    -0.121 A  
HETATM    4  C   UNK A   0      -5.558   9.542  71.522  1.00  0.00    -0.074 A  
HETATM    5  C   UNK A   0      -5.208  10.823  70.988  1.00  0.00    -0.103 A  
HETATM    6  S   UNK A   0      -7.380  10.149  69.854  1.00  0.00    -0.165 SA 
HETATM    7  C   UNK A   0      -6.683   9.017  70.919  1.00  0.00    -0.080 A  
BRANCH   7   8
HETATM    8  C   UNK A   0      -7.254   7.690  71.069  1.00  0.00    -0.058 C  
HETATM    9  O   UNK A   0      -6.594   6.658  71.003  1.00  0.00    -0.051 OA 
ATOM     10  N   GLU A   1      -8.629   7.659  71.247  1.00  0.00    -0.119 N  
ATOM     11  H   GLU A   1      -9.150   8.536  71.261  1.00  0.00     0.000 HD 
BRANCH  10  12
ATOM     12  CA  GLU A   1      -9.350   6.394  71.414  1.00  0.00    -0.152 C  
ATOM     13  C   GLU A   1      -9.912   5.931  70.058  1.00  0.00    -0.183 C  
ATOM     14  O   GLU A   1     -10.120   6.942  69.178  1.00  0.00    -0.165 OA 
ATOM     15  OXT GLU A   1     -10.283   4.788  69.827  1.00  0.00    -0.246 OA 
BRANCH  12  16
ATOM     16  CB  GLU A   1     -10.485   6.585  72.427  1.00  0.00    -0.229 C  
BRANCH  16  17
ATOM     17  CG  GLU A   1     -10.865   8.054  72.616  1.00  0.00    -0.436 C  
ATOM     18  CD  GLU A   1     -12.185   8.386  71.969  1.00  0.00    -0.362 C  
ATOM     19  OE2 GLU A   1     -12.635   7.821  70.989  1.00  0.00    -0.236 OA 
ATOM     20  OE1 GLU A   1     -12.817   9.418  72.574  1.00  0.00    -0.349 OA 
ENDBRANCH  16  17
ENDBRANCH  12  16
ENDBRANCH  10  12
ENDBRANCH   7   8
ENDBRANCH   2   3
BRANCH   2  21
HETATM   21  C   UNK A   0      -6.686  13.481  69.437  1.00  0.00    -0.051 C  
BRANCH  21  22
HETATM   22  C   UNK A   0      -7.708  13.813  68.372  1.00  0.00    -0.134 A  
HETATM   23  C   UNK A   0      -9.774  13.314  67.193  1.00  0.00    -0.236 A  
HETATM   24  C   UNK A   0      -9.631  14.459  66.409  1.00  0.00    -0.299 A  
HETATM   25  C   UNK A   0      -8.824  12.987  68.165  1.00  0.00    -0.194 A  
HETATM   26  H   UNK A   0     -12.766  12.313  65.894  1.00  0.00     0.000 HD 
HETATM   27  C   UNK A   0      -8.511  15.269  66.590  1.00  0.00    -0.264 A  
HETATM   28  C   UNK A   0     -12.777  14.347  64.364  1.00  0.00    -0.016 C  
HETATM   29  N   UNK A   0     -10.600  14.741  65.447  1.00  0.00    -0.349 NA 
HETATM   30  N   UNK A   0     -11.917  12.860  66.035  1.00  0.00    -0.431 N  
HETATM   31  C   UNK A   0      -7.562  14.952  67.569  1.00  0.00    -0.218 A  
HETATM   32  C   UNK A   0     -10.970  12.463  66.959  1.00  0.00    -0.260 C  
HETATM   33  O   UNK A   0     -11.075  11.425  67.606  1.00  0.00    -0.230 OA 
HETATM   34  C   UNK A   0     -11.707  13.939  65.350  1.00  0.00    -0.340 C  
ENDBRANCH  21  22
ENDBRANCH   2  21
TORSDOF 7
ENDMDL
MODEL      243
REMARK 921   NORMALIZED FREE ENERGY PREDICTED BY IDOCK:   -4.29 KCAL/MOL
REMARK 922        TOTAL FREE ENERGY PREDICTED BY IDOCK:   -7.17 KCAL/MOL
REMARK 923 INTER-LIGAND FREE ENERGY PREDICTED BY IDOCK:   -7.87 KCAL/MOL
REMARK 924 INTRA-LIGAND FREE ENERGY PREDICTED BY IDOCK:    0.69 KCAL/MOL
REMARK 927      BINDING AFFINITY PREDICTED BY RF-SCORE:    0.00 PKD
ROOT
HETATM    1  C   UNK A   0     -12.058  13.605  70.749  1.00  0.00    -0.295 C  
HETATM    2  N   UNK A   0     -11.734  12.477  69.881  1.00  0.00    -0.477 NA 
ENDROOT
BRANCH   2   3
HETATM    3  C   UNK A   0     -11.925  11.208  70.365  1.00  0.00    -0.378 A  
HETATM    4  C   UNK A   0     -12.394   9.401  71.778  1.00  0.00    -0.471 A  
HETATM    5  C   UNK A   0     -12.599  10.789  71.497  1.00  0.00    -0.500 A  
HETATM    6  S   UNK A   0     -11.302   9.849  69.524  1.00  0.00    -0.063 SA 
HETATM    7  C   UNK A   0     -11.617   8.785  70.817  1.00  0.00    -0.251 A  
BRANCH   7   8
HETATM    8  C   UNK A   0     -11.062   7.444  70.826  1.00  0.00    -0.265 C  
HETATM    9  O   UNK A   0     -11.747   6.427  70.842  1.00  0.00    -0.349 OA 
ATOM     10  N   GLU A   1      -9.676   7.383  70.866  1.00  0.00    -0.170 N  
ATOM     11  H   GLU A   1      -9.139   8.250  70.888  1.00  0.00     0.000 HD 
BRANCH  10  12
ATOM     12  CA  GLU A   1      -8.967   6.100  70.878  1.00  0.00    -0.143 C  
ATOM     13  C   GLU A   1      -8.158   5.940  69.578  1.00  0.00    -0.106 C  
ATOM     14  O   GLU A   1      -8.651   6.653  68.535  1.00  0.00    -0.124 OA 
ATOM     15  OXT GLU A   1      -7.245   5.137  69.438  1.00  0.00    -0.055 OA 
BRANCH  12  16
ATOM     16  CB  GLU A   1      -9.982   4.960  71.022  1.00  0.00    -0.282 C  
BRANCH  16  17
ATOM     17  CG  GLU A   1      -9.567   3.931  72.073  1.00  0.00    -0.210 C  
ATOM     18  CD  GLU A   1     -10.651   3.695  73.094  1.00  0.00    -0.180 C  
ATOM     19  OE2 GLU A   1     -11.476   4.525  73.429  1.00  0.00    -0.316 OA 
ATOM     20  OE1 GLU A   1     -10.593   2.459  73.640  1.00  0.00    -0.124 OA 
ENDBRANCH  16  17
ENDBRANCH  12  16
ENDBRANCH  10  12
ENDBRANCH   7   8
ENDBRANCH   2   3
BRANCH   2  21
HETATM   21  C   UNK A   0     -10.561  12.667  69.006  1.00  0.00    -0.041 C  
BRANCH  21  22
HETATM   22  C   UNK A   0     -10.543  14.054  68.401  1.00  0.00    -0.259 A  
HETATM   23  C   UNK A   0      -9.506  16.238  68.148  1.00  0.00    -0.215 A  
HETATM   24  C   UNK A   0     -10.493  16.627  67.242  1.00  0.00    -0.313 A  
HETATM   25  C   UNK A   0      -9.527  14.965  68.727  1.00  0.00    -0.214 A  
HETATM   26  H   UNK A   0      -7.668  19.107  67.991  1.00  0.00     0.000 HD 
HETATM   27  C   UNK A   0     -11.521  15.737  66.934  1.00  0.00     0.165 A  
HETATM   28  C   UNK A   0      -9.304  20.058  66.289  1.00  0.00    -0.456 C  
HETATM   29  N   UNK A   0     -10.436  17.908  66.693  1.00  0.00    -0.343 NA 
HETATM   30  N   UNK A   0      -8.419  18.439  67.819  1.00  0.00    -0.256 N  
HETATM   31  C   UNK A   0     -11.540  14.459  67.504  1.00  0.00    -0.398 A  
HETATM   32  C   UNK A   0      -8.436  17.219  68.466  1.00  0.00    -0.267 C  
HETATM   33  O   UNK A   0      -7.596  16.905  69.303  1.00  0.00    -0.212 OA 
HETATM   34  C   UNK A   0      -9.374  18.721  66.990  1.00  0.00    -0.297 C  
ENDBRANCH  21  22
ENDBRANCH   2  21
TORSDOF 7
ENDMDL
MODEL      244
REMARK 921   NORMALIZED FREE ENERGY PREDICTED BY IDOCK:   -4.21 KCAL/MOL
REMARK 922        TOTAL FREE ENERGY PREDICTED BY IDOCK:   -7.07 KCAL/MOL
REMARK 923 INTER-LIGAND FREE ENERGY PREDICTED BY IDOCK:   -6.57 KCAL/MOL
REMARK 924 INTRA-LIGAND FREE ENERGY PREDICTED BY IDOCK:   -0.50 KCAL/MOL
REMARK 927      BINDING AFFINITY PREDICTED BY RF-SCORE:    0.00 PKD
ROOT
HETATM    1  C   UNK A   0      -8.692  11.000  68.051  1.00  0.00    -0.138 C  
HETATM    2  N   UNK A   0     -10.059  10.492  67.990  1.00  0.00    -0.161 NA 
ENDROOT
BRANCH   2   3
HETATM    3  C   UNK A   0     -10.249   9.134  67.969  1.00  0.00    -0.211 A  
HETATM    4  C   UNK A   0     -10.447   6.893  68.619  1.00  0.00    -0.217 A  
HETATM    5  C   UNK A   0     -10.535   8.268  69.008  1.00  0.00    -0.212 A  
HETATM    6  S   UNK A   0     -10.165   8.263  66.494  1.00  0.00    -0.064 SA 
HETATM    7  C   UNK A   0     -10.156   6.750  67.277  1.00  0.00    -0.182 A  
BRANCH   7   8
HETATM    8  C   UNK A   0      -9.832   5.538  66.546  1.00  0.00    -0.172 C  
HETATM    9  O   UNK A   0     -10.337   4.447  66.788  1.00  0.00    -0.155 OA 
ATOM     10  N   GLU A   1      -8.859   5.685  65.568  1.00  0.00    -0.201 N  
ATOM     11  H   GLU A   1      -8.436   6.601  65.419  1.00  0.00     0.000 HD 
BRANCH  10  12
ATOM     12  CA  GLU A   1      -8.427   4.552  64.745  1.00  0.00    -0.132 C  
ATOM     13  C   GLU A   1      -6.897   4.397  64.835  1.00  0.00    -0.049 C  
ATOM     14  O   GLU A   1      -6.248   5.545  65.146  1.00  0.00    -0.028 OA 
ATOM     15  OXT GLU A   1      -6.295   3.381  64.514  1.00  0.00    -0.023 OA 
BRANCH  12  16
ATOM     16  CB  GLU A   1      -8.856   4.786  63.292  1.00  0.00    -0.112 C  
BRANCH  16  17
ATOM     17  CG  GLU A   1     -10.263   4.263  63.002  1.00  0.00    -0.009 C  
ATOM     18  CD  GLU A   1     -10.286   2.767  62.821  1.00  0.00    -0.133 C  
ATOM     19  OE2 GLU A   1      -9.354   2.109  62.397  1.00  0.00    -0.086 OA 
ATOM     20  OE1 GLU A   1     -11.480   2.221  63.148  1.00  0.00    -0.335 OA 
ENDBRANCH  16  17
ENDBRANCH  12  16
ENDBRANCH  10  12
ENDBRANCH   7   8
ENDBRANCH   2   3
BRANCH   2  21
HETATM   21  C   UNK A   0     -10.996  11.289  67.175  1.00  0.00    -0.291 C  
BRANCH  21  22
HETATM   22  C   UNK A   0     -10.643  12.761  67.210  1.00  0.00    -0.245 A  
HETATM   23  C   UNK A   0     -10.784  14.946  68.265  1.00  0.00    -0.249 A  
HETATM   24  C   UNK A   0      -9.951  15.496  67.290  1.00  0.00    -0.238 A  
HETATM   25  C   UNK A   0     -11.132  13.592  68.229  1.00  0.00    -0.281 A  
HETATM   26  H   UNK A   0     -11.146  17.782  70.126  1.00  0.00     0.000 HD 
HETATM   27  C   UNK A   0      -9.484  14.682  66.258  1.00  0.00    -0.322 A  
HETATM   28  C   UNK A   0      -9.622  19.030  68.514  1.00  0.00    -0.442 C  
HETATM   29  N   UNK A   0      -9.635  16.852  67.362  1.00  0.00    -0.239 NA 
HETATM   30  N   UNK A   0     -10.854  17.161  69.372  1.00  0.00    -0.341 N  
HETATM   31  C   UNK A   0      -9.823  13.324  66.224  1.00  0.00    -0.288 A  
HETATM   32  C   UNK A   0     -11.277  15.847  69.339  1.00  0.00    -0.336 C  
HETATM   33  O   UNK A   0     -12.054  15.385  70.169  1.00  0.00    -0.324 OA 
HETATM   34  C   UNK A   0     -10.078  17.591  68.427  1.00  0.00    -0.358 C  
ENDBRANCH  21  22
ENDBRANCH   2  21
TORSDOF 7
ENDMDL
MODEL      245
REMARK 921   NORMALIZED FREE ENERGY PREDICTED BY IDOCK:   -4.21 KCAL/MOL
REMARK 922        TOTAL FREE ENERGY PREDICTED BY IDOCK:   -7.07 KCAL/MOL
REMARK 923 INTER-LIGAND FREE ENERGY PREDICTED BY IDOCK:   -6.22 KCAL/MOL
REMARK 924 INTRA-LIGAND FREE ENERGY PREDICTED BY IDOCK:   -0.85 KCAL/MOL
REMARK 927      BINDING AFFINITY PREDICTED BY RF-SCORE:    0.00 PKD
ROOT
HETATM    1  C   UNK A   0     -10.976   7.586  73.246  1.00  0.00    -0.309 C  
HETATM    2  N   UNK A   0     -10.811   7.472  71.801  1.00  0.00    -0.225 NA 
ENDROOT
BRANCH   2   3
HETATM    3  C   UNK A   0      -9.584   7.757  71.261  1.00  0.00    -0.157 A  
HETATM    4  C   UNK A   0      -7.536   8.788  70.781  1.00  0.00    -0.097 A  
HETATM    5  C   UNK A   0      -8.582   8.584  71.737  1.00  0.00    -0.254 A  
HETATM    6  S   UNK A   0      -9.085   7.030  69.789  1.00  0.00    -0.143 SA 
HETATM    7  C   UNK A   0      -7.739   8.061  69.625  1.00  0.00    -0.102 A  
BRANCH   7   8
HETATM    8  C   UNK A   0      -6.998   8.119  68.378  1.00  0.00    -0.073 C  
HETATM    9  O   UNK A   0      -5.799   8.369  68.315  1.00  0.00    -0.040 OA 
ATOM     10  N   GLU A   1      -7.757   7.920  67.234  1.00  0.00    -0.103 N  
ATOM     11  H   GLU A   1      -8.759   7.750  67.323  1.00  0.00     0.000 HD 
BRANCH  10  12
ATOM     12  CA  GLU A   1      -7.150   7.948  65.900  1.00  0.00    -0.061 C  
ATOM     13  C   GLU A   1      -7.182   9.383  65.343  1.00  0.00    -0.092 C  
ATOM     14  O   GLU A   1      -8.168  10.152  65.868  1.00  0.00    -0.127 OA 
ATOM     15  OXT GLU A   1      -6.491   9.768  64.410  1.00  0.00    -0.103 OA 
BRANCH  12  16
ATOM     16  CB  GLU A   1      -7.916   6.997  64.973  1.00  0.00    -0.129 C  
BRANCH  16  17
ATOM     17  CG  GLU A   1      -7.274   5.612  64.888  1.00  0.00    -0.065 C  
ATOM     18  CD  GLU A   1      -6.057   5.605  63.999  1.00  0.00    -0.025 C  
ATOM     19  OE2 GLU A   1      -5.892   6.349  63.050  1.00  0.00    -0.025 OA 
ATOM     20  OE1 GLU A   1      -5.167   4.647  64.342  1.00  0.00    -0.012 OA 
ENDBRANCH  16  17
ENDBRANCH  12  16
ENDBRANCH  10  12
ENDBRANCH   7   8
ENDBRANCH   2   3
BRANCH   2  21
HETATM   21  C   UNK A   0     -11.982   7.874  70.996  1.00  0.00    -0.252 C  
BRANCH  21  22
HETATM   22  C   UNK A   0     -11.929   9.345  70.641  1.00  0.00    -0.232 A  
HETATM   23  C   UNK A   0     -12.550  11.652  71.087  1.00  0.00    -0.439 A  
HETATM   24  C   UNK A   0     -11.797  12.089  69.997  1.00  0.00    -0.314 A  
HETATM   25  C   UNK A   0     -12.621  10.293  71.410  1.00  0.00    -0.539 A  
HETATM   26  H   UNK A   0     -13.556  14.737  72.141  1.00  0.00     0.000 HD 
HETATM   27  C   UNK A   0     -11.129  11.150  69.213  1.00  0.00    -0.318 A  
HETATM   28  C   UNK A   0     -12.233  15.810  70.249  1.00  0.00    -0.367 C  
HETATM   29  N   UNK A   0     -11.759  13.454  69.710  1.00  0.00    -0.391 NA 
HETATM   30  N   UNK A   0     -13.110  14.016  71.574  1.00  0.00    -0.346 N  
HETATM   31  C   UNK A   0     -11.190   9.790  69.538  1.00  0.00    -0.181 A  
HETATM   32  C   UNK A   0     -13.263  12.680  71.889  1.00  0.00    -0.403 C  
HETATM   33  O   UNK A   0     -13.972  12.299  72.816  1.00  0.00     0.067 OA 
HETATM   34  C   UNK A   0     -12.391  14.336  70.546  1.00  0.00    -0.360 C  
ENDBRANCH  21  22
ENDBRANCH   2  21
TORSDOF 7
ENDMDL
MODEL      246
REMARK 921   NORMALIZED FREE ENERGY PREDICTED BY IDOCK:   -4.21 KCAL/MOL
REMARK 922        TOTAL FREE ENERGY PREDICTED BY IDOCK:   -7.06 KCAL/MOL
REMARK 923 INTER-LIGAND FREE ENERGY PREDICTED BY IDOCK:   -6.03 KCAL/MOL
REMARK 924 INTRA-LIGAND FREE ENERGY PREDICTED BY IDOCK:   -1.04 KCAL/MOL
REMARK 927      BINDING AFFINITY PREDICTED BY RF-SCORE:    0.00 PKD
ROOT
HETATM    1  C   UNK A   0      -9.552   9.931  62.907  1.00  0.00     0.078 C  
HETATM    2  N   UNK A   0      -9.226   9.564  64.282  1.00  0.00    -0.420 NA 
ENDROOT
BRANCH   2   3
HETATM    3  C   UNK A   0      -9.741  10.326  65.299  1.00  0.00    -0.291 A  
HETATM    4  C   UNK A   0     -10.929  11.015  67.196  1.00  0.00    -0.344 A  
HETATM    5  C   UNK A   0     -10.317   9.929  66.492  1.00  0.00    -0.259 A  
HETATM    6  S   UNK A   0      -9.709  12.038  65.211  1.00  0.00    -0.105 SA 
HETATM    7  C   UNK A   0     -10.747  12.221  66.549  1.00  0.00    -0.246 A  
BRANCH   7   8
HETATM    8  C   UNK A   0     -11.341  13.510  66.857  1.00  0.00    -0.326 C  
HETATM    9  O   UNK A   0     -12.532  13.664  67.107  1.00  0.00    -0.263 OA 
ATOM     10  N   GLU A   1     -10.469  14.587  66.800  1.00  0.00    -0.268 N  
ATOM     11  H   GLU A   1      -9.492  14.425  66.553  1.00  0.00     0.000 HD 
BRANCH  10  12
ATOM     12  CA  GLU A   1     -10.919  15.952  67.087  1.00  0.00    -0.214 C  
ATOM     13  C   GLU A   1     -10.272  16.934  66.092  1.00  0.00    -0.341 C  
ATOM     14  O   GLU A   1      -9.098  16.495  65.575  1.00  0.00    -0.404 OA 
ATOM     15  OXT GLU A   1     -10.684  18.068  65.889  1.00  0.00    -0.349 OA 
BRANCH  12  16
ATOM     16  CB  GLU A   1     -10.540  16.321  68.526  1.00  0.00    -0.294 C  
BRANCH  16  17
ATOM     17  CG  GLU A   1     -11.741  16.310  69.472  1.00  0.00    -0.094 C  
ATOM     18  CD  GLU A   1     -11.351  15.936  70.879  1.00  0.00    -0.391 C  
ATOM     19  OE2 GLU A   1     -10.415  15.213  71.167  1.00  0.00     0.046 OA 
ATOM     20  OE1 GLU A   1     -12.181  16.463  71.808  1.00  0.00    -0.356 OA 
ENDBRANCH  16  17
ENDBRANCH  12  16
ENDBRANCH  10  12
ENDBRANCH   7   8
ENDBRANCH   2   3
BRANCH   2  21
HETATM   21  C   UNK A   0      -7.861   9.041  64.492  1.00  0.00    -0.123 C  
BRANCH  21  22
HETATM   22  C   UNK A   0      -7.889   7.650  65.086  1.00  0.00    -0.124 A  
HETATM   23  C   UNK A   0      -7.704   6.161  66.998  1.00  0.00    -0.100 A  
HETATM   24  C   UNK A   0      -7.978   5.055  66.194  1.00  0.00    -0.107 A  
HETATM   25  C   UNK A   0      -7.656   7.449  66.455  1.00  0.00    -0.092 A  
HETATM   26  H   UNK A   0      -7.485   4.463  69.950  1.00  0.00     0.000 HD 
HETATM   27  C   UNK A   0      -8.183   5.244  64.828  1.00  0.00    -0.130 A  
HETATM   28  C   UNK A   0      -8.002   2.288  68.732  1.00  0.00    -0.062 C  
HETATM   29  N   UNK A   0      -8.010   3.789  66.779  1.00  0.00    -0.095 NA 
HETATM   30  N   UNK A   0      -7.596   4.640  68.951  1.00  0.00    -0.064 N  
HETATM   31  C   UNK A   0      -8.146   6.532  64.281  1.00  0.00    -0.051 A  
HETATM   32  C   UNK A   0      -7.473   5.920  68.447  1.00  0.00    -0.086 C  
HETATM   33  O   UNK A   0      -7.176   6.880  69.152  1.00  0.00    -0.085 OA 
HETATM   34  C   UNK A   0      -7.855   3.669  68.134  1.00  0.00    -0.068 C  
ENDBRANCH  21  22
ENDBRANCH   2  21
TORSDOF 7
ENDMDL
MODEL      247
REMARK 921   NORMALIZED FREE ENERGY PREDICTED BY IDOCK:   -4.21 KCAL/MOL
REMARK 922        TOTAL FREE ENERGY PREDICTED BY IDOCK:   -7.06 KCAL/MOL
REMARK 923 INTER-LIGAND FREE ENERGY PREDICTED BY IDOCK:   -6.80 KCAL/MOL
REMARK 924 INTRA-LIGAND FREE ENERGY PREDICTED BY IDOCK:   -0.26 KCAL/MOL
REMARK 927      BINDING AFFINITY PREDICTED BY RF-SCORE:    0.00 PKD
ROOT
HETATM    1  C   UNK A   0     -10.688   8.710  72.460  1.00  0.00    -0.144 C  
HETATM    2  N   UNK A   0     -11.618   8.134  71.493  1.00  0.00    -0.265 NA 
ENDROOT
BRANCH   2   3
HETATM    3  C   UNK A   0     -11.104   7.451  70.422  1.00  0.00    -0.265 A  
HETATM    4  C   UNK A   0     -10.718   5.822  68.785  1.00  0.00    -0.318 A  
HETATM    5  C   UNK A   0     -11.654   6.412  69.694  1.00  0.00    -0.351 A  
HETATM    6  S   UNK A   0      -9.568   7.861  69.779  1.00  0.00    -0.168 SA 
HETATM    7  C   UNK A   0      -9.499   6.468  68.802  1.00  0.00    -0.128 A  
BRANCH   7   8
HETATM    8  C   UNK A   0      -8.260   6.078  68.151  1.00  0.00    -0.113 C  
HETATM    9  O   UNK A   0      -7.219   5.852  68.757  1.00  0.00    -0.078 OA 
ATOM     10  N   GLU A   1      -8.318   6.025  66.765  1.00  0.00    -0.106 N  
ATOM     11  H   GLU A   1      -9.192   6.254  66.293  1.00  0.00     0.000 HD 
BRANCH  10  12
ATOM     12  CA  GLU A   1      -7.149   5.646  65.966  1.00  0.00    -0.068 C  
ATOM     13  C   GLU A   1      -6.981   6.627  64.791  1.00  0.00    -0.054 C  
ATOM     14  O   GLU A   1      -8.135   7.232  64.415  1.00  0.00    -0.132 OA 
ATOM     15  OXT GLU A   1      -5.947   6.751  64.149  1.00  0.00    -0.034 OA 
BRANCH  12  16
ATOM     16  CB  GLU A   1      -7.330   4.215  65.447  1.00  0.00    -0.072 C  
BRANCH  16  17
ATOM     17  CG  GLU A   1      -7.895   4.170  64.027  1.00  0.00    -0.084 C  
ATOM     18  CD  GLU A   1      -7.870   2.778  63.451  1.00  0.00    -0.072 C  
ATOM     19  OE2 GLU A   1      -7.058   1.921  63.749  1.00  0.00    -0.034 OA 
ATOM     20  OE1 GLU A   1      -8.836   2.580  62.524  1.00  0.00    -0.074 OA 
ENDBRANCH  16  17
ENDBRANCH  12  16
ENDBRANCH  10  12
ENDBRANCH   7   8
ENDBRANCH   2   3
BRANCH   2  21
HETATM   21  C   UNK A   0     -12.833   8.931  71.231  1.00  0.00    -0.229 C  
BRANCH  21  22
HETATM   22  C   UNK A   0     -12.486  10.327  70.760  1.00  0.00    -0.439 A  
HETATM   23  C   UNK A   0     -12.477  12.733  71.100  1.00  0.00    -0.335 A  
HETATM   24  C   UNK A   0     -11.804  12.925  69.893  1.00  0.00    -0.303 A  
HETATM   25  C   UNK A   0     -12.820  11.449  71.533  1.00  0.00    -0.508 A  
HETATM   26  H   UNK A   0     -12.570  16.015  72.029  1.00  0.00     0.000 HD 
HETATM   27  C   UNK A   0     -11.494  11.817  69.106  1.00  0.00    -0.358 A  
HETATM   28  C   UNK A   0     -11.313  16.647  69.908  1.00  0.00     0.093 C  
HETATM   29  N   UNK A   0     -11.488  14.224  69.498  1.00  0.00    -0.274 NA 
HETATM   30  N   UNK A   0     -12.391  15.182  71.469  1.00  0.00    -0.317 N  
HETATM   31  C   UNK A   0     -11.826  10.529  69.540  1.00  0.00    -0.287 A  
HETATM   32  C   UNK A   0     -12.808  13.939  71.903  1.00  0.00    -0.322 C  
HETATM   33  O   UNK A   0     -13.449  13.784  72.939  1.00  0.00    -0.652 OA 
HETATM   34  C   UNK A   0     -11.769  15.271  70.336  1.00  0.00    -0.310 C  
ENDBRANCH  21  22
ENDBRANCH   2  21
TORSDOF 7
ENDMDL
MODEL      248
REMARK 921   NORMALIZED FREE ENERGY PREDICTED BY IDOCK:   -4.21 KCAL/MOL
REMARK 922        TOTAL FREE ENERGY PREDICTED BY IDOCK:   -7.06 KCAL/MOL
REMARK 923 INTER-LIGAND FREE ENERGY PREDICTED BY IDOCK:   -5.71 KCAL/MOL
REMARK 924 INTRA-LIGAND FREE ENERGY PREDICTED BY IDOCK:   -1.35 KCAL/MOL
REMARK 927      BINDING AFFINITY PREDICTED BY RF-SCORE:    0.00 PKD
ROOT
HETATM    1  C   UNK A   0      -5.761  13.900  71.554  1.00  0.00    -0.210 C  
HETATM    2  N   UNK A   0      -6.337  13.808  70.215  1.00  0.00    -0.358 NA 
ENDROOT
BRANCH   2   3
HETATM    3  C   UNK A   0      -5.984  12.744  69.426  1.00  0.00    -0.104 A  
HETATM    4  C   UNK A   0      -5.307  11.440  67.603  1.00  0.00    -0.050 A  
HETATM    5  C   UNK A   0      -5.291  12.727  68.229  1.00  0.00    -0.068 A  
HETATM    6  S   UNK A   0      -6.383  11.142  69.889  1.00  0.00    -0.142 SA 
HETATM    7  C   UNK A   0      -5.960  10.496  68.370  1.00  0.00    -0.043 A  
BRANCH   7   8
HETATM    8  C   UNK A   0      -6.321   9.135  68.016  1.00  0.00    -0.055 C  
HETATM    9  O   UNK A   0      -5.717   8.471  67.180  1.00  0.00    -0.037 OA 
ATOM     10  N   GLU A   1      -7.446   8.640  68.660  1.00  0.00    -0.094 N  
ATOM     11  H   GLU A   1      -7.943   9.234  69.322  1.00  0.00     0.000 HD 
BRANCH  10  12
ATOM     12  CA  GLU A   1      -7.934   7.281  68.408  1.00  0.00    -0.124 C  
ATOM     13  C   GLU A   1      -9.003   7.309  67.300  1.00  0.00    -0.123 C  
ATOM     14  O   GLU A   1      -9.642   8.499  67.185  1.00  0.00    -0.157 OA 
ATOM     15  OXT GLU A   1      -9.360   6.321  66.673  1.00  0.00    -0.140 OA 
BRANCH  12  16
ATOM     16  CB  GLU A   1      -8.519   6.703  69.702  1.00  0.00    -0.132 C  
BRANCH  16  17
ATOM     17  CG  GLU A   1      -8.984   7.787  70.674  1.00  0.00    -0.145 C  
ATOM     18  CD  GLU A   1     -10.482   7.804  70.831  1.00  0.00    -0.206 C  
ATOM     19  OE2 GLU A   1     -11.270   7.461  69.969  1.00  0.00    -0.251 OA 
ATOM     20  OE1 GLU A   1     -10.875   8.280  72.034  1.00  0.00    -0.257 OA 
ENDBRANCH  16  17
ENDBRANCH  12  16
ENDBRANCH  10  12
ENDBRANCH   7   8
ENDBRANCH   2   3
BRANCH   2  21
HETATM   21  C   UNK A   0      -6.529  15.095  69.519  1.00  0.00    -0.151 C  
BRANCH  21  22
HETATM   22  C   UNK A   0      -7.618  14.999  68.473  1.00  0.00    -0.118 A  
HETATM   23  C   UNK A   0      -9.779  14.163  67.738  1.00  0.00    -0.223 A  
HETATM   24  C   UNK A   0      -9.663  14.854  66.532  1.00  0.00    -0.276 A  
HETATM   25  C   UNK A   0      -8.769  14.229  68.702  1.00  0.00    -0.150 A  
HETATM   26  H   UNK A   0     -12.885  12.875  67.162  1.00  0.00     0.000 HD 
HETATM   27  C   UNK A   0      -8.511  15.600  66.285  1.00  0.00    -0.187 A  
HETATM   28  C   UNK A   0     -12.955  14.060  64.911  1.00  0.00    -0.066 C  
HETATM   29  N   UNK A   0     -10.693  14.754  65.597  1.00  0.00    -0.316 NA 
HETATM   30  N   UNK A   0     -12.014  13.381  67.008  1.00  0.00    -0.389 N  
HETATM   31  C   UNK A   0      -7.501  15.676  67.252  1.00  0.00    -0.257 A  
HETATM   32  C   UNK A   0     -11.013  13.363  67.959  1.00  0.00    -0.244 C  
HETATM   33  O   UNK A   0     -11.098  12.708  68.993  1.00  0.00    -0.253 OA 
HETATM   34  C   UNK A   0     -11.826  14.051  65.915  1.00  0.00    -0.383 C  
ENDBRANCH  21  22
ENDBRANCH   2  21
TORSDOF 7
ENDMDL
MODEL      249
REMARK 921   NORMALIZED FREE ENERGY PREDICTED BY IDOCK:   -4.17 KCAL/MOL
REMARK 922        TOTAL FREE ENERGY PREDICTED BY IDOCK:   -7.01 KCAL/MOL
REMARK 923 INTER-LIGAND FREE ENERGY PREDICTED BY IDOCK:   -7.13 KCAL/MOL
REMARK 924 INTRA-LIGAND FREE ENERGY PREDICTED BY IDOCK:    0.12 KCAL/MOL
REMARK 927      BINDING AFFINITY PREDICTED BY RF-SCORE:    0.00 PKD
ROOT
HETATM    1  C   UNK A   0      -9.915  17.127  68.048  1.00  0.00    -0.295 C  
HETATM    2  N   UNK A   0     -10.301  15.746  68.318  1.00  0.00    -0.235 NA 
ENDROOT
BRANCH   2   3
HETATM    3  C   UNK A   0      -9.613  14.743  67.685  1.00  0.00    -0.208 A  
HETATM    4  C   UNK A   0      -8.923  13.153  66.110  1.00  0.00     0.198 A  
HETATM    5  C   UNK A   0      -9.598  14.393  66.347  1.00  0.00    -0.320 A  
HETATM    6  S   UNK A   0      -8.565  13.710  68.566  1.00  0.00    -0.046 SA 
HETATM    7  C   UNK A   0      -8.387  12.624  67.266  1.00  0.00    -0.189 A  
BRANCH   7   8
HETATM    8  C   UNK A   0      -7.775  11.322  67.466  1.00  0.00    -0.122 C  
HETATM    9  O   UNK A   0      -6.563  11.145  67.515  1.00  0.00    -0.064 OA 
ATOM     10  N   GLU A   1      -8.666  10.261  67.550  1.00  0.00    -0.125 N  
ATOM     11  H   GLU A   1      -9.666  10.443  67.470  1.00  0.00     0.000 HD 
BRANCH  10  12
ATOM     12  CA  GLU A   1      -8.200   8.887  67.753  1.00  0.00    -0.110 C  
ATOM     13  C   GLU A   1      -9.072   7.916  66.936  1.00  0.00    -0.143 C  
ATOM     14  O   GLU A   1     -10.319   8.384  66.678  1.00  0.00    -0.303 OA 
ATOM     15  OXT GLU A   1      -8.745   6.768  66.664  1.00  0.00    -0.118 OA 
BRANCH  12  16
ATOM     16  CB  GLU A   1      -8.267   8.541  69.245  1.00  0.00    -0.115 C  
BRANCH  16  17
ATOM     17  CG  GLU A   1      -8.124   7.043  69.510  1.00  0.00    -0.130 C  
ATOM     18  CD  GLU A   1      -8.954   6.592  70.684  1.00  0.00    -0.148 C  
ATOM     19  OE2 GLU A   1      -9.244   7.295  71.634  1.00  0.00    -0.146 OA 
ATOM     20  OE1 GLU A   1      -9.321   5.293  70.595  1.00  0.00    -0.152 OA 
ENDBRANCH  16  17
ENDBRANCH  12  16
ENDBRANCH  10  12
ENDBRANCH   7   8
ENDBRANCH   2   3
BRANCH   2  21
HETATM   21  C   UNK A   0     -11.746  15.517  68.512  1.00  0.00    -0.337 C  
BRANCH  21  22
HETATM   22  C   UNK A   0     -12.026  14.097  68.953  1.00  0.00    -0.376 A  
HETATM   23  C   UNK A   0     -12.724  12.509  70.656  1.00  0.00    -0.132 A  
HETATM   24  C   UNK A   0     -12.582  11.450  69.759  1.00  0.00     0.010 A  
HETATM   25  C   UNK A   0     -12.448  13.822  70.264  1.00  0.00    -0.357 A  
HETATM   26  H   UNK A   0     -13.867  10.657  73.283  1.00  0.00     0.000 HD 
HETATM   27  C   UNK A   0     -12.137  11.712  68.464  1.00  0.00    -0.148 A  
HETATM   28  C   UNK A   0     -13.736   8.555  71.854  1.00  0.00    -0.455 C  
HETATM   29  N   UNK A   0     -12.863  10.156  70.197  1.00  0.00    -0.565 NA 
HETATM   30  N   UNK A   0     -13.508  10.887  72.357  1.00  0.00    -0.460 N  
HETATM   31  C   UNK A   0     -11.869  13.026  68.064  1.00  0.00    -0.391 A  
HETATM   32  C   UNK A   0     -13.182  12.190  72.033  1.00  0.00    -0.391 C  
HETATM   33  O   UNK A   0     -13.257  13.108  72.844  1.00  0.00    -0.386 OA 
HETATM   34  C   UNK A   0     -13.348   9.963  71.463  1.00  0.00    -0.375 C  
ENDBRANCH  21  22
ENDBRANCH   2  21
TORSDOF 7
ENDMDL
MODEL      250
REMARK 921   NORMALIZED FREE ENERGY PREDICTED BY IDOCK:   -4.17 KCAL/MOL
REMARK 922        TOTAL FREE ENERGY PREDICTED BY IDOCK:   -7.00 KCAL/MOL
REMARK 923 INTER-LIGAND FREE ENERGY PREDICTED BY IDOCK:   -6.33 KCAL/MOL
REMARK 924 INTRA-LIGAND FREE ENERGY PREDICTED BY IDOCK:   -0.67 KCAL/MOL
REMARK 927      BINDING AFFINITY PREDICTED BY RF-SCORE:    0.00 PKD
ROOT
HETATM    1  C   UNK A   0     -11.747  13.305  67.819  1.00  0.00    -0.358 C  
HETATM    2  N   UNK A   0     -11.328  12.311  66.836  1.00  0.00    -0.312 NA 
ENDROOT
BRANCH   2   3
HETATM    3  C   UNK A   0     -10.603  11.231  67.270  1.00  0.00    -0.233 A  
HETATM    4  C   UNK A   0      -9.797   9.053  67.569  1.00  0.00    -0.230 A  
HETATM    5  C   UNK A   0     -10.467   9.976  66.705  1.00  0.00    -0.244 A  
HETATM    6  S   UNK A   0      -9.665  11.327  68.703  1.00  0.00    -0.170 SA 
HETATM    7  C   UNK A   0      -9.385   9.647  68.745  1.00  0.00    -0.148 A  
BRANCH   7   8
HETATM    8  C   UNK A   0      -8.821   9.018  69.926  1.00  0.00    -0.158 C  
HETATM    9  O   UNK A   0      -8.974   9.453  71.063  1.00  0.00    -0.231 OA 
ATOM     10  N   GLU A   1      -8.039   7.899  69.679  1.00  0.00    -0.115 N  
ATOM     11  H   GLU A   1      -7.905   7.587  68.717  1.00  0.00     0.000 HD 
BRANCH  10  12
ATOM     12  CA  GLU A   1      -7.403   7.154  70.769  1.00  0.00    -0.072 C  
ATOM     13  C   GLU A   1      -5.880   7.380  70.735  1.00  0.00    -0.031 C  
ATOM     14  O   GLU A   1      -5.403   7.706  69.508  1.00  0.00    -0.022 OA 
ATOM     15  OXT GLU A   1      -5.135   7.147  71.677  1.00  0.00    -0.027 OA 
BRANCH  12  16
ATOM     16  CB  GLU A   1      -7.727   5.663  70.624  1.00  0.00    -0.092 C  
BRANCH  16  17
ATOM     17  CG  GLU A   1      -7.729   5.200  69.167  1.00  0.00    -0.080 C  
ATOM     18  CD  GLU A   1      -9.058   4.619  68.758  1.00  0.00    -0.116 C  
ATOM     19  OE2 GLU A   1      -9.830   4.061  69.516  1.00  0.00    -0.195 OA 
ATOM     20  OE1 GLU A   1      -9.298   4.750  67.433  1.00  0.00    -0.124 OA 
ENDBRANCH  16  17
ENDBRANCH  12  16
ENDBRANCH  10  12
ENDBRANCH   7   8
ENDBRANCH   2   3
BRANCH   2  21
HETATM   21  C   UNK A   0     -10.961  12.846  65.510  1.00  0.00    -0.274 C  
BRANCH  21  22
HETATM   22  C   UNK A   0     -10.458  14.269  65.609  1.00  0.00    -0.336 A  
HETATM   23  C   UNK A   0      -8.723  15.863  66.208  1.00  0.00    -0.372 A  
HETATM   24  C   UNK A   0      -9.509  16.924  65.757  1.00  0.00     0.005 A  
HETATM   25  C   UNK A   0      -9.188  14.546  66.139  1.00  0.00    -0.175 A  
HETATM   26  H   UNK A   0      -5.997  17.725  67.069  1.00  0.00     0.000 HD 
HETATM   27  C   UNK A   0     -10.783  16.659  65.256  1.00  0.00    -0.219 A  
HETATM   28  C   UNK A   0      -7.194  19.832  66.286  1.00  0.00    -0.276 C  
HETATM   29  N   UNK A   0      -9.006  18.221  65.851  1.00  0.00    -0.460 NA 
HETATM   30  N   UNK A   0      -6.934  17.492  66.740  1.00  0.00    -0.184 N  
HETATM   31  C   UNK A   0     -11.249  15.342  65.176  1.00  0.00    -0.374 A  
HETATM   32  C   UNK A   0      -7.378  16.185  66.754  1.00  0.00    -0.185 C  
HETATM   33  O   UNK A   0      -6.702  15.264  67.203  1.00  0.00    -0.276 OA 
HETATM   34  C   UNK A   0      -7.728  18.418  66.303  1.00  0.00    -0.247 C  
ENDBRANCH  21  22
ENDBRANCH   2  21
TORSDOF 7
ENDMDL
MODEL      251
REMARK 921   NORMALIZED FREE ENERGY PREDICTED BY IDOCK:   -4.13 KCAL/MOL
REMARK 922        TOTAL FREE ENERGY PREDICTED BY IDOCK:   -6.95 KCAL/MOL
REMARK 923 INTER-LIGAND FREE ENERGY PREDICTED BY IDOCK:   -5.47 KCAL/MOL
REMARK 924 INTRA-LIGAND FREE ENERGY PREDICTED BY IDOCK:   -1.48 KCAL/MOL
REMARK 927      BINDING AFFINITY PREDICTED BY RF-SCORE:    0.00 PKD
ROOT
HETATM    1  C   UNK A   0      -6.986   5.067  64.166  1.00  0.00    -0.049 C  
HETATM    2  N   UNK A   0      -7.601   6.230  64.800  1.00  0.00    -0.086 NA 
ENDROOT
BRANCH   2   3
HETATM    3  C   UNK A   0      -8.544   6.018  65.772  1.00  0.00    -0.155 A  
HETATM    4  C   UNK A   0     -10.573   5.932  66.938  1.00  0.00    -0.384 A  
HETATM    5  C   UNK A   0      -9.921   5.954  65.664  1.00  0.00     0.403 A  
HETATM    6  S   UNK A   0      -8.077   5.761  67.402  1.00  0.00    -0.101 SA 
HETATM    7  C   UNK A   0      -9.670   5.918  67.983  1.00  0.00    -0.119 A  
BRANCH   7   8
HETATM    8  C   UNK A   0      -9.932   6.052  69.405  1.00  0.00    -0.174 C  
HETATM    9  O   UNK A   0     -10.351   5.138  70.106  1.00  0.00    -0.273 OA 
ATOM     10  N   GLU A   1      -9.719   7.322  69.923  1.00  0.00    -0.174 N  
ATOM     11  H   GLU A   1      -9.403   8.067  69.303  1.00  0.00     0.000 HD 
BRANCH  10  12
ATOM     12  CA  GLU A   1      -9.937   7.615  71.342  1.00  0.00    -0.181 C  
ATOM     13  C   GLU A   1     -11.217   8.455  71.510  1.00  0.00    -0.267 C  
ATOM     14  O   GLU A   1     -11.544   9.179  70.411  1.00  0.00    -0.242 OA 
ATOM     15  OXT GLU A   1     -11.812   8.587  72.571  1.00  0.00    -0.384 OA 
BRANCH  12  16
ATOM     16  CB  GLU A   1      -8.724   8.369  71.899  1.00  0.00    -0.258 C  
BRANCH  16  17
ATOM     17  CG  GLU A   1      -7.400   7.680  71.571  1.00  0.00    -0.071 C  
ATOM     18  CD  GLU A   1      -7.294   6.320  72.213  1.00  0.00    -0.092 C  
ATOM     19  OE2 GLU A   1      -7.837   6.006  73.256  1.00  0.00    -0.104 OA 
ATOM     20  OE1 GLU A   1      -6.492   5.479  71.523  1.00  0.00    -0.040 OA 
ENDBRANCH  16  17
ENDBRANCH  12  16
ENDBRANCH  10  12
ENDBRANCH   7   8
ENDBRANCH   2   3
BRANCH   2  21
HETATM   21  C   UNK A   0      -7.833   7.386  63.913  1.00  0.00    -0.117 C  
BRANCH  21  22
HETATM   22  C   UNK A   0      -7.943   8.673  64.701  1.00  0.00    -0.141 A  
HETATM   23  C   UNK A   0      -9.141  10.709  65.273  1.00  0.00    -0.221 A  
HETATM   24  C   UNK A   0      -8.160  11.054  66.202  1.00  0.00    -0.141 A  
HETATM   25  C   UNK A   0      -9.038   9.532  64.525  1.00  0.00    -0.250 A  
HETATM   26  H   UNK A   0     -11.197  13.368  65.860  1.00  0.00     0.000 HD 
HETATM   27  C   UNK A   0      -7.054  10.220  66.363  1.00  0.00    -0.112 A  
HETATM   28  C   UNK A   0      -9.587  14.215  67.640  1.00  0.00    -0.216 C  
HETATM   29  N   UNK A   0      -8.301  12.240  66.922  1.00  0.00    -0.292 NA 
HETATM   30  N   UNK A   0     -10.390  12.748  65.923  1.00  0.00    -0.277 N  
HETATM   31  C   UNK A   0      -6.952   9.036  65.623  1.00  0.00    -0.080 A  
HETATM   32  C   UNK A   0     -10.296  11.632  65.115  1.00  0.00    -0.279 C  
HETATM   33  O   UNK A   0     -11.136  11.364  64.261  1.00  0.00    -0.346 OA 
HETATM   34  C   UNK A   0      -9.434  12.994  66.762  1.00  0.00    -0.250 C  
ENDBRANCH  21  22
ENDBRANCH   2  21
TORSDOF 7
ENDMDL
MODEL      252
REMARK 921   NORMALIZED FREE ENERGY PREDICTED BY IDOCK:   -4.13 KCAL/MOL
REMARK 922        TOTAL FREE ENERGY PREDICTED BY IDOCK:   -6.94 KCAL/MOL
REMARK 923 INTER-LIGAND FREE ENERGY PREDICTED BY IDOCK:   -6.07 KCAL/MOL
REMARK 924 INTRA-LIGAND FREE ENERGY PREDICTED BY IDOCK:   -0.88 KCAL/MOL
REMARK 927      BINDING AFFINITY PREDICTED BY RF-SCORE:    0.00 PKD
ROOT
HETATM    1  C   UNK A   0      -9.697  12.903  66.088  1.00  0.00    -0.248 C  
HETATM    2  N   UNK A   0      -8.662  12.183  66.825  1.00  0.00    -0.225 NA 
ENDROOT
BRANCH   2   3
HETATM    3  C   UNK A   0      -8.999  11.000  67.432  1.00  0.00    -0.141 A  
HETATM    4  C   UNK A   0      -9.871   9.423  68.927  1.00  0.00    -0.176 A  
HETATM    5  C   UNK A   0      -9.969  10.744  68.383  1.00  0.00    -0.174 A  
HETATM    6  S   UNK A   0      -8.186   9.546  67.025  1.00  0.00    -0.113 SA 
HETATM    7  C   UNK A   0      -8.866   8.689  68.331  1.00  0.00    -0.142 A  
BRANCH   7   8
HETATM    8  C   UNK A   0      -8.355   7.383  68.708  1.00  0.00    -0.129 C  
HETATM    9  O   UNK A   0      -7.620   6.712  67.992  1.00  0.00    -0.102 OA 
ATOM     10  N   GLU A   1      -8.799   6.910  69.934  1.00  0.00    -0.142 N  
ATOM     11  H   GLU A   1      -9.439   7.481  70.487  1.00  0.00     0.000 HD 
BRANCH  10  12
ATOM     12  CA  GLU A   1      -8.370   5.609  70.453  1.00  0.00    -0.119 C  
ATOM     13  C   GLU A   1      -9.572   4.648  70.510  1.00  0.00    -0.198 C  
ATOM     14  O   GLU A   1     -10.769   5.276  70.615  1.00  0.00    -0.230 OA 
ATOM     15  OXT GLU A   1      -9.469   3.432  70.603  1.00  0.00    -0.150 OA 
BRANCH  12  16
ATOM     16  CB  GLU A   1      -7.764   5.793  71.850  1.00  0.00    -0.105 C  
BRANCH  16  17
ATOM     17  CG  GLU A   1      -6.455   6.581  71.825  1.00  0.00    -0.046 C  
ATOM     18  CD  GLU A   1      -6.619   7.969  72.389  1.00  0.00    -0.075 C  
ATOM     19  OE2 GLU A   1      -7.652   8.613  72.351  1.00  0.00    -0.296 OA 
ATOM     20  OE1 GLU A   1      -5.474   8.455  72.920  1.00  0.00    -0.047 OA 
ENDBRANCH  16  17
ENDBRANCH  12  16
ENDBRANCH  10  12
ENDBRANCH   7   8
ENDBRANCH   2   3
BRANCH   2  21
HETATM   21  C   UNK A   0      -7.694  13.029  67.549  1.00  0.00    -0.168 C  
BRANCH  21  22
HETATM   22  C   UNK A   0      -8.285  14.382  67.882  1.00  0.00    -0.157 A  
HETATM   23  C   UNK A   0      -8.464  16.771  67.474  1.00  0.00    -0.203 A  
HETATM   24  C   UNK A   0      -9.418  16.896  68.484  1.00  0.00    -0.266 A  
HETATM   25  C   UNK A   0      -7.898  15.529  67.172  1.00  0.00    -0.256 A  
HETATM   26  H   UNK A   0      -8.499  20.037  66.487  1.00  0.00     0.000 HD 
HETATM   27  C   UNK A   0      -9.787  15.766  69.212  1.00  0.00    -0.265 A  
HETATM   28  C   UNK A   0     -10.277  20.543  68.237  1.00  0.00    -0.127 C  
HETATM   29  N   UNK A   0      -9.952  18.156  68.753  1.00  0.00    -0.380 NA 
HETATM   30  N   UNK A   0      -8.716  19.193  67.017  1.00  0.00    -0.287 N  
HETATM   31  C   UNK A   0      -9.229  14.519  68.908  1.00  0.00    -0.118 A  
HETATM   32  C   UNK A   0      -8.082  18.001  66.731  1.00  0.00    -0.242 C  
HETATM   33  O   UNK A   0      -7.204  17.910  65.878  1.00  0.00    -0.399 OA 
HETATM   34  C   UNK A   0      -9.592  19.222  67.971  1.00  0.00    -0.340 C  
ENDBRANCH  21  22
ENDBRANCH   2  21
TORSDOF 7
ENDMDL
MODEL      253
REMARK 921   NORMALIZED FREE ENERGY PREDICTED BY IDOCK:   -4.11 KCAL/MOL
REMARK 922        TOTAL FREE ENERGY PREDICTED BY IDOCK:   -6.92 KCAL/MOL
REMARK 923 INTER-LIGAND FREE ENERGY PREDICTED BY IDOCK:   -6.18 KCAL/MOL
REMARK 924 INTRA-LIGAND FREE ENERGY PREDICTED BY IDOCK:   -0.74 KCAL/MOL
REMARK 927      BINDING AFFINITY PREDICTED BY RF-SCORE:    0.00 PKD
ROOT
HETATM    1  C   UNK A   0     -11.015   7.192  66.955  1.00  0.00    -0.234 C  
HETATM    2  N   UNK A   0     -10.340   7.521  68.207  1.00  0.00    -0.193 NA 
ENDROOT
BRANCH   2   3
HETATM    3  C   UNK A   0      -9.877   8.799  68.381  1.00  0.00    -0.171 A  
HETATM    4  C   UNK A   0      -9.569  10.975  69.189  1.00  0.00    -0.081 A  
HETATM    5  C   UNK A   0     -10.002   9.641  69.471  1.00  0.00    -0.223 A  
HETATM    6  S   UNK A   0      -8.977   9.579  67.146  1.00  0.00    -0.134 SA 
HETATM    7  C   UNK A   0      -9.068  11.099  67.908  1.00  0.00    -0.150 A  
BRANCH   7   8
HETATM    8  C   UNK A   0      -8.683  12.308  67.201  1.00  0.00    -0.193 C  
HETATM    9  O   UNK A   0      -7.534  12.547  66.845  1.00  0.00    -0.054 OA 
ATOM     10  N   GLU A   1      -9.710  13.218  66.992  1.00  0.00    -0.232 N  
ATOM     11  H   GLU A   1     -10.646  13.001  67.334  1.00  0.00     0.000 HD 
BRANCH  10  12
ATOM     12  CA  GLU A   1      -9.478  14.484  66.291  1.00  0.00    -0.283 C  
ATOM     13  C   GLU A   1      -9.183  15.598  67.312  1.00  0.00    -0.204 C  
ATOM     14  O   GLU A   1      -9.705  15.366  68.542  1.00  0.00    -0.196 OA 
ATOM     15  OXT GLU A   1      -8.658  16.665  67.023  1.00  0.00    -0.178 OA 
BRANCH  12  16
ATOM     16  CB  GLU A   1     -10.715  14.837  65.456  1.00  0.00    -0.369 C  
BRANCH  16  17
ATOM     17  CG  GLU A   1     -10.995  13.813  64.356  1.00  0.00    -0.356 C  
ATOM     18  CD  GLU A   1     -12.119  12.879  64.724  1.00  0.00    -0.422 C  
ATOM     19  OE2 GLU A   1     -12.405  12.558  65.863  1.00  0.00    -0.626 OA 
ATOM     20  OE1 GLU A   1     -12.769  12.393  63.642  1.00  0.00    -0.710 OA 
ENDBRANCH  16  17
ENDBRANCH  12  16
ENDBRANCH  10  12
ENDBRANCH   7   8
ENDBRANCH   2   3
BRANCH   2  21
HETATM   21  C   UNK A   0      -9.503   6.446  68.777  1.00  0.00    -0.127 C  
BRANCH  21  22
HETATM   22  C   UNK A   0      -9.061   5.467  67.712  1.00  0.00    -0.111 A  
HETATM   23  C   UNK A   0      -7.724   4.931  65.753  1.00  0.00    -0.091 A  
HETATM   24  C   UNK A   0      -8.212   3.624  65.749  1.00  0.00    -0.104 A  
HETATM   25  C   UNK A   0      -8.143   5.849  66.722  1.00  0.00    -0.102 A  
HETATM   26  H   UNK A   0      -5.604   4.575  63.105  1.00  0.00     0.000 HD 
HETATM   27  C   UNK A   0      -9.146   3.245  66.712  1.00  0.00    -0.186 A  
HETATM   28  C   UNK A   0      -6.292   2.134  62.887  1.00  0.00    -0.010 C  
HETATM   29  N   UNK A   0      -7.771   2.745  64.760  1.00  0.00    -0.076 NA 
HETATM   30  N   UNK A   0      -6.309   4.348  63.805  1.00  0.00    -0.029 N  
HETATM   31  C   UNK A   0      -9.560   4.158  67.689  1.00  0.00    -0.213 A  
HETATM   32  C   UNK A   0      -6.745   5.305  64.700  1.00  0.00    -0.047 C  
HETATM   33  O   UNK A   0      -6.353   6.468  64.663  1.00  0.00    -0.036 OA 
HETATM   34  C   UNK A   0      -6.812   3.156  63.872  1.00  0.00    -0.040 C  
ENDBRANCH  21  22
ENDBRANCH   2  21
TORSDOF 7
ENDMDL
MODEL      254
REMARK 921   NORMALIZED FREE ENERGY PREDICTED BY IDOCK:   -4.10 KCAL/MOL
REMARK 922        TOTAL FREE ENERGY PREDICTED BY IDOCK:   -6.91 KCAL/MOL
REMARK 923 INTER-LIGAND FREE ENERGY PREDICTED BY IDOCK:   -5.59 KCAL/MOL
REMARK 924 INTRA-LIGAND FREE ENERGY PREDICTED BY IDOCK:   -1.32 KCAL/MOL
REMARK 927      BINDING AFFINITY PREDICTED BY RF-SCORE:    0.00 PKD
ROOT
HETATM    1  C   UNK A   0      -9.990  14.640  65.689  1.00  0.00    -0.351 C  
HETATM    2  N   UNK A   0     -10.202  13.456  66.516  1.00  0.00    -0.276 NA 
ENDROOT
BRANCH   2   3
HETATM    3  C   UNK A   0      -9.149  12.979  67.253  1.00  0.00    -0.209 A  
HETATM    4  C   UNK A   0      -7.029  12.215  67.888  1.00  0.00    -0.099 A  
HETATM    5  C   UNK A   0      -7.795  13.005  66.973  1.00  0.00     0.015 A  
HETATM    6  S   UNK A   0      -9.413  12.237  68.776  1.00  0.00     0.190 SA 
HETATM    7  C   UNK A   0      -7.814  11.659  68.878  1.00  0.00    -0.040 A  
BRANCH   7   8
HETATM    8  C   UNK A   0      -7.441  10.681  69.885  1.00  0.00    -0.012 C  
HETATM    9  O   UNK A   0      -6.498  10.828  70.655  1.00  0.00    -0.326 OA 
ATOM     10  N   GLU A   1      -8.204   9.522  69.888  1.00  0.00    -0.142 N  
ATOM     11  H   GLU A   1      -8.958   9.419  69.209  1.00  0.00     0.000 HD 
BRANCH  10  12
ATOM     12  CA  GLU A   1      -7.951   8.443  70.847  1.00  0.00    -0.108 C  
ATOM     13  C   GLU A   1      -7.574   7.154  70.093  1.00  0.00    -0.091 C  
ATOM     14  O   GLU A   1      -8.058   7.099  68.827  1.00  0.00    -0.118 OA 
ATOM     15  OXT GLU A   1      -7.020   6.196  70.614  1.00  0.00    -0.060 OA 
BRANCH  12  16
ATOM     16  CB  GLU A   1      -9.203   8.216  71.701  1.00  0.00    -0.220 C  
BRANCH  16  17
ATOM     17  CG  GLU A   1     -10.486   8.191  70.871  1.00  0.00    -0.229 C  
ATOM     18  CD  GLU A   1     -11.235   6.892  71.022  1.00  0.00    -0.282 C  
ATOM     19  OE2 GLU A   1     -10.713   5.819  71.265  1.00  0.00    -0.246 OA 
ATOM     20  OE1 GLU A   1     -12.565   7.030  70.823  1.00  0.00    -0.314 OA 
ENDBRANCH  16  17
ENDBRANCH  12  16
ENDBRANCH  10  12
ENDBRANCH   7   8
ENDBRANCH   2   3
BRANCH   2  21
HETATM   21  C   UNK A   0     -11.106  12.438  65.945  1.00  0.00    -0.313 C  
BRANCH  21  22
HETATM   22  C   UNK A   0     -10.351  11.188  65.551  1.00  0.00    -0.326 A  
HETATM   23  C   UNK A   0      -9.847   8.832  65.869  1.00  0.00    -0.136 A  
HETATM   24  C   UNK A   0      -8.967   8.850  64.786  1.00  0.00    -0.036 A  
HETATM   25  C   UNK A   0     -10.533   9.987  66.254  1.00  0.00    -0.172 A  
HETATM   26  H   UNK A   0      -9.529   5.511  66.585  1.00  0.00     0.000 HD 
HETATM   27  C   UNK A   0      -8.760  10.045  64.100  1.00  0.00    -0.221 A  
HETATM   28  C   UNK A   0      -7.911   5.250  64.638  1.00  0.00    -0.098 C  
HETATM   29  N   UNK A   0      -8.300   7.674  64.442  1.00  0.00    -0.364 NA 
HETATM   30  N   UNK A   0      -9.381   6.412  66.132  1.00  0.00    -0.310 N  
HETATM   31  C   UNK A   0      -9.453  11.202  64.476  1.00  0.00    -0.254 A  
HETATM   32  C   UNK A   0     -10.029   7.543  66.588  1.00  0.00    -0.200 C  
HETATM   33  O   UNK A   0     -10.758   7.532  67.575  1.00  0.00    -0.256 OA 
HETATM   34  C   UNK A   0      -8.582   6.516  65.117  1.00  0.00     0.013 C  
ENDBRANCH  21  22
ENDBRANCH   2  21
TORSDOF 7
ENDMDL
MODEL      255
REMARK 921   NORMALIZED FREE ENERGY PREDICTED BY IDOCK:   -4.09 KCAL/MOL
REMARK 922        TOTAL FREE ENERGY PREDICTED BY IDOCK:   -6.90 KCAL/MOL
REMARK 923 INTER-LIGAND FREE ENERGY PREDICTED BY IDOCK:   -6.51 KCAL/MOL
REMARK 924 INTRA-LIGAND FREE ENERGY PREDICTED BY IDOCK:   -0.39 KCAL/MOL
REMARK 927      BINDING AFFINITY PREDICTED BY RF-SCORE:    0.00 PKD
ROOT
HETATM    1  C   UNK A   0      -7.363   8.439  65.078  1.00  0.00    -0.086 C  
HETATM    2  N   UNK A   0      -7.776   8.357  66.475  1.00  0.00    -0.088 NA 
ENDROOT
BRANCH   2   3
HETATM    3  C   UNK A   0      -8.243   9.492  67.084  1.00  0.00    -0.113 A  
HETATM    4  C   UNK A   0      -8.534  11.268  68.584  1.00  0.00    -0.143 A  
HETATM    5  C   UNK A   0      -7.640  10.292  68.039  1.00  0.00    -0.088 A  
HETATM    6  S   UNK A   0      -9.780  10.134  66.677  1.00  0.00    -0.201 SA 
HETATM    7  C   UNK A   0      -9.777  11.225  67.986  1.00  0.00    -0.179 A  
BRANCH   7   8
HETATM    8  C   UNK A   0     -10.987  11.935  68.363  1.00  0.00    -0.232 C  
HETATM    9  O   UNK A   0     -12.092  11.684  67.895  1.00  0.00    -0.613 OA 
ATOM     10  N   GLU A   1     -10.802  12.969  69.270  1.00  0.00    -0.442 N  
ATOM     11  H   GLU A   1      -9.862  13.171  69.610  1.00  0.00     0.000 HD 
BRANCH  10  12
ATOM     12  CA  GLU A   1     -11.928  13.776  69.748  1.00  0.00    -0.344 C  
ATOM     13  C   GLU A   1     -11.539  15.266  69.745  1.00  0.00    -0.314 C  
ATOM     14  O   GLU A   1     -10.204  15.483  69.850  1.00  0.00    -0.287 OA 
ATOM     15  OXT GLU A   1     -12.348  16.182  69.794  1.00  0.00    -0.126 OA 
BRANCH  12  16
ATOM     16  CB  GLU A   1     -12.312  13.326  71.162  1.00  0.00    -0.323 C  
BRANCH  16  17
ATOM     17  CG  GLU A   1     -13.396  14.205  71.786  1.00  0.00    -0.459 C  
ATOM     18  CD  GLU A   1     -12.881  14.989  72.966  1.00  0.00    -0.471 C  
ATOM     19  OE2 GLU A   1     -11.979  14.623  73.697  1.00  0.00    -0.208 OA 
ATOM     20  OE1 GLU A   1     -13.558  16.144  73.160  1.00  0.00    -0.562 OA 
ENDBRANCH  16  17
ENDBRANCH  12  16
ENDBRANCH  10  12
ENDBRANCH   7   8
ENDBRANCH   2   3
BRANCH   2  21
HETATM   21  C   UNK A   0      -6.973   7.452  67.321  1.00  0.00    -0.083 C  
BRANCH  21  22
HETATM   22  C   UNK A   0      -7.854   6.585  68.194  1.00  0.00    -0.106 A  
HETATM   23  C   UNK A   0      -8.114   4.874  69.901  1.00  0.00    -0.073 A  
HETATM   24  C   UNK A   0      -9.502   4.997  69.846  1.00  0.00    -0.159 A  
HETATM   25  C   UNK A   0      -7.292   5.656  69.083  1.00  0.00    -0.078 A  
HETATM   26  H   UNK A   0      -8.018   2.543  72.390  1.00  0.00     0.000 HD 
HETATM   27  C   UNK A   0     -10.069   5.898  68.945  1.00  0.00    -0.231 A  
HETATM   28  C   UNK A   0     -10.559   2.591  72.527  1.00  0.00    -0.106 C  
HETATM   29  N   UNK A   0     -10.282   4.192  70.676  1.00  0.00     0.004 NA 
HETATM   30  N   UNK A   0      -8.392   3.188  71.695  1.00  0.00    -0.061 N  
HETATM   31  C   UNK A   0      -9.250   6.690  68.132  1.00  0.00    -0.117 A  
HETATM   32  C   UNK A   0      -7.546   3.891  70.860  1.00  0.00    -0.044 C  
HETATM   33  O   UNK A   0      -6.328   3.736  70.875  1.00  0.00    -0.018 OA 
HETATM   34  C   UNK A   0      -9.671   3.364  71.580  1.00  0.00    -0.163 C  
ENDBRANCH  21  22
ENDBRANCH   2  21
TORSDOF 7
ENDMDL
MODEL      256
REMARK 921   NORMALIZED FREE ENERGY PREDICTED BY IDOCK:   -4.07 KCAL/MOL
REMARK 922        TOTAL FREE ENERGY PREDICTED BY IDOCK:   -6.86 KCAL/MOL
REMARK 923 INTER-LIGAND FREE ENERGY PREDICTED BY IDOCK:   -5.48 KCAL/MOL
REMARK 924 INTRA-LIGAND FREE ENERGY PREDICTED BY IDOCK:   -1.39 KCAL/MOL
REMARK 927      BINDING AFFINITY PREDICTED BY RF-SCORE:    0.00 PKD
ROOT
HETATM    1  C   UNK A   0     -10.734  15.358  66.535  1.00  0.00    -0.308 C  
HETATM    2  N   UNK A   0     -10.699  14.059  67.200  1.00  0.00    -0.282 NA 
ENDROOT
BRANCH   2   3
HETATM    3  C   UNK A   0      -9.482  13.550  67.572  1.00  0.00    -0.222 A  
HETATM    4  C   UNK A   0      -7.251  12.839  67.539  1.00  0.00    -0.154 A  
HETATM    5  C   UNK A   0      -8.244  13.701  66.974  1.00  0.00    -0.056 A  
HETATM    6  S   UNK A   0      -9.331  12.584  68.981  1.00  0.00     0.607 SA 
HETATM    7  C   UNK A   0      -7.745  12.099  68.594  1.00  0.00    -0.089 A  
BRANCH   7   8
HETATM    8  C   UNK A   0      -7.104  11.014  69.315  1.00  0.00    -0.123 C  
HETATM    9  O   UNK A   0      -6.346  11.186  70.264  1.00  0.00    -0.155 OA 
ATOM     10  N   GLU A   1      -7.370   9.744  68.823  1.00  0.00    -0.072 N  
ATOM     11  H   GLU A   1      -7.977   9.642  68.009  1.00  0.00     0.000 HD 
BRANCH  10  12
ATOM     12  CA  GLU A   1      -6.797   8.547  69.445  1.00  0.00    -0.046 C  
ATOM     13  C   GLU A   1      -6.452   7.511  68.360  1.00  0.00    -0.045 C  
ATOM     14  O   GLU A   1      -7.189   7.636  67.228  1.00  0.00    -0.085 OA 
ATOM     15  OXT GLU A   1      -5.696   6.565  68.536  1.00  0.00    -0.015 OA 
BRANCH  12  16
ATOM     16  CB  GLU A   1      -7.803   7.963  70.443  1.00  0.00    -0.089 C  
BRANCH  16  17
ATOM     17  CG  GLU A   1      -9.254   8.192  70.021  1.00  0.00    -0.155 C  
ATOM     18  CD  GLU A   1      -9.974   6.899  69.737  1.00  0.00    -0.178 C  
ATOM     19  OE2 GLU A   1      -9.436   5.884  69.335  1.00  0.00    -0.128 OA 
ATOM     20  OE1 GLU A   1     -11.308   6.988  69.942  1.00  0.00    -0.266 OA 
ENDBRANCH  16  17
ENDBRANCH  12  16
ENDBRANCH  10  12
ENDBRANCH   7   8
ENDBRANCH   2   3
BRANCH   2  21
HETATM   21  C   UNK A   0     -11.694  13.077  66.726  1.00  0.00    -0.382 C  
BRANCH  21  22
HETATM   22  C   UNK A   0     -11.032  11.791  66.282  1.00  0.00    -0.346 A  
HETATM   23  C   UNK A   0      -9.831  10.497  64.611  1.00  0.00    -0.404 A  
HETATM   24  C   UNK A   0      -9.765   9.402  65.473  1.00  0.00    -0.230 A  
HETATM   25  C   UNK A   0     -10.459  11.682  65.005  1.00  0.00    -0.336 A  
HETATM   26  H   UNK A   0      -8.066   9.095  62.050  1.00  0.00     0.000 HD 
HETATM   27  C   UNK A   0     -10.356   9.493  66.733  1.00  0.00    -0.298 A  
HETATM   28  C   UNK A   0      -7.765   6.974  63.424  1.00  0.00    -0.118 C  
HETATM   29  N   UNK A   0      -9.134   8.238  65.035  1.00  0.00    -0.379 NA 
HETATM   30  N   UNK A   0      -8.539   9.192  62.948  1.00  0.00    -0.268 N  
HETATM   31  C   UNK A   0     -10.978  10.681  67.135  1.00  0.00    -0.312 A  
HETATM   32  C   UNK A   0      -9.207  10.357  63.270  1.00  0.00    -0.289 C  
HETATM   33  O   UNK A   0      -9.309  11.296  62.485  1.00  0.00    -0.323 OA 
HETATM   34  C   UNK A   0      -8.524   8.223  63.809  1.00  0.00     0.070 C  
ENDBRANCH  21  22
ENDBRANCH   2  21
TORSDOF 7
ENDMDL
MODEL      257
REMARK 921   NORMALIZED FREE ENERGY PREDICTED BY IDOCK:   -4.07 KCAL/MOL
REMARK 922        TOTAL FREE ENERGY PREDICTED BY IDOCK:   -6.86 KCAL/MOL
REMARK 923 INTER-LIGAND FREE ENERGY PREDICTED BY IDOCK:   -6.82 KCAL/MOL
REMARK 924 INTRA-LIGAND FREE ENERGY PREDICTED BY IDOCK:   -0.05 KCAL/MOL
REMARK 927      BINDING AFFINITY PREDICTED BY RF-SCORE:    0.00 PKD
ROOT
HETATM    1  C   UNK A   0      -9.914  15.669  65.670  1.00  0.00    -0.354 C  
HETATM    2  N   UNK A   0     -10.448  14.635  66.550  1.00  0.00    -0.284 NA 
ENDROOT
BRANCH   2   3
HETATM    3  C   UNK A   0      -9.597  14.034  67.441  1.00  0.00    -0.227 A  
HETATM    4  C   UNK A   0      -7.667  13.363  68.584  1.00  0.00    -0.088 A  
HETATM    5  C   UNK A   0      -8.292  14.358  67.767  1.00  0.00    -0.172 A  
HETATM    6  S   UNK A   0     -10.109  12.685  68.368  1.00  0.00    -0.194 SA 
HETATM    7  C   UNK A   0      -8.532  12.338  68.910  1.00  0.00     0.242 A  
BRANCH   7   8
HETATM    8  C   UNK A   0      -8.237  11.083  69.579  1.00  0.00     0.237 C  
HETATM    9  O   UNK A   0      -7.190  10.867  70.180  1.00  0.00    -0.121 OA 
ATOM     10  N   GLU A   1      -9.214  10.106  69.451  1.00  0.00    -0.209 N  
ATOM     11  H   GLU A   1     -10.056  10.310  68.913  1.00  0.00     0.000 HD 
BRANCH  10  12
ATOM     12  CA  GLU A   1      -9.061   8.787  70.072  1.00  0.00    -0.160 C  
ATOM     13  C   GLU A   1      -9.397   7.687  69.048  1.00  0.00    -0.146 C  
ATOM     14  O   GLU A   1     -10.234   8.094  68.062  1.00  0.00    -0.196 OA 
ATOM     15  OXT GLU A   1      -9.070   6.515  69.175  1.00  0.00    -0.136 OA 
BRANCH  12  16
ATOM     16  CB  GLU A   1      -9.989   8.687  71.288  1.00  0.00    -0.315 C  
BRANCH  16  17
ATOM     17  CG  GLU A   1     -11.204   9.609  71.180  1.00  0.00    -0.454 C  
ATOM     18  CD  GLU A   1     -12.486   8.901  71.536  1.00  0.00    -0.324 C  
ATOM     19  OE2 GLU A   1     -12.682   7.709  71.385  1.00  0.00    -0.333 OA 
ATOM     20  OE1 GLU A   1     -13.430   9.743  72.017  1.00  0.00    -0.413 OA 
ENDBRANCH  16  17
ENDBRANCH  12  16
ENDBRANCH  10  12
ENDBRANCH   7   8
ENDBRANCH   2   3
BRANCH   2  21
HETATM   21  C   UNK A   0     -11.478  13.763  65.951  1.00  0.00    -0.322 C  
BRANCH  21  22
HETATM   22  C   UNK A   0     -10.855  12.663  65.120  1.00  0.00    -0.321 A  
HETATM   23  C   UNK A   0      -9.319  10.793  64.895  1.00  0.00    -0.261 A  
HETATM   24  C   UNK A   0      -9.724  10.589  63.576  1.00  0.00    -0.319 A  
HETATM   25  C   UNK A   0      -9.874  11.820  65.664  1.00  0.00    -0.265 A  
HETATM   26  H   UNK A   0      -7.140   8.173  65.054  1.00  0.00     0.000 HD 
HETATM   27  C   UNK A   0     -10.678  11.439  63.019  1.00  0.00    -0.104 A  
HETATM   28  C   UNK A   0      -7.719   7.551  62.654  1.00  0.00    -0.125 C  
HETATM   29  N   UNK A   0      -9.138   9.555  62.845  1.00  0.00    -0.396 NA 
HETATM   30  N   UNK A   0      -7.815   8.836  64.675  1.00  0.00    -0.119 N  
HETATM   31  C   UNK A   0     -11.243  12.463  63.789  1.00  0.00    -0.520 A  
HETATM   32  C   UNK A   0      -8.286   9.878  65.449  1.00  0.00    -0.146 C  
HETATM   33  O   UNK A   0      -7.885  10.086  66.590  1.00  0.00    -0.108 OA 
HETATM   34  C   UNK A   0      -8.245   8.717  63.459  1.00  0.00    -0.164 C  
ENDBRANCH  21  22
ENDBRANCH   2  21
TORSDOF 7
ENDMDL
MODEL      258
REMARK 921   NORMALIZED FREE ENERGY PREDICTED BY IDOCK:   -4.05 KCAL/MOL
REMARK 922        TOTAL FREE ENERGY PREDICTED BY IDOCK:   -6.84 KCAL/MOL
REMARK 923 INTER-LIGAND FREE ENERGY PREDICTED BY IDOCK:   -7.55 KCAL/MOL
REMARK 924 INTRA-LIGAND FREE ENERGY PREDICTED BY IDOCK:    0.71 KCAL/MOL
REMARK 927      BINDING AFFINITY PREDICTED BY RF-SCORE:    0.00 PKD
ROOT
HETATM    1  C   UNK A   0     -10.679  13.244  64.631  1.00  0.00    -0.400 C  
HETATM    2  N   UNK A   0      -9.654  13.824  65.494  1.00  0.00    -0.519 NA 
ENDROOT
BRANCH   2   3
HETATM    3  C   UNK A   0      -9.246  13.110  66.590  1.00  0.00    -0.215 A  
HETATM    4  C   UNK A   0      -7.935  12.189  68.298  1.00  0.00    -0.163 A  
HETATM    5  C   UNK A   0      -8.117  13.266  67.374  1.00  0.00    -0.179 A  
HETATM    6  S   UNK A   0     -10.198  11.817  67.196  1.00  0.00    -0.216 SA 
HETATM    7  C   UNK A   0      -8.965  11.272  68.237  1.00  0.00    -0.172 A  
BRANCH   7   8
HETATM    8  C   UNK A   0      -9.064   9.979  68.892  1.00  0.00    -0.159 C  
HETATM    9  O   UNK A   0     -10.085   9.300  68.896  1.00  0.00    -0.183 OA 
ATOM     10  N   GLU A   1      -7.923   9.574  69.568  1.00  0.00    -0.099 N  
ATOM     11  H   GLU A   1      -7.104  10.182  69.573  1.00  0.00     0.000 HD 
BRANCH  10  12
ATOM     12  CA  GLU A   1      -7.868   8.293  70.277  1.00  0.00    -0.092 C  
ATOM     13  C   GLU A   1      -6.900   8.398  71.470  1.00  0.00    -0.073 C  
ATOM     14  O   GLU A   1      -5.948   9.351  71.320  1.00  0.00    -0.068 OA 
ATOM     15  OXT GLU A   1      -6.882   7.609  72.405  1.00  0.00    -0.058 OA 
BRANCH  12  16
ATOM     16  CB  GLU A   1      -7.409   7.196  69.309  1.00  0.00    -0.091 C  
BRANCH  16  17
ATOM     17  CG  GLU A   1      -8.437   6.074  69.159  1.00  0.00    -0.114 C  
ATOM     18  CD  GLU A   1      -8.308   5.360  67.838  1.00  0.00    -0.099 C  
ATOM     19  OE2 GLU A   1      -7.896   5.874  66.813  1.00  0.00    -0.099 OA 
ATOM     20  OE1 GLU A   1      -8.737   4.079  67.894  1.00  0.00    -0.095 OA 
ENDBRANCH  16  17
ENDBRANCH  12  16
ENDBRANCH  10  12
ENDBRANCH   7   8
ENDBRANCH   2   3
BRANCH   2  21
HETATM   21  C   UNK A   0      -9.723  15.289  65.664  1.00  0.00    -0.325 C  
BRANCH  21  22
HETATM   22  C   UNK A   0     -10.191  15.661  67.054  1.00  0.00    -0.274 A  
HETATM   23  C   UNK A   0     -11.371  15.113  69.107  1.00  0.00    -0.311 A  
HETATM   24  C   UNK A   0     -11.029  16.347  69.661  1.00  0.00    -0.329 A  
HETATM   25  C   UNK A   0     -10.961  14.768  67.816  1.00  0.00    -0.294 A  
HETATM   26  H   UNK A   0     -13.018  13.894  71.836  1.00  0.00     0.000 HD 
HETATM   27  C   UNK A   0     -10.288  17.250  68.900  1.00  0.00    -0.352 A  
HETATM   28  C   UNK A   0     -12.504  16.043  73.100  1.00  0.00    -0.633 C  
HETATM   29  N   UNK A   0     -11.465  16.650  70.951  1.00  0.00    -0.483 NA 
HETATM   30  N   UNK A   0     -12.504  14.538  71.235  1.00  0.00    -0.324 N  
HETATM   31  C   UNK A   0      -9.867  16.905  67.611  1.00  0.00    -0.259 A  
HETATM   32  C   UNK A   0     -12.178  14.183  69.940  1.00  0.00    -0.359 C  
HETATM   33  O   UNK A   0     -12.530  13.119  69.441  1.00  0.00    -0.090 OA 
HETATM   34  C   UNK A   0     -12.145  15.704  71.672  1.00  0.00    -0.426 C  
ENDBRANCH  21  22
ENDBRANCH   2  21
TORSDOF 7
ENDMDL
MODEL      259
REMARK 921   NORMALIZED FREE ENERGY PREDICTED BY IDOCK:   -4.05 KCAL/MOL
REMARK 922        TOTAL FREE ENERGY PREDICTED BY IDOCK:   -6.84 KCAL/MOL
REMARK 923 INTER-LIGAND FREE ENERGY PREDICTED BY IDOCK:   -6.34 KCAL/MOL
REMARK 924 INTRA-LIGAND FREE ENERGY PREDICTED BY IDOCK:   -0.50 KCAL/MOL
REMARK 927      BINDING AFFINITY PREDICTED BY RF-SCORE:    0.00 PKD
ROOT
HETATM    1  C   UNK A   0      -8.380   7.384  65.488  1.00  0.00    -0.135 C  
HETATM    2  N   UNK A   0      -8.331   8.085  66.767  1.00  0.00    -0.114 NA 
ENDROOT
BRANCH   2   3
HETATM    3  C   UNK A   0      -8.473   9.448  66.768  1.00  0.00    -0.127 A  
HETATM    4  C   UNK A   0      -8.218  11.723  67.264  1.00  0.00    -0.163 A  
HETATM    5  C   UNK A   0      -7.619  10.422  67.253  1.00  0.00    -0.095 A  
HETATM    6  S   UNK A   0      -9.860  10.183  66.078  1.00  0.00    -0.260 SA 
HETATM    7  C   UNK A   0      -9.490  11.714  66.729  1.00  0.00    -0.186 A  
BRANCH   7   8
HETATM    8  C   UNK A   0     -10.470  12.785  66.708  1.00  0.00    -0.241 C  
HETATM    9  O   UNK A   0     -11.681  12.595  66.681  1.00  0.00    -0.366 OA 
ATOM     10  N   GLU A   1      -9.938  14.066  66.672  1.00  0.00    -0.270 N  
ATOM     11  H   GLU A   1      -8.925  14.186  66.661  1.00  0.00     0.000 HD 
BRANCH  10  12
ATOM     12  CA  GLU A   1     -10.800  15.251  66.650  1.00  0.00    -0.310 C  
ATOM     13  C   GLU A   1     -10.544  16.058  65.363  1.00  0.00    -0.408 C  
ATOM     14  O   GLU A   1      -9.309  15.869  64.836  1.00  0.00     0.287 OA 
ATOM     15  OXT GLU A   1     -11.310  16.905  64.926  1.00  0.00    -0.425 OA 
BRANCH  12  16
ATOM     16  CB  GLU A   1     -10.514  16.111  67.887  1.00  0.00    -0.290 C  
BRANCH  16  17
ATOM     17  CG  GLU A   1     -10.658  17.608  67.610  1.00  0.00    -0.364 C  
ATOM     18  CD  GLU A   1      -9.347  18.339  67.745  1.00  0.00    -0.271 C  
ATOM     19  OE2 GLU A   1      -8.440  17.998  68.482  1.00  0.00    -0.304 OA 
ATOM     20  OE1 GLU A   1      -9.290  19.452  66.979  1.00  0.00    -0.306 OA 
ENDBRANCH  16  17
ENDBRANCH  12  16
ENDBRANCH  10  12
ENDBRANCH   7   8
ENDBRANCH   2   3
BRANCH   2  21
HETATM   21  C   UNK A   0      -7.386   7.531  67.757  1.00  0.00    -0.103 C  
BRANCH  21  22
HETATM   22  C   UNK A   0      -8.087   7.175  69.050  1.00  0.00    -0.121 A  
HETATM   23  C   UNK A   0      -9.187   5.549  70.482  1.00  0.00    -0.179 A  
HETATM   24  C   UNK A   0      -9.360   6.508  71.479  1.00  0.00    -0.147 A  
HETATM   25  C   UNK A   0      -8.559   5.873  69.276  1.00  0.00    -0.112 A  
HETATM   26  H   UNK A   0     -10.548   2.936  72.203  1.00  0.00     0.000 HD 
HETATM   27  C   UNK A   0      -8.918   7.811  71.252  1.00  0.00    -0.147 A  
HETATM   28  C   UNK A   0     -10.955   4.466  74.196  1.00  0.00    -0.188 C  
HETATM   29  N   UNK A   0      -9.997   6.140  72.664  1.00  0.00    -0.174 NA 
HETATM   30  N   UNK A   0     -10.241   3.883  71.984  1.00  0.00    -0.143 N  
HETATM   31  C   UNK A   0      -8.280   8.138  70.049  1.00  0.00    -0.120 A  
HETATM   32  C   UNK A   0      -9.688   4.175  70.752  1.00  0.00    -0.196 C  
HETATM   33  O   UNK A   0      -9.589   3.339  69.859  1.00  0.00    -0.172 OA 
HETATM   34  C   UNK A   0     -10.363   4.834  72.855  1.00  0.00    -0.185 C  
ENDBRANCH  21  22
ENDBRANCH   2  21
TORSDOF 7
ENDMDL
MODEL      260
REMARK 921   NORMALIZED FREE ENERGY PREDICTED BY IDOCK:   -4.03 KCAL/MOL
REMARK 922        TOTAL FREE ENERGY PREDICTED BY IDOCK:   -6.82 KCAL/MOL
REMARK 923 INTER-LIGAND FREE ENERGY PREDICTED BY IDOCK:   -6.17 KCAL/MOL
REMARK 924 INTRA-LIGAND FREE ENERGY PREDICTED BY IDOCK:   -0.65 KCAL/MOL
REMARK 927      BINDING AFFINITY PREDICTED BY RF-SCORE:    0.00 PKD
ROOT
HETATM    1  C   UNK A   0      -8.993  12.683  65.752  1.00  0.00     0.416 C  
HETATM    2  N   UNK A   0      -8.139  12.569  66.930  1.00  0.00    -0.370 NA 
ENDROOT
BRANCH   2   3
HETATM    3  C   UNK A   0      -7.794  11.316  67.366  1.00  0.00    -0.128 A  
HETATM    4  C   UNK A   0      -7.285   9.030  67.425  1.00  0.00    -0.083 A  
HETATM    5  C   UNK A   0      -7.329  10.230  66.646  1.00  0.00    -0.109 A  
HETATM    6  S   UNK A   0      -7.888  10.911  69.030  1.00  0.00    -0.117 SA 
HETATM    7  C   UNK A   0      -7.660   9.248  68.736  1.00  0.00    -0.079 A  
BRANCH   7   8
HETATM    8  C   UNK A   0      -7.894   8.270  69.784  1.00  0.00    -0.100 C  
HETATM    9  O   UNK A   0      -6.999   7.630  70.324  1.00  0.00    -0.049 OA 
ATOM     10  N   GLU A   1      -9.228   8.066  70.108  1.00  0.00    -0.152 N  
ATOM     11  H   GLU A   1      -9.948   8.591  69.612  1.00  0.00     0.000 HD 
BRANCH  10  12
ATOM     12  CA  GLU A   1      -9.624   7.112  71.147  1.00  0.00    -0.164 C  
ATOM     13  C   GLU A   1     -10.598   6.075  70.558  1.00  0.00    -0.266 C  
ATOM     14  O   GLU A   1     -11.286   6.521  69.478  1.00  0.00    -0.340 OA 
ATOM     15  OXT GLU A   1     -10.853   5.001  71.087  1.00  0.00    -0.078 OA 
BRANCH  12  16
ATOM     16  CB  GLU A   1     -10.283   7.867  72.307  1.00  0.00    -0.302 C  
BRANCH  16  17
ATOM     17  CG  GLU A   1     -11.810   7.844  72.234  1.00  0.00    -0.404 C  
ATOM     18  CD  GLU A   1     -12.368   9.106  71.629  1.00  0.00    -0.360 C  
ATOM     19  OE2 GLU A   1     -11.836  10.198  71.698  1.00  0.00    -0.333 OA 
ATOM     20  OE1 GLU A   1     -13.561   8.910  71.021  1.00  0.00    -0.125 OA 
ENDBRANCH  16  17
ENDBRANCH  12  16
ENDBRANCH  10  12
ENDBRANCH   7   8
ENDBRANCH   2   3
BRANCH   2  21
HETATM   21  C   UNK A   0      -8.372  13.578  67.982  1.00  0.00    -0.168 C  
BRANCH  21  22
HETATM   22  C   UNK A   0      -7.789  14.920  67.598  1.00  0.00    -0.189 A  
HETATM   23  C   UNK A   0      -8.062  17.182  66.751  1.00  0.00    -0.278 A  
HETATM   24  C   UNK A   0      -6.700  17.434  66.919  1.00  0.00    -0.195 A  
HETATM   25  C   UNK A   0      -8.606  15.938  67.083  1.00  0.00    -0.221 A  
HETATM   26  H   UNK A   0      -8.909  20.293  65.636  1.00  0.00     0.000 HD 
HETATM   27  C   UNK A   0      -5.876  16.420  67.404  1.00  0.00    -0.189 A  
HETATM   28  C   UNK A   0      -6.487  21.036  65.880  1.00  0.00    -0.191 C  
HETATM   29  N   UNK A   0      -6.200  18.688  66.568  1.00  0.00    -0.166 NA 
HETATM   30  N   UNK A   0      -8.337  19.514  65.962  1.00  0.00    -0.313 N  
HETATM   31  C   UNK A   0      -6.419  15.176  67.747  1.00  0.00    -0.182 A  
HETATM   32  C   UNK A   0      -8.906  18.281  66.214  1.00  0.00    -0.178 C  
HETATM   33  O   UNK A   0     -10.094  18.050  66.010  1.00  0.00    -0.494 OA 
HETATM   34  C   UNK A   0      -7.063  19.665  66.148  1.00  0.00    -0.264 C  
ENDBRANCH  21  22
ENDBRANCH   2  21
TORSDOF 7
ENDMDL
MODEL      261
REMARK 921   NORMALIZED FREE ENERGY PREDICTED BY IDOCK:   -4.02 KCAL/MOL
REMARK 922        TOTAL FREE ENERGY PREDICTED BY IDOCK:   -6.80 KCAL/MOL
REMARK 923 INTER-LIGAND FREE ENERGY PREDICTED BY IDOCK:   -5.52 KCAL/MOL
REMARK 924 INTRA-LIGAND FREE ENERGY PREDICTED BY IDOCK:   -1.28 KCAL/MOL
REMARK 927      BINDING AFFINITY PREDICTED BY RF-SCORE:    0.00 PKD
ROOT
HETATM    1  C   UNK A   0     -11.459  16.930  64.570  1.00  0.00     0.575 C  
HETATM    2  N   UNK A   0     -10.988  15.967  65.560  1.00  0.00    -0.258 NA 
ENDROOT
BRANCH   2   3
HETATM    3  C   UNK A   0     -11.259  14.639  65.357  1.00  0.00    -0.347 A  
HETATM    4  C   UNK A   0     -12.165  12.487  65.542  1.00  0.00    -0.442 A  
HETATM    5  C   UNK A   0     -12.348  13.890  65.763  1.00  0.00    -0.518 A  
HETATM    6  S   UNK A   0     -10.177  13.653  64.463  1.00  0.00    -0.011 SA 
HETATM    7  C   UNK A   0     -10.966  12.212  64.917  1.00  0.00    -0.309 A  
BRANCH   7   8
HETATM    8  C   UNK A   0     -10.351  10.920  64.668  1.00  0.00    -0.338 C  
HETATM    9  O   UNK A   0     -10.146  10.474  63.544  1.00  0.00    -0.286 OA 
ATOM     10  N   GLU A   1     -10.049  10.185  65.805  1.00  0.00    -0.268 N  
ATOM     11  H   GLU A   1     -10.267  10.574  66.723  1.00  0.00     0.000 HD 
BRANCH  10  12
ATOM     12  CA  GLU A   1      -9.424   8.862  65.716  1.00  0.00    -0.202 C  
ATOM     13  C   GLU A   1     -10.097   7.901  66.713  1.00  0.00    -0.281 C  
ATOM     14  O   GLU A   1     -10.671   8.523  67.772  1.00  0.00    -0.201 OA 
ATOM     15  OXT GLU A   1     -10.005   6.682  66.653  1.00  0.00    -0.175 OA 
BRANCH  12  16
ATOM     16  CB  GLU A   1      -7.927   8.986  66.019  1.00  0.00    -0.103 C  
BRANCH  16  17
ATOM     17  CG  GLU A   1      -7.618   8.888  67.513  1.00  0.00    -0.093 C  
ATOM     18  CD  GLU A   1      -6.136   8.864  67.786  1.00  0.00    -0.051 C  
ATOM     19  OE2 GLU A   1      -5.300   8.421  67.019  1.00  0.00    -0.035 OA 
ATOM     20  OE1 GLU A   1      -5.821   9.359  69.004  1.00  0.00    -0.039 OA 
ENDBRANCH  16  17
ENDBRANCH  12  16
ENDBRANCH  10  12
ENDBRANCH   7   8
ENDBRANCH   2   3
BRANCH   2  21
HETATM   21  C   UNK A   0     -11.027  16.429  66.962  1.00  0.00    -0.048 C  
BRANCH  21  22
HETATM   22  C   UNK A   0      -9.859  15.884  67.755  1.00  0.00    -0.222 A  
HETATM   23  C   UNK A   0      -8.531  14.010  68.549  1.00  0.00    -0.143 A  
HETATM   24  C   UNK A   0      -7.657  14.877  69.205  1.00  0.00    -0.170 A  
HETATM   25  C   UNK A   0      -9.625  14.503  67.831  1.00  0.00    -0.217 A  
HETATM   26  H   UNK A   0      -6.892  11.122  69.333  1.00  0.00     0.000 HD 
HETATM   27  C   UNK A   0      -7.899  16.249  69.157  1.00  0.00    -0.231 A  
HETATM   28  C   UNK A   0      -5.127  12.468  70.580  1.00  0.00    -0.114 C  
HETATM   29  N   UNK A   0      -6.583  14.340  69.914  1.00  0.00    -0.254 NA 
HETATM   30  N   UNK A   0      -7.123  12.115  69.301  1.00  0.00    -0.301 N  
HETATM   31  C   UNK A   0      -8.987  16.747  68.432  1.00  0.00    -0.233 A  
HETATM   32  C   UNK A   0      -8.252  12.552  68.637  1.00  0.00     0.001 C  
HETATM   33  O   UNK A   0      -9.047  11.780  68.110  1.00  0.00    -0.173 OA 
HETATM   34  C   UNK A   0      -6.363  12.988  69.883  1.00  0.00    -0.034 C  
ENDBRANCH  21  22
ENDBRANCH   2  21
TORSDOF 7
ENDMDL
MODEL      262
REMARK 921   NORMALIZED FREE ENERGY PREDICTED BY IDOCK:   -4.02 KCAL/MOL
REMARK 922        TOTAL FREE ENERGY PREDICTED BY IDOCK:   -6.80 KCAL/MOL
REMARK 923 INTER-LIGAND FREE ENERGY PREDICTED BY IDOCK:   -5.96 KCAL/MOL
REMARK 924 INTRA-LIGAND FREE ENERGY PREDICTED BY IDOCK:   -0.84 KCAL/MOL
REMARK 927      BINDING AFFINITY PREDICTED BY RF-SCORE:    0.00 PKD
ROOT
HETATM    1  C   UNK A   0      -7.529  11.252  69.415  1.00  0.00     0.018 C  
HETATM    2  N   UNK A   0      -8.030   9.981  69.928  1.00  0.00    -0.200 NA 
ENDROOT
BRANCH   2   3
HETATM    3  C   UNK A   0      -7.328   8.840  69.640  1.00  0.00    -0.059 A  
HETATM    4  C   UNK A   0      -5.716   7.355  68.815  1.00  0.00    -0.023 A  
HETATM    5  C   UNK A   0      -6.019   8.695  69.216  1.00  0.00    -0.041 A  
HETATM    6  S   UNK A   0      -8.057   7.297  69.808  1.00  0.00    -0.130 SA 
HETATM    7  C   UNK A   0      -6.785   6.502  69.002  1.00  0.00    -0.053 A  
BRANCH   7   8
HETATM    8  C   UNK A   0      -6.925   5.121  68.576  1.00  0.00    -0.057 C  
HETATM    9  O   UNK A   0      -6.362   4.182  69.129  1.00  0.00    -0.027 OA 
ATOM     10  N   GLU A   1      -7.714   4.930  67.451  1.00  0.00    -0.090 N  
ATOM     11  H   GLU A   1      -8.138   5.739  66.997  1.00  0.00     0.000 HD 
BRANCH  10  12
ATOM     12  CA  GLU A   1      -7.952   3.593  66.901  1.00  0.00    -0.088 C  
ATOM     13  C   GLU A   1      -7.207   3.440  65.562  1.00  0.00    -0.070 C  
ATOM     14  O   GLU A   1      -6.979   4.616  64.926  1.00  0.00    -0.058 OA 
ATOM     15  OXT GLU A   1      -6.967   2.363  65.034  1.00  0.00    -0.046 OA 
BRANCH  12  16
ATOM     16  CB  GLU A   1      -9.457   3.384  66.703  1.00  0.00    -0.151 C  
BRANCH  16  17
ATOM     17  CG  GLU A   1     -10.172   4.653  66.236  1.00  0.00    -0.306 C  
ATOM     18  CD  GLU A   1     -10.469   5.589  67.379  1.00  0.00    -0.219 C  
ATOM     19  OE2 GLU A   1     -10.665   5.236  68.527  1.00  0.00    -0.093 OA 
ATOM     20  OE1 GLU A   1     -10.535   6.883  66.989  1.00  0.00    -0.244 OA 
ENDBRANCH  16  17
ENDBRANCH  12  16
ENDBRANCH  10  12
ENDBRANCH   7   8
ENDBRANCH   2   3
BRANCH   2  21
HETATM   21  C   UNK A   0      -9.500   9.846  69.960  1.00  0.00    -0.202 C  
BRANCH  21  22
HETATM   22  C   UNK A   0     -10.151  10.641  68.849  1.00  0.00    -0.215 A  
HETATM   23  C   UNK A   0     -10.535  11.050  66.484  1.00  0.00    -0.309 A  
HETATM   24  C   UNK A   0     -11.399  12.104  66.782  1.00  0.00    -0.342 A  
HETATM   25  C   UNK A   0      -9.912  10.323  67.503  1.00  0.00    -0.226 A  
HETATM   26  H   UNK A   0     -10.888  11.192  63.093  1.00  0.00     0.000 HD 
HETATM   27  C   UNK A   0     -11.620  12.443  68.116  1.00  0.00    -0.395 A  
HETATM   28  C   UNK A   0     -12.530  13.120  63.349  1.00  0.00    -0.328 C  
HETATM   29  N   UNK A   0     -11.993  12.804  65.732  1.00  0.00    -0.432 NA 
HETATM   30  N   UNK A   0     -10.996  11.429  64.079  1.00  0.00    -0.373 N  
HETATM   31  C   UNK A   0     -11.006  11.712  69.140  1.00  0.00    -0.270 A  
HETATM   32  C   UNK A   0     -10.308  10.728  65.050  1.00  0.00    -0.287 C  
HETATM   33  O   UNK A   0      -9.507   9.839  64.778  1.00  0.00    -0.274 OA 
HETATM   34  C   UNK A   0     -11.782  12.393  64.443  1.00  0.00    -0.366 C  
ENDBRANCH  21  22
ENDBRANCH   2  21
TORSDOF 7
ENDMDL
MODEL      263
REMARK 921   NORMALIZED FREE ENERGY PREDICTED BY IDOCK:   -4.01 KCAL/MOL
REMARK 922        TOTAL FREE ENERGY PREDICTED BY IDOCK:   -6.78 KCAL/MOL
REMARK 923 INTER-LIGAND FREE ENERGY PREDICTED BY IDOCK:   -6.45 KCAL/MOL
REMARK 924 INTRA-LIGAND FREE ENERGY PREDICTED BY IDOCK:   -0.33 KCAL/MOL
REMARK 927      BINDING AFFINITY PREDICTED BY RF-SCORE:    0.00 PKD
ROOT
HETATM    1  C   UNK A   0      -6.081  10.497  67.447  1.00  0.00    -0.053 C  
HETATM    2  N   UNK A   0      -6.241  11.035  68.794  1.00  0.00    -0.043 NA 
ENDROOT
BRANCH   2   3
HETATM    3  C   UNK A   0      -6.197  10.165  69.853  1.00  0.00    -0.063 A  
HETATM    4  C   UNK A   0      -5.432   8.792  71.588  1.00  0.00    -0.044 A  
HETATM    5  C   UNK A   0      -5.178   9.930  70.758  1.00  0.00    -0.051 A  
HETATM    6  S   UNK A   0      -7.548   9.179  70.231  1.00  0.00    -0.125 SA 
HETATM    7  C   UNK A   0      -6.665   8.228  71.335  1.00  0.00    -0.057 A  
BRANCH   7   8
HETATM    8  C   UNK A   0      -7.214   6.985  71.848  1.00  0.00    -0.081 C  
HETATM    9  O   UNK A   0      -6.533   5.996  72.096  1.00  0.00    -0.054 OA 
ATOM     10  N   GLU A   1      -8.593   6.970  71.998  1.00  0.00    -0.119 N  
ATOM     11  H   GLU A   1      -9.131   7.800  71.748  1.00  0.00     0.000 HD 
BRANCH  10  12
ATOM     12  CA  GLU A   1      -9.294   5.789  72.508  1.00  0.00    -0.141 C  
ATOM     13  C   GLU A   1      -9.606   4.827  71.346  1.00  0.00    -0.163 C  
ATOM     14  O   GLU A   1      -9.692   5.437  70.139  1.00  0.00    -0.164 OA 
ATOM     15  OXT GLU A   1      -9.899   3.648  71.497  1.00  0.00    -0.173 OA 
BRANCH  12  16
ATOM     16  CB  GLU A   1     -10.589   6.225  73.203  1.00  0.00    -0.273 C  
BRANCH  16  17
ATOM     17  CG  GLU A   1     -10.900   7.707  72.993  1.00  0.00    -0.457 C  
ATOM     18  CD  GLU A   1     -12.081   7.915  72.081  1.00  0.00    -0.326 C  
ATOM     19  OE2 GLU A   1     -12.409   7.150  71.192  1.00  0.00    -0.347 OA 
ATOM     20  OE1 GLU A   1     -12.732   9.075  72.326  1.00  0.00    -0.380 OA 
ENDBRANCH  16  17
ENDBRANCH  12  16
ENDBRANCH  10  12
ENDBRANCH   7   8
ENDBRANCH   2   3
BRANCH   2  21
HETATM   21  C   UNK A   0      -7.191  12.159  68.919  1.00  0.00    -0.079 C  
BRANCH  21  22
HETATM   22  C   UNK A   0      -8.318  12.042  67.915  1.00  0.00    -0.155 A  
HETATM   23  C   UNK A   0      -9.728  13.021  66.194  1.00  0.00    -0.255 A  
HETATM   24  C   UNK A   0     -10.395  11.809  66.019  1.00  0.00    -0.239 A  
HETATM   25  C   UNK A   0      -8.699  13.144  67.134  1.00  0.00    -0.214 A  
HETATM   26  H   UNK A   0     -11.387  14.746  63.763  1.00  0.00     0.000 HD 
HETATM   27  C   UNK A   0     -10.041  10.718  66.812  1.00  0.00    -0.267 A  
HETATM   28  C   UNK A   0     -12.735  12.659  63.209  1.00  0.00    -0.148 C  
HETATM   29  N   UNK A   0     -11.419  11.735  65.075  1.00  0.00    -0.239 NA 
HETATM   30  N   UNK A   0     -11.120  13.983  64.384  1.00  0.00    -0.572 N  
HETATM   31  C   UNK A   0      -9.005  10.834  67.746  1.00  0.00    -0.137 A  
HETATM   32  C   UNK A   0     -10.145  14.168  65.345  1.00  0.00    -0.333 C  
HETATM   33  O   UNK A   0      -9.601  15.252  65.531  1.00  0.00    -0.317 OA 
HETATM   34  C   UNK A   0     -11.689  12.823  64.287  1.00  0.00    -0.381 C  
ENDBRANCH  21  22
ENDBRANCH   2  21
TORSDOF 7
ENDMDL
MODEL      264
REMARK 921   NORMALIZED FREE ENERGY PREDICTED BY IDOCK:   -4.01 KCAL/MOL
REMARK 922        TOTAL FREE ENERGY PREDICTED BY IDOCK:   -6.77 KCAL/MOL
REMARK 923 INTER-LIGAND FREE ENERGY PREDICTED BY IDOCK:   -6.94 KCAL/MOL
REMARK 924 INTRA-LIGAND FREE ENERGY PREDICTED BY IDOCK:    0.17 KCAL/MOL
REMARK 927      BINDING AFFINITY PREDICTED BY RF-SCORE:    0.00 PKD
ROOT
HETATM    1  C   UNK A   0     -10.043  10.549  65.767  1.00  0.00    -0.265 C  
HETATM    2  N   UNK A   0      -8.954  11.082  66.580  1.00  0.00    -0.167 NA 
ENDROOT
BRANCH   2   3
HETATM    3  C   UNK A   0      -8.453  10.301  67.589  1.00  0.00    -0.118 A  
HETATM    4  C   UNK A   0      -7.029   9.366  69.196  1.00  0.00    -0.058 A  
HETATM    5  C   UNK A   0      -7.357  10.514  68.406  1.00  0.00    -0.086 A  
HETATM    6  S   UNK A   0      -9.216   8.825  68.015  1.00  0.00    -0.139 SA 
HETATM    7  C   UNK A   0      -7.921   8.331  69.005  1.00  0.00    -0.112 A  
BRANCH   7   8
HETATM    8  C   UNK A   0      -7.842   6.966  69.496  1.00  0.00    -0.120 C  
HETATM    9  O   UNK A   0      -7.462   6.674  70.624  1.00  0.00    -0.080 OA 
ATOM     10  N   GLU A   1      -8.184   5.989  68.572  1.00  0.00    -0.110 N  
ATOM     11  H   GLU A   1      -8.461   6.268  67.630  1.00  0.00     0.000 HD 
BRANCH  10  12
ATOM     12  CA  GLU A   1      -8.154   4.566  68.919  1.00  0.00    -0.077 C  
ATOM     13  C   GLU A   1      -6.895   3.910  68.323  1.00  0.00    -0.047 C  
ATOM     14  O   GLU A   1      -6.408   4.550  67.231  1.00  0.00    -0.038 OA 
ATOM     15  OXT GLU A   1      -6.447   2.833  68.693  1.00  0.00    -0.029 OA 
BRANCH  12  16
ATOM     16  CB  GLU A   1      -9.418   3.885  68.380  1.00  0.00    -0.210 C  
BRANCH  16  17
ATOM     17  CG  GLU A   1      -9.214   3.279  66.991  1.00  0.00    -0.206 C  
ATOM     18  CD  GLU A   1      -9.838   4.119  65.908  1.00  0.00    -0.199 C  
ATOM     19  OE2 GLU A   1     -10.815   4.830  66.062  1.00  0.00    -0.287 OA 
ATOM     20  OE1 GLU A   1      -9.218   3.977  64.714  1.00  0.00    -0.135 OA 
ENDBRANCH  16  17
ENDBRANCH  12  16
ENDBRANCH  10  12
ENDBRANCH   7   8
ENDBRANCH   2   3
BRANCH   2  21
HETATM   21  C   UNK A   0      -9.018  12.531  66.853  1.00  0.00    -0.212 C  
BRANCH  21  22
HETATM   22  C   UNK A   0     -10.045  12.847  67.918  1.00  0.00    -0.232 A  
HETATM   23  C   UNK A   0     -11.172  14.444  69.364  1.00  0.00    -0.317 A  
HETATM   24  C   UNK A   0     -11.989  13.437  69.878  1.00  0.00    -0.338 A  
HETATM   25  C   UNK A   0     -10.206  14.157  68.394  1.00  0.00    -0.247 A  
HETATM   26  H   UNK A   0     -12.563  17.020  71.115  1.00  0.00     0.000 HD 
HETATM   27  C   UNK A   0     -11.817  12.128  69.430  1.00  0.00    -0.370 A  
HETATM   28  C   UNK A   0     -14.205  15.398  72.188  1.00  0.00    -0.660 C  
HETATM   29  N   UNK A   0     -12.935  13.768  70.848  1.00  0.00    -0.260 NA 
HETATM   30  N   UNK A   0     -12.382  16.072  70.786  1.00  0.00    -0.500 N  
HETATM   31  C   UNK A   0     -10.857  11.838  68.453  1.00  0.00    -0.260 A  
HETATM   32  C   UNK A   0     -11.371  15.824  69.878  1.00  0.00    -0.349 C  
HETATM   33  O   UNK A   0     -10.620  16.705  69.472  1.00  0.00    -0.315 OA 
HETATM   34  C   UNK A   0     -13.097  15.079  71.212  1.00  0.00    -0.403 C  
ENDBRANCH  21  22
ENDBRANCH   2  21
TORSDOF 7
ENDMDL
MODEL      265
REMARK 921   NORMALIZED FREE ENERGY PREDICTED BY IDOCK:   -3.99 KCAL/MOL
REMARK 922        TOTAL FREE ENERGY PREDICTED BY IDOCK:   -6.76 KCAL/MOL
REMARK 923 INTER-LIGAND FREE ENERGY PREDICTED BY IDOCK:   -6.51 KCAL/MOL
REMARK 924 INTRA-LIGAND FREE ENERGY PREDICTED BY IDOCK:   -0.25 KCAL/MOL
REMARK 927      BINDING AFFINITY PREDICTED BY RF-SCORE:    0.00 PKD
ROOT
HETATM    1  C   UNK A   0      -6.050  14.025  70.788  1.00  0.00    -0.141 C  
HETATM    2  N   UNK A   0      -6.571  13.371  69.592  1.00  0.00    -0.287 NA 
ENDROOT
BRANCH   2   3
HETATM    3  C   UNK A   0      -6.277  12.047  69.393  1.00  0.00    -0.109 A  
HETATM    4  C   UNK A   0      -5.323  10.063  68.594  1.00  0.00    -0.039 A  
HETATM    5  C   UNK A   0      -5.163  11.469  68.811  1.00  0.00    -0.046 A  
HETATM    6  S   UNK A   0      -7.359  10.823  69.917  1.00  0.00     0.144 SA 
HETATM    7  C   UNK A   0      -6.531   9.597  69.073  1.00  0.00    -0.045 A  
BRANCH   7   8
HETATM    8  C   UNK A   0      -7.124   8.282  68.904  1.00  0.00    -0.066 C  
HETATM    9  O   UNK A   0      -6.469   7.248  68.839  1.00  0.00    -0.037 OA 
ATOM     10  N   GLU A   1      -8.504   8.275  68.767  1.00  0.00    -0.125 N  
ATOM     11  H   GLU A   1      -9.013   9.159  68.791  1.00  0.00     0.000 HD 
BRANCH  10  12
ATOM     12  CA  GLU A   1      -9.248   7.024  68.591  1.00  0.00    -0.131 C  
ATOM     13  C   GLU A   1     -10.291   7.192  67.470  1.00  0.00    -0.236 C  
ATOM     14  O   GLU A   1     -10.687   8.475  67.279  1.00  0.00    -0.279 OA 
ATOM     15  OXT GLU A   1     -10.835   6.257  66.899  1.00  0.00    -0.331 OA 
BRANCH  12  16
ATOM     16  CB  GLU A   1      -9.934   6.649  69.909  1.00  0.00    -0.188 C  
BRANCH  16  17
ATOM     17  CG  GLU A   1      -9.998   7.818  70.893  1.00  0.00    -0.190 C  
ATOM     18  CD  GLU A   1      -9.077   7.620  72.069  1.00  0.00    -0.131 C  
ATOM     19  OE2 GLU A   1      -8.756   6.535  72.520  1.00  0.00    -0.126 OA 
ATOM     20  OE1 GLU A   1      -8.662   8.788  72.609  1.00  0.00    -0.408 OA 
ENDBRANCH  16  17
ENDBRANCH  12  16
ENDBRANCH  10  12
ENDBRANCH   7   8
ENDBRANCH   2   3
BRANCH   2  21
HETATM   21  C   UNK A   0      -6.619  14.213  68.380  1.00  0.00    -0.106 C  
BRANCH  21  22
HETATM   22  C   UNK A   0      -7.761  13.809  67.473  1.00  0.00    -0.187 A  
HETATM   23  C   UNK A   0      -9.585  14.398  65.978  1.00  0.00    -0.292 A  
HETATM   24  C   UNK A   0      -9.866  13.050  65.753  1.00  0.00    -0.209 A  
HETATM   25  C   UNK A   0      -8.545  14.780  66.831  1.00  0.00    -0.254 A  
HETATM   26  H   UNK A   0     -11.951  15.657  63.868  1.00  0.00     0.000 HD 
HETATM   27  C   UNK A   0      -9.109  12.080  66.409  1.00  0.00    -0.193 A  
HETATM   28  C   UNK A   0     -12.652  13.290  63.247  1.00  0.00    -0.054 C  
HETATM   29  N   UNK A   0     -10.917  12.716  64.899  1.00  0.00    -0.283 NA 
HETATM   30  N   UNK A   0     -11.397  14.981  64.392  1.00  0.00    -0.655 N  
HETATM   31  C   UNK A   0      -8.061  12.458  67.255  1.00  0.00    -0.182 A  
HETATM   32  C   UNK A   0     -10.424  15.404  65.276  1.00  0.00    -0.415 C  
HETATM   33  O   UNK A   0     -10.219  16.591  65.512  1.00  0.00    -0.525 OA 
HETATM   34  C   UNK A   0     -11.592  13.709  64.240  1.00  0.00    -0.382 C  
ENDBRANCH  21  22
ENDBRANCH   2  21
TORSDOF 7
ENDMDL
MODEL      266
REMARK 921   NORMALIZED FREE ENERGY PREDICTED BY IDOCK:   -3.97 KCAL/MOL
REMARK 922        TOTAL FREE ENERGY PREDICTED BY IDOCK:   -6.72 KCAL/MOL
REMARK 923 INTER-LIGAND FREE ENERGY PREDICTED BY IDOCK:   -4.98 KCAL/MOL
REMARK 924 INTRA-LIGAND FREE ENERGY PREDICTED BY IDOCK:   -1.74 KCAL/MOL
REMARK 927      BINDING AFFINITY PREDICTED BY RF-SCORE:    0.00 PKD
ROOT
HETATM    1  C   UNK A   0     -10.092  10.407  64.524  1.00  0.00    -0.295 C  
HETATM    2  N   UNK A   0      -9.276   9.404  65.202  1.00  0.00    -0.302 NA 
ENDROOT
BRANCH   2   3
HETATM    3  C   UNK A   0      -8.938   9.619  66.513  1.00  0.00    -0.147 A  
HETATM    4  C   UNK A   0      -7.779  10.241  68.451  1.00  0.00    -0.093 A  
HETATM    5  C   UNK A   0      -7.976  10.455  67.050  1.00  0.00    -0.116 A  
HETATM    6  S   UNK A   0      -9.769   8.807  67.775  1.00  0.00    -0.166 SA 
HETATM    7  C   UNK A   0      -8.641   9.289  68.957  1.00  0.00    -0.134 A  
BRANCH   7   8
HETATM    8  C   UNK A   0      -8.647   8.685  70.278  1.00  0.00    -0.141 C  
HETATM    9  O   UNK A   0      -8.262   9.264  71.288  1.00  0.00    -0.324 OA 
ATOM     10  N   GLU A   1      -9.079   7.368  70.320  1.00  0.00    -0.151 N  
ATOM     11  H   GLU A   1      -9.359   6.907  69.454  1.00  0.00     0.000 HD 
BRANCH  10  12
ATOM     12  CA  GLU A   1      -9.144   6.624  71.581  1.00  0.00    -0.142 C  
ATOM     13  C   GLU A   1      -8.417   5.274  71.427  1.00  0.00    -0.125 C  
ATOM     14  O   GLU A   1      -8.369   4.821  70.150  1.00  0.00    -0.074 OA 
ATOM     15  OXT GLU A   1      -8.045   4.589  72.370  1.00  0.00    -0.094 OA 
BRANCH  12  16
ATOM     16  CB  GLU A   1     -10.611   6.401  71.966  1.00  0.00    -0.244 C  
BRANCH  16  17
ATOM     17  CG  GLU A   1     -11.183   7.550  72.796  1.00  0.00    -0.403 C  
ATOM     18  CD  GLU A   1     -12.240   8.319  72.048  1.00  0.00    -0.348 C  
ATOM     19  OE2 GLU A   1     -12.277   8.441  70.837  1.00  0.00    -0.231 OA 
ATOM     20  OE1 GLU A   1     -13.141   8.904  72.870  1.00  0.00    -0.339 OA 
ENDBRANCH  16  17
ENDBRANCH  12  16
ENDBRANCH  10  12
ENDBRANCH   7   8
ENDBRANCH   2   3
BRANCH   2  21
HETATM   21  C   UNK A   0      -8.248   8.753  64.367  1.00  0.00    -0.168 C  
BRANCH  21  22
HETATM   22  C   UNK A   0      -7.681   7.525  65.047  1.00  0.00    -0.116 A  
HETATM   23  C   UNK A   0      -7.950   5.266  65.901  1.00  0.00    -0.105 A  
HETATM   24  C   UNK A   0      -6.608   5.225  66.281  1.00  0.00    -0.052 A  
HETATM   25  C   UNK A   0      -8.488   6.403  65.291  1.00  0.00    -0.102 A  
HETATM   26  H   UNK A   0      -8.730   2.083  66.851  1.00  0.00     0.000 HD 
HETATM   27  C   UNK A   0      -5.807   6.346  66.066  1.00  0.00    -0.025 A  
HETATM   28  C   UNK A   0      -6.324   1.722  67.601  1.00  0.00    -0.024 C  
HETATM   29  N   UNK A   0      -6.116   4.071  66.891  1.00  0.00    -0.027 NA 
HETATM   30  N   UNK A   0      -8.188   2.935  66.706  1.00  0.00    -0.084 N  
HETATM   31  C   UNK A   0      -6.339   7.483  65.447  1.00  0.00    -0.038 A  
HETATM   32  C   UNK A   0      -8.777   4.059  66.163  1.00  0.00    -0.116 C  
HETATM   33  O   UNK A   0      -9.971   4.107  65.882  1.00  0.00    -0.209 OA 
HETATM   34  C   UNK A   0      -6.934   2.981  67.029  1.00  0.00    -0.049 C  
ENDBRANCH  21  22
ENDBRANCH   2  21
TORSDOF 7
ENDMDL
MODEL      267
REMARK 921   NORMALIZED FREE ENERGY PREDICTED BY IDOCK:   -3.96 KCAL/MOL
REMARK 922        TOTAL FREE ENERGY PREDICTED BY IDOCK:   -6.72 KCAL/MOL
REMARK 923 INTER-LIGAND FREE ENERGY PREDICTED BY IDOCK:   -5.24 KCAL/MOL
REMARK 924 INTRA-LIGAND FREE ENERGY PREDICTED BY IDOCK:   -1.47 KCAL/MOL
REMARK 927      BINDING AFFINITY PREDICTED BY RF-SCORE:    0.00 PKD
ROOT
HETATM    1  C   UNK A   0     -10.768   2.643  73.937  1.00  0.00    -0.184 C  
HETATM    2  N   UNK A   0     -10.119   3.860  73.461  1.00  0.00    -0.126 NA 
ENDROOT
BRANCH   2   3
HETATM    3  C   UNK A   0     -10.125   4.117  72.114  1.00  0.00    -0.178 A  
HETATM    4  C   UNK A   0      -9.566   4.144  69.840  1.00  0.00    -0.282 A  
HETATM    5  C   UNK A   0      -9.491   3.443  71.086  1.00  0.00    -0.224 A  
HETATM    6  S   UNK A   0     -11.031   5.427  71.478  1.00  0.00    -0.018 SA 
HETATM    7  C   UNK A   0     -10.308   5.304  69.940  1.00  0.00    -0.304 A  
BRANCH   7   8
HETATM    8  C   UNK A   0     -10.481   6.354  68.952  1.00  0.00    -0.223 C  
HETATM    9  O   UNK A   0     -11.468   6.449  68.231  1.00  0.00    -0.186 OA 
ATOM     10  N   GLU A   1      -9.415   7.235  68.840  1.00  0.00    -0.144 N  
ATOM     11  H   GLU A   1      -8.595   7.104  69.433  1.00  0.00     0.000 HD 
BRANCH  10  12
ATOM     12  CA  GLU A   1      -9.441   8.350  67.889  1.00  0.00    -0.146 C  
ATOM     13  C   GLU A   1      -8.038   8.558  67.291  1.00  0.00    -0.105 C  
ATOM     14  O   GLU A   1      -7.033   8.116  68.087  1.00  0.00    -0.073 OA 
ATOM     15  OXT GLU A   1      -7.819   9.192  66.267  1.00  0.00    -0.101 OA 
BRANCH  12  16
ATOM     16  CB  GLU A   1      -9.911   9.620  68.606  1.00  0.00    -0.179 C  
BRANCH  16  17
ATOM     17  CG  GLU A   1     -10.772  10.516  67.716  1.00  0.00    -0.319 C  
ATOM     18  CD  GLU A   1     -11.664  11.427  68.520  1.00  0.00    -0.318 C  
ATOM     19  OE2 GLU A   1     -12.100  11.165  69.626  1.00  0.00    -0.319 OA 
ATOM     20  OE1 GLU A   1     -11.968  12.570  67.864  1.00  0.00    -0.351 OA 
ENDBRANCH  16  17
ENDBRANCH  12  16
ENDBRANCH  10  12
ENDBRANCH   7   8
ENDBRANCH   2   3
BRANCH   2  21
HETATM   21  C   UNK A   0      -8.897   4.254  74.189  1.00  0.00    -0.095 C  
BRANCH  21  22
HETATM   22  C   UNK A   0      -8.363   5.581  73.695  1.00  0.00    -0.112 A  
HETATM   23  C   UNK A   0      -6.878   6.861  72.259  1.00  0.00    -0.062 A  
HETATM   24  C   UNK A   0      -7.398   8.059  72.749  1.00  0.00    -0.111 A  
HETATM   25  C   UNK A   0      -7.350   5.630  72.725  1.00  0.00    -0.092 A  
HETATM   26  H   UNK A   0      -4.729   8.252  70.003  1.00  0.00     0.000 HD 
HETATM   27  C   UNK A   0      -8.385   8.018  73.733  1.00  0.00    -0.311 A  
HETATM   28  C   UNK A   0      -5.522  10.573  70.686  1.00  0.00    -0.085 C  
HETATM   29  N   UNK A   0      -6.892   9.263  72.259  1.00  0.00    -0.261 NA 
HETATM   30  N   UNK A   0      -5.425   8.179  70.745  1.00  0.00    -0.029 N  
HETATM   31  C   UNK A   0      -8.867   6.789  74.195  1.00  0.00    -0.189 A  
HETATM   32  C   UNK A   0      -5.814   6.943  71.224  1.00  0.00    -0.036 C  
HETATM   33  O   UNK A   0      -5.312   5.895  70.827  1.00  0.00    -0.012 OA 
HETATM   34  C   UNK A   0      -5.961   9.243  71.254  1.00  0.00    -0.070 C  
ENDBRANCH  21  22
ENDBRANCH   2  21
TORSDOF 7
ENDMDL
MODEL      268
REMARK 921   NORMALIZED FREE ENERGY PREDICTED BY IDOCK:   -3.96 KCAL/MOL
REMARK 922        TOTAL FREE ENERGY PREDICTED BY IDOCK:   -6.71 KCAL/MOL
REMARK 923 INTER-LIGAND FREE ENERGY PREDICTED BY IDOCK:   -6.21 KCAL/MOL
REMARK 924 INTRA-LIGAND FREE ENERGY PREDICTED BY IDOCK:   -0.49 KCAL/MOL
REMARK 927      BINDING AFFINITY PREDICTED BY RF-SCORE:    0.00 PKD
ROOT
HETATM    1  C   UNK A   0      -7.123  11.395  69.419  1.00  0.00    -0.065 C  
HETATM    2  N   UNK A   0      -8.461  11.437  68.838  1.00  0.00    -0.344 NA 
ENDROOT
BRANCH   2   3
HETATM    3  C   UNK A   0      -9.314  10.394  69.092  1.00  0.00    -0.199 A  
HETATM    4  C   UNK A   0     -10.730   8.876  70.176  1.00  0.00    -0.245 A  
HETATM    5  C   UNK A   0     -10.159  10.189  70.167  1.00  0.00    -0.197 A  
HETATM    6  S   UNK A   0      -9.463   9.096  67.981  1.00  0.00    -0.143 SA 
HETATM    7  C   UNK A   0     -10.351   8.137  69.073  1.00  0.00    -0.218 A  
BRANCH   7   8
HETATM    8  C   UNK A   0     -10.587   6.730  68.804  1.00  0.00    -0.226 C  
HETATM    9  O   UNK A   0     -11.656   6.169  69.020  1.00  0.00    -0.236 OA 
ATOM     10  N   GLU A   1      -9.489   6.033  68.321  1.00  0.00    -0.115 N  
ATOM     11  H   GLU A   1      -8.605   6.525  68.186  1.00  0.00     0.000 HD 
BRANCH  10  12
ATOM     12  CA  GLU A   1      -9.570   4.605  67.999  1.00  0.00    -0.155 C  
ATOM     13  C   GLU A   1      -9.106   3.772  69.208  1.00  0.00    -0.136 C  
ATOM     14  O   GLU A   1      -8.256   4.431  70.034  1.00  0.00    -0.062 OA 
ATOM     15  OXT GLU A   1      -9.348   2.581  69.349  1.00  0.00    -0.124 OA 
BRANCH  12  16
ATOM     16  CB  GLU A   1      -8.695   4.308  66.776  1.00  0.00    -0.113 C  
BRANCH  16  17
ATOM     17  CG  GLU A   1      -7.515   3.394  67.104  1.00  0.00    -0.071 C  
ATOM     18  CD  GLU A   1      -7.280   2.363  66.030  1.00  0.00    -0.065 C  
ATOM     19  OE2 GLU A   1      -8.149   1.906  65.311  1.00  0.00    -0.076 OA 
ATOM     20  OE1 GLU A   1      -5.990   1.961  65.966  1.00  0.00    -0.020 OA 
ENDBRANCH  16  17
ENDBRANCH  12  16
ENDBRANCH  10  12
ENDBRANCH   7   8
ENDBRANCH   2   3
BRANCH   2  21
HETATM   21  C   UNK A   0      -8.549  12.031  67.490  1.00  0.00    -0.167 C  
BRANCH  21  22
HETATM   22  C   UNK A   0      -9.180  13.406  67.533  1.00  0.00    -0.219 A  
HETATM   23  C   UNK A   0      -9.013  15.800  67.918  1.00  0.00    -0.180 A  
HETATM   24  C   UNK A   0     -10.354  15.973  67.575  1.00  0.00    -0.287 A  
HETATM   25  C   UNK A   0      -8.426  14.531  67.901  1.00  0.00    -0.161 A  
HETATM   26  H   UNK A   0      -8.307  19.097  68.441  1.00  0.00     0.000 HD 
HETATM   27  C   UNK A   0     -11.117  14.857  67.236  1.00  0.00    -0.336 A  
HETATM   28  C   UNK A   0     -10.701  19.703  67.826  1.00  0.00    -0.456 C  
HETATM   29  N   UNK A   0     -10.898  17.257  67.612  1.00  0.00    -0.297 NA 
HETATM   30  N   UNK A   0      -8.837  18.252  68.231  1.00  0.00    -0.281 N  
HETATM   31  C   UNK A   0     -10.531  13.585  67.208  1.00  0.00    -0.248 A  
HETATM   32  C   UNK A   0      -8.235  17.010  68.293  1.00  0.00    -0.227 C  
HETATM   33  O   UNK A   0      -7.070  16.860  68.649  1.00  0.00    -0.181 OA 
HETATM   34  C   UNK A   0     -10.088  18.323  67.901  1.00  0.00    -0.361 C  
ENDBRANCH  21  22
ENDBRANCH   2  21
TORSDOF 7
ENDMDL
MODEL      269
REMARK 921   NORMALIZED FREE ENERGY PREDICTED BY IDOCK:   -3.95 KCAL/MOL
REMARK 922        TOTAL FREE ENERGY PREDICTED BY IDOCK:   -6.70 KCAL/MOL
REMARK 923 INTER-LIGAND FREE ENERGY PREDICTED BY IDOCK:   -5.99 KCAL/MOL
REMARK 924 INTRA-LIGAND FREE ENERGY PREDICTED BY IDOCK:   -0.71 KCAL/MOL
REMARK 927      BINDING AFFINITY PREDICTED BY RF-SCORE:    0.00 PKD
ROOT
HETATM    1  C   UNK A   0     -11.541  14.042  65.451  1.00  0.00    -0.328 C  
HETATM    2  N   UNK A   0     -10.426  13.804  66.362  1.00  0.00    -0.281 NA 
ENDROOT
BRANCH   2   3
HETATM    3  C   UNK A   0      -9.791  12.590  66.311  1.00  0.00    -0.252 A  
HETATM    4  C   UNK A   0      -8.933  10.545  65.559  1.00  0.00    -0.203 A  
HETATM    5  C   UNK A   0      -9.358  11.868  65.214  1.00  0.00    -0.011 A  
HETATM    6  S   UNK A   0      -9.400  11.747  67.753  1.00  0.00    -0.188 SA 
HETATM    7  C   UNK A   0      -8.996  10.317  66.919  1.00  0.00    -0.136 A  
BRANCH   7   8
HETATM    8  C   UNK A   0      -8.804   9.069  67.637  1.00  0.00    -0.124 C  
HETATM    9  O   UNK A   0      -9.138   8.902  68.805  1.00  0.00    -0.134 OA 
ATOM     10  N   GLU A   1      -8.160   8.072  66.918  1.00  0.00    -0.107 N  
ATOM     11  H   GLU A   1      -7.864   8.260  65.960  1.00  0.00     0.000 HD 
BRANCH  10  12
ATOM     12  CA  GLU A   1      -7.896   6.756  67.506  1.00  0.00    -0.111 C  
ATOM     13  C   GLU A   1      -6.769   6.868  68.550  1.00  0.00    -0.064 C  
ATOM     14  O   GLU A   1      -5.930   7.912  68.339  1.00  0.00    -0.034 OA 
ATOM     15  OXT GLU A   1      -6.546   6.023  69.406  1.00  0.00    -0.040 OA 
BRANCH  12  16
ATOM     16  CB  GLU A   1      -7.502   5.774  66.397  1.00  0.00    -0.086 C  
BRANCH  16  17
ATOM     17  CG  GLU A   1      -8.651   5.484  65.431  1.00  0.00    -0.151 C  
ATOM     18  CD  GLU A   1      -8.340   5.938  64.028  1.00  0.00    -0.005 C  
ATOM     19  OE2 GLU A   1      -7.607   6.870  63.750  1.00  0.00    -0.091 OA 
ATOM     20  OE1 GLU A   1      -8.997   5.220  63.089  1.00  0.00    -0.007 OA 
ENDBRANCH  16  17
ENDBRANCH  12  16
ENDBRANCH  10  12
ENDBRANCH   7   8
ENDBRANCH   2   3
BRANCH   2  21
HETATM   21  C   UNK A   0     -10.563  14.408  67.702  1.00  0.00    -0.260 C  
BRANCH  21  22
HETATM   22  C   UNK A   0      -9.606  15.565  67.887  1.00  0.00    -0.206 A  
HETATM   23  C   UNK A   0      -8.849  17.799  67.299  1.00  0.00    -0.240 A  
HETATM   24  C   UNK A   0      -7.841  17.736  68.261  1.00  0.00    -0.279 A  
HETATM   25  C   UNK A   0      -9.725  16.727  67.107  1.00  0.00    -0.251 A  
HETATM   26  H   UNK A   0      -8.206  20.983  66.255  1.00  0.00     0.000 HD 
HETATM   27  C   UNK A   0      -7.699  16.575  69.020  1.00  0.00    -0.228 A  
HETATM   28  C   UNK A   0      -6.318  21.154  67.955  1.00  0.00    -0.364 C  
HETATM   29  N   UNK A   0      -6.987  18.828  68.413  1.00  0.00    -0.249 NA 
HETATM   30  N   UNK A   0      -8.115  20.105  66.765  1.00  0.00    -0.352 N  
HETATM   31  C   UNK A   0      -8.580  15.503  68.838  1.00  0.00    -0.209 A  
HETATM   32  C   UNK A   0      -8.959  19.045  66.496  1.00  0.00    -0.330 C  
HETATM   33  O   UNK A   0      -9.808  19.088  65.610  1.00  0.00    -0.388 OA 
HETATM   34  C   UNK A   0      -7.206  19.963  67.678  1.00  0.00    -0.277 C  
ENDBRANCH  21  22
ENDBRANCH   2  21
TORSDOF 7
ENDMDL
MODEL      270
REMARK 921   NORMALIZED FREE ENERGY PREDICTED BY IDOCK:   -3.95 KCAL/MOL
REMARK 922        TOTAL FREE ENERGY PREDICTED BY IDOCK:   -6.69 KCAL/MOL
REMARK 923 INTER-LIGAND FREE ENERGY PREDICTED BY IDOCK:   -4.70 KCAL/MOL
REMARK 924 INTRA-LIGAND FREE ENERGY PREDICTED BY IDOCK:   -2.00 KCAL/MOL
REMARK 927      BINDING AFFINITY PREDICTED BY RF-SCORE:    0.00 PKD
ROOT
HETATM    1  C   UNK A   0     -10.163  10.468  64.535  1.00  0.00    -0.285 C  
HETATM    2  N   UNK A   0      -9.519   9.614  65.528  1.00  0.00    -0.248 NA 
ENDROOT
BRANCH   2   3
HETATM    3  C   UNK A   0      -9.779   9.848  66.854  1.00  0.00    -0.186 A  
HETATM    4  C   UNK A   0      -9.619  10.602  69.065  1.00  0.00    -0.207 A  
HETATM    5  C   UNK A   0      -9.266  10.818  67.695  1.00  0.00    -0.152 A  
HETATM    6  S   UNK A   0     -10.905   8.876  67.709  1.00  0.00     0.088 SA 
HETATM    7  C   UNK A   0     -10.445   9.507  69.222  1.00  0.00    -0.212 A  
BRANCH   7   8
HETATM    8  C   UNK A   0     -10.886   8.877  70.454  1.00  0.00    -0.236 C  
HETATM    9  O   UNK A   0     -11.726   9.366  71.201  1.00  0.00    -0.295 OA 
ATOM     10  N   GLU A   1     -10.247   7.685  70.765  1.00  0.00    -0.200 N  
ATOM     11  H   GLU A   1      -9.527   7.326  70.137  1.00  0.00     0.000 HD 
BRANCH  10  12
ATOM     12  CA  GLU A   1     -10.584   6.930  71.975  1.00  0.00    -0.212 C  
ATOM     13  C   GLU A   1      -9.376   6.908  72.929  1.00  0.00    -0.135 C  
ATOM     14  O   GLU A   1      -8.182   7.064  72.304  1.00  0.00    -0.099 OA 
ATOM     15  OXT GLU A   1      -9.450   6.628  74.118  1.00  0.00    -0.185 OA 
BRANCH  12  16
ATOM     16  CB  GLU A   1     -10.987   5.502  71.588  1.00  0.00    -0.238 C  
BRANCH  16  17
ATOM     17  CG  GLU A   1     -10.276   5.011  70.326  1.00  0.00    -0.328 C  
ATOM     18  CD  GLU A   1      -9.444   3.782  70.586  1.00  0.00    -0.170 C  
ATOM     19  OE2 GLU A   1      -8.922   3.515  71.654  1.00  0.00    -0.098 OA 
ATOM     20  OE1 GLU A   1      -9.299   3.008  69.487  1.00  0.00    -0.143 OA 
ENDBRANCH  16  17
ENDBRANCH  12  16
ENDBRANCH  10  12
ENDBRANCH   7   8
ENDBRANCH   2   3
BRANCH   2  21
HETATM   21  C   UNK A   0      -8.144   9.190  65.203  1.00  0.00    -0.130 C  
BRANCH  21  22
HETATM   22  C   UNK A   0      -7.846   7.813  65.754  1.00  0.00    -0.104 A  
HETATM   23  C   UNK A   0      -8.118   5.398  65.677  1.00  0.00    -0.115 A  
HETATM   24  C   UNK A   0      -7.257   5.243  66.763  1.00  0.00    -0.078 A  
HETATM   25  C   UNK A   0      -8.416   6.669  65.174  1.00  0.00    -0.041 A  
HETATM   26  H   UNK A   0      -8.677   2.077  65.132  1.00  0.00     0.000 HD 
HETATM   27  C   UNK A   0      -6.709   6.376  67.362  1.00  0.00    -0.060 A  
HETATM   28  C   UNK A   0      -7.118   1.503  67.061  1.00  0.00    -0.046 C  
HETATM   29  N   UNK A   0      -6.994   3.957  67.234  1.00  0.00    -0.054 NA 
HETATM   30  N   UNK A   0      -8.325   2.932  65.562  1.00  0.00    -0.092 N  
HETATM   31  C   UNK A   0      -6.996   7.649  66.856  1.00  0.00    -0.079 A  
HETATM   32  C   UNK A   0      -8.699   4.169  65.075  1.00  0.00    -0.124 C  
HETATM   33  O   UNK A   0      -9.500   4.300  64.154  1.00  0.00    -0.156 OA 
HETATM   34  C   UNK A   0      -7.518   2.877  66.574  1.00  0.00    -0.075 C  
ENDBRANCH  21  22
ENDBRANCH   2  21
TORSDOF 7
ENDMDL
MODEL      271
REMARK 921   NORMALIZED FREE ENERGY PREDICTED BY IDOCK:   -3.93 KCAL/MOL
REMARK 922        TOTAL FREE ENERGY PREDICTED BY IDOCK:   -6.66 KCAL/MOL
REMARK 923 INTER-LIGAND FREE ENERGY PREDICTED BY IDOCK:   -5.33 KCAL/MOL
REMARK 924 INTRA-LIGAND FREE ENERGY PREDICTED BY IDOCK:   -1.33 KCAL/MOL
REMARK 927      BINDING AFFINITY PREDICTED BY RF-SCORE:    0.00 PKD
ROOT
HETATM    1  C   UNK A   0      -8.018   9.146  64.396  1.00  0.00    -0.137 C  
HETATM    2  N   UNK A   0      -7.274   8.678  65.561  1.00  0.00    -0.082 NA 
ENDROOT
BRANCH   2   3
HETATM    3  C   UNK A   0      -7.665   7.505  66.155  1.00  0.00    -0.090 A  
HETATM    4  C   UNK A   0      -8.948   5.686  66.881  1.00  0.00    -0.112 A  
HETATM    5  C   UNK A   0      -8.777   6.721  65.907  1.00  0.00    -0.147 A  
HETATM    6  S   UNK A   0      -6.712   6.789  67.387  1.00  0.00    -0.069 SA 
HETATM    7  C   UNK A   0      -7.927   5.673  67.810  1.00  0.00    -0.098 A  
BRANCH   7   8
HETATM    8  C   UNK A   0      -7.824   4.890  69.029  1.00  0.00    -0.076 C  
HETATM    9  O   UNK A   0      -7.248   3.810  69.093  1.00  0.00    -0.049 OA 
ATOM     10  N   GLU A   1      -8.475   5.429  70.130  1.00  0.00    -0.116 N  
ATOM     11  H   GLU A   1      -8.974   6.313  70.030  1.00  0.00     0.000 HD 
BRANCH  10  12
ATOM     12  CA  GLU A   1      -8.460   4.757  71.432  1.00  0.00    -0.108 C  
ATOM     13  C   GLU A   1      -9.901   4.430  71.866  1.00  0.00    -0.180 C  
ATOM     14  O   GLU A   1     -10.836   5.244  71.316  1.00  0.00    -0.182 OA 
ATOM     15  OXT GLU A   1     -10.183   3.616  72.735  1.00  0.00    -0.156 OA 
BRANCH  12  16
ATOM     16  CB  GLU A   1      -7.783   5.664  72.465  1.00  0.00    -0.102 C  
BRANCH  16  17
ATOM     17  CG  GLU A   1      -8.780   6.540  73.224  1.00  0.00    -0.132 C  
ATOM     18  CD  GLU A   1      -8.806   7.953  72.702  1.00  0.00    -0.178 C  
ATOM     19  OE2 GLU A   1      -7.857   8.516  72.187  1.00  0.00    -0.188 OA 
ATOM     20  OE1 GLU A   1      -9.999   8.560  72.899  1.00  0.00    -0.215 OA 
ENDBRANCH  16  17
ENDBRANCH  12  16
ENDBRANCH  10  12
ENDBRANCH   7   8
ENDBRANCH   2   3
BRANCH   2  21
HETATM   21  C   UNK A   0      -6.790   9.734  66.471  1.00  0.00    -0.084 C  
BRANCH  21  22
HETATM   22  C   UNK A   0      -7.926  10.339  67.268  1.00  0.00    -0.107 A  
HETATM   23  C   UNK A   0      -9.782  10.105  68.820  1.00  0.00    -0.174 A  
HETATM   24  C   UNK A   0     -10.019  11.479  68.780  1.00  0.00    -0.157 A  
HETATM   25  C   UNK A   0      -8.748   9.534  68.071  1.00  0.00    -0.120 A  
HETATM   26  H   UNK A   0     -12.208   9.347  71.095  1.00  0.00     0.000 HD 
HETATM   27  C   UNK A   0      -9.224  12.282  67.963  1.00  0.00    -0.195 A  
HETATM   28  C   UNK A   0     -12.833  11.810  71.243  1.00  0.00    -0.409 C  
HETATM   29  N   UNK A   0     -11.065  12.003  69.539  1.00  0.00    -0.452 NA 
HETATM   30  N   UNK A   0     -11.626   9.893  70.460  1.00  0.00    -0.290 N  
HETATM   31  C   UNK A   0      -8.182  11.716  67.219  1.00  0.00    -0.159 A  
HETATM   32  C   UNK A   0     -10.661   9.278  69.687  1.00  0.00    -0.229 C  
HETATM   33  O   UNK A   0     -10.495   8.062  69.685  1.00  0.00    -0.218 OA 
HETATM   34  C   UNK A   0     -11.779  11.176  70.365  1.00  0.00    -0.320 C  
ENDBRANCH  21  22
ENDBRANCH   2  21
TORSDOF 7
ENDMDL
MODEL      272
REMARK 921   NORMALIZED FREE ENERGY PREDICTED BY IDOCK:   -3.89 KCAL/MOL
REMARK 922        TOTAL FREE ENERGY PREDICTED BY IDOCK:   -6.61 KCAL/MOL
REMARK 923 INTER-LIGAND FREE ENERGY PREDICTED BY IDOCK:   -5.96 KCAL/MOL
REMARK 924 INTRA-LIGAND FREE ENERGY PREDICTED BY IDOCK:   -0.65 KCAL/MOL
REMARK 927      BINDING AFFINITY PREDICTED BY RF-SCORE:    0.00 PKD
ROOT
HETATM    1  C   UNK A   0      -9.767  19.698  65.884  1.00  0.00    -0.239 C  
HETATM    2  N   UNK A   0      -9.255  18.464  66.472  1.00  0.00    -0.298 NA 
ENDROOT
BRANCH   2   3
HETATM    3  C   UNK A   0     -10.158  17.540  66.932  1.00  0.00    -0.324 A  
HETATM    4  C   UNK A   0     -11.465  16.198  68.337  1.00  0.00    -0.298 A  
HETATM    5  C   UNK A   0     -10.736  17.420  68.182  1.00  0.00    -0.343 A  
HETATM    6  S   UNK A   0     -10.753  16.308  65.897  1.00  0.00    -0.170 SA 
HETATM    7  C   UNK A   0     -11.473  15.447  67.178  1.00  0.00    -0.133 A  
BRANCH   7   8
HETATM    8  C   UNK A   0     -11.962  14.094  66.981  1.00  0.00    -0.439 C  
HETATM    9  O   UNK A   0     -12.801  13.794  66.139  1.00  0.00    -0.349 OA 
ATOM     10  N   GLU A   1     -11.444  13.150  67.855  1.00  0.00    -0.288 N  
ATOM     11  H   GLU A   1     -10.774  13.443  68.566  1.00  0.00     0.000 HD 
BRANCH  10  12
ATOM     12  CA  GLU A   1     -11.840  11.741  67.780  1.00  0.00    -0.196 C  
ATOM     13  C   GLU A   1     -12.018  11.173  69.200  1.00  0.00    -0.343 C  
ATOM     14  O   GLU A   1     -11.297  11.826  70.145  1.00  0.00    -0.157 OA 
ATOM     15  OXT GLU A   1     -12.627  10.142  69.451  1.00  0.00     0.146 OA 
BRANCH  12  16
ATOM     16  CB  GLU A   1     -10.768  10.952  67.019  1.00  0.00    -0.323 C  
BRANCH  16  17
ATOM     17  CG  GLU A   1      -9.981  11.821  66.039  1.00  0.00    -0.258 C  
ATOM     18  CD  GLU A   1      -9.681  11.097  64.752  1.00  0.00    -0.257 C  
ATOM     19  OE2 GLU A   1      -9.542   9.891  64.655  1.00  0.00    -0.299 OA 
ATOM     20  OE1 GLU A   1      -9.542  11.936  63.701  1.00  0.00    -0.246 OA 
ENDBRANCH  16  17
ENDBRANCH  12  16
ENDBRANCH  10  12
ENDBRANCH   7   8
ENDBRANCH   2   3
BRANCH   2  21
HETATM   21  C   UNK A   0      -8.014  18.603  67.258  1.00  0.00    -0.237 C  
BRANCH  21  22
HETATM   22  C   UNK A   0      -7.263  17.292  67.341  1.00  0.00    -0.183 A  
HETATM   23  C   UNK A   0      -7.181  14.934  67.927  1.00  0.00    -0.166 A  
HETATM   24  C   UNK A   0      -5.870  14.840  67.458  1.00  0.00     0.112 A  
HETATM   25  C   UNK A   0      -7.875  16.147  67.873  1.00  0.00    -0.151 A  
HETATM   26  H   UNK A   0      -7.539  11.650  68.777  1.00  0.00     0.000 HD 
HETATM   27  C   UNK A   0      -5.246  15.979  66.953  1.00  0.00     0.415 A  
HETATM   28  C   UNK A   0      -5.173  11.185  67.960  1.00  0.00    -0.043 C  
HETATM   29  N   UNK A   0      -5.215  13.611  67.537  1.00  0.00    -0.334 NA 
HETATM   30  N   UNK A   0      -7.108  12.513  68.447  1.00  0.00    -0.099 N  
HETATM   31  C   UNK A   0      -5.941  17.193  66.889  1.00  0.00    -0.224 A  
HETATM   32  C   UNK A   0      -7.808  13.703  68.475  1.00  0.00    -0.131 C  
HETATM   33  O   UNK A   0      -8.940  13.791  68.940  1.00  0.00    -0.022 OA 
HETATM   34  C   UNK A   0      -5.895  12.512  67.992  1.00  0.00    -0.082 C  
ENDBRANCH  21  22
ENDBRANCH   2  21
TORSDOF 7
ENDMDL
MODEL      273
REMARK 921   NORMALIZED FREE ENERGY PREDICTED BY IDOCK:   -3.89 KCAL/MOL
REMARK 922        TOTAL FREE ENERGY PREDICTED BY IDOCK:   -6.61 KCAL/MOL
REMARK 923 INTER-LIGAND FREE ENERGY PREDICTED BY IDOCK:   -5.66 KCAL/MOL
REMARK 924 INTRA-LIGAND FREE ENERGY PREDICTED BY IDOCK:   -0.95 KCAL/MOL
REMARK 927      BINDING AFFINITY PREDICTED BY RF-SCORE:    0.00 PKD
ROOT
HETATM    1  C   UNK A   0      -9.053   8.469  65.682  1.00  0.00    -0.132 C  
HETATM    2  N   UNK A   0      -7.966   9.296  66.196  1.00  0.00    -0.106 NA 
ENDROOT
BRANCH   2   3
HETATM    3  C   UNK A   0      -7.669   9.224  67.532  1.00  0.00    -0.092 A  
HETATM    4  C   UNK A   0      -6.526   8.944  69.557  1.00  0.00    -0.043 A  
HETATM    5  C   UNK A   0      -6.439   9.264  68.165  1.00  0.00    -0.058 A  
HETATM    6  S   UNK A   0      -8.917   9.082  68.699  1.00  0.00    -0.137 SA 
HETATM    7  C   UNK A   0      -7.828   8.728  69.960  1.00  0.00    -0.094 A  
BRANCH   7   8
HETATM    8  C   UNK A   0      -8.309   8.232  71.238  1.00  0.00    -0.131 C  
HETATM    9  O   UNK A   0      -8.399   8.929  72.243  1.00  0.00    -0.384 OA 
ATOM     10  N   GLU A   1      -8.619   6.880  71.264  1.00  0.00    -0.123 N  
ATOM     11  H   GLU A   1      -8.498   6.324  70.417  1.00  0.00     0.000 HD 
BRANCH  10  12
ATOM     12  CA  GLU A   1      -9.118   6.234  72.481  1.00  0.00    -0.141 C  
ATOM     13  C   GLU A   1      -7.934   5.810  73.369  1.00  0.00    -0.109 C  
ATOM     14  O   GLU A   1      -6.782   5.606  72.684  1.00  0.00    -0.068 OA 
ATOM     15  OXT GLU A   1      -8.036   5.535  74.557  1.00  0.00    -0.104 OA 
BRANCH  12  16
ATOM     16  CB  GLU A   1      -9.964   5.013  72.099  1.00  0.00    -0.236 C  
BRANCH  16  17
ATOM     17  CG  GLU A   1      -9.822   4.637  70.624  1.00  0.00    -0.296 C  
ATOM     18  CD  GLU A   1      -9.111   3.321  70.440  1.00  0.00    -0.121 C  
ATOM     19  OE2 GLU A   1      -8.277   2.875  71.206  1.00  0.00    -0.060 OA 
ATOM     20  OE1 GLU A   1      -9.470   2.690  69.299  1.00  0.00    -0.141 OA 
ENDBRANCH  16  17
ENDBRANCH  12  16
ENDBRANCH  10  12
ENDBRANCH   7   8
ENDBRANCH   2   3
BRANCH   2  21
HETATM   21  C   UNK A   0      -7.835  10.629  65.574  1.00  0.00    -0.099 C  
BRANCH  21  22
HETATM   22  C   UNK A   0      -8.410  11.711  66.463  1.00  0.00    -0.122 A  
HETATM   23  C   UNK A   0     -10.319  12.842  67.455  1.00  0.00    -0.222 A  
HETATM   24  C   UNK A   0      -9.475  13.706  68.151  1.00  0.00    -0.217 A  
HETATM   25  C   UNK A   0      -9.798  11.853  66.615  1.00  0.00    -0.219 A  
HETATM   26  H   UNK A   0     -13.252  14.051  68.710  1.00  0.00     0.000 HD 
HETATM   27  C   UNK A   0      -8.096  13.590  67.984  1.00  0.00    -0.156 A  
HETATM   28  C   UNK A   0     -11.953  15.723  70.123  1.00  0.00    -0.364 C  
HETATM   29  N   UNK A   0     -10.040  14.682  68.973  1.00  0.00    -0.278 NA 
HETATM   30  N   UNK A   0     -12.253  13.954  68.534  1.00  0.00    -0.493 N  
HETATM   31  C   UNK A   0      -7.569  12.595  67.152  1.00  0.00    -0.067 A  
HETATM   32  C   UNK A   0     -11.785  13.008  67.643  1.00  0.00    -0.366 C  
HETATM   33  O   UNK A   0     -12.535  12.288  66.992  1.00  0.00    -0.198 OA 
HETATM   34  C   UNK A   0     -11.399  14.716  69.142  1.00  0.00    -0.281 C  
ENDBRANCH  21  22
ENDBRANCH   2  21
TORSDOF 7
ENDMDL
MODEL      274
REMARK 921   NORMALIZED FREE ENERGY PREDICTED BY IDOCK:   -3.89 KCAL/MOL
REMARK 922        TOTAL FREE ENERGY PREDICTED BY IDOCK:   -6.61 KCAL/MOL
REMARK 923 INTER-LIGAND FREE ENERGY PREDICTED BY IDOCK:   -5.58 KCAL/MOL
REMARK 924 INTRA-LIGAND FREE ENERGY PREDICTED BY IDOCK:   -1.02 KCAL/MOL
REMARK 927      BINDING AFFINITY PREDICTED BY RF-SCORE:    0.00 PKD
ROOT
HETATM    1  C   UNK A   0      -6.018  11.944  70.174  1.00  0.00    -0.159 C  
HETATM    2  N   UNK A   0      -6.916  12.164  69.045  1.00  0.00    -0.159 NA 
ENDROOT
BRANCH   2   3
HETATM    3  C   UNK A   0      -7.759  11.148  68.675  1.00  0.00    -0.135 A  
HETATM    4  C   UNK A   0      -9.645   9.950  67.974  1.00  0.00    -0.155 A  
HETATM    5  C   UNK A   0      -8.952  11.203  67.978  1.00  0.00    -0.149 A  
HETATM    6  S   UNK A   0      -7.382   9.518  69.054  1.00  0.00    -0.074 SA 
HETATM    7  C   UNK A   0      -8.931   8.959  68.617  1.00  0.00    -0.137 A  
BRANCH   7   8
HETATM    8  C   UNK A   0      -9.358   7.614  68.959  1.00  0.00    -0.146 C  
HETATM    9  O   UNK A   0     -10.041   6.913  68.221  1.00  0.00    -0.155 OA 
ATOM     10  N   GLU A   1      -8.977   7.180  70.220  1.00  0.00    -0.151 N  
ATOM     11  H   GLU A   1      -8.438   7.804  70.821  1.00  0.00     0.000 HD 
BRANCH  10  12
ATOM     12  CA  GLU A   1      -9.331   5.844  70.708  1.00  0.00    -0.160 C  
ATOM     13  C   GLU A   1     -10.153   5.964  72.005  1.00  0.00    -0.189 C  
ATOM     14  O   GLU A   1      -9.927   7.111  72.692  1.00  0.00    -0.166 OA 
ATOM     15  OXT GLU A   1     -10.837   5.060  72.465  1.00  0.00    -0.214 OA 
BRANCH  12  16
ATOM     16  CB  GLU A   1      -8.051   5.038  70.959  1.00  0.00    -0.101 C  
BRANCH  16  17
ATOM     17  CG  GLU A   1      -8.123   3.624  70.385  1.00  0.00    -0.062 C  
ATOM     18  CD  GLU A   1      -7.496   3.534  69.017  1.00  0.00    -0.052 C  
ATOM     19  OE2 GLU A   1      -7.447   4.452  68.219  1.00  0.00    -0.064 OA 
ATOM     20  OE1 GLU A   1      -7.018   2.299  68.743  1.00  0.00    -0.039 OA 
ENDBRANCH  16  17
ENDBRANCH  12  16
ENDBRANCH  10  12
ENDBRANCH   7   8
ENDBRANCH   2   3
BRANCH   2  21
HETATM   21  C   UNK A   0      -6.364  12.980  67.945  1.00  0.00    -0.134 C  
BRANCH  21  22
HETATM   22  C   UNK A   0      -6.907  14.392  67.979  1.00  0.00    -0.150 A  
HETATM   23  C   UNK A   0      -8.684  15.963  68.507  1.00  0.00    -0.194 A  
HETATM   24  C   UNK A   0      -7.900  17.032  68.074  1.00  0.00    -0.182 A  
HETATM   25  C   UNK A   0      -8.199  14.653  68.461  1.00  0.00    -0.152 A  
HETATM   26  H   UNK A   0     -11.368  17.817  69.507  1.00  0.00     0.000 HD 
HETATM   27  C   UNK A   0      -6.626  16.778  67.567  1.00  0.00    -0.172 A  
HETATM   28  C   UNK A   0     -10.147  19.945  68.826  1.00  0.00    -0.487 C  
HETATM   29  N   UNK A   0      -8.428  18.322  68.133  1.00  0.00    -0.270 NA 
HETATM   30  N   UNK A   0     -10.457  17.585  69.113  1.00  0.00    -0.392 N  
HETATM   31  C   UNK A   0      -6.132  15.469  67.528  1.00  0.00    -0.119 A  
HETATM   32  C   UNK A   0     -10.044  16.270  69.023  1.00  0.00    -0.259 C  
HETATM   33  O   UNK A   0     -10.761  15.331  69.355  1.00  0.00    -0.239 OA 
HETATM   34  C   UNK A   0      -9.664  18.519  68.689  1.00  0.00    -0.365 C  
ENDBRANCH  21  22
ENDBRANCH   2  21
TORSDOF 7
ENDMDL
MODEL      275
REMARK 921   NORMALIZED FREE ENERGY PREDICTED BY IDOCK:   -3.88 KCAL/MOL
REMARK 922        TOTAL FREE ENERGY PREDICTED BY IDOCK:   -6.61 KCAL/MOL
REMARK 923 INTER-LIGAND FREE ENERGY PREDICTED BY IDOCK:   -6.31 KCAL/MOL
REMARK 924 INTRA-LIGAND FREE ENERGY PREDICTED BY IDOCK:   -0.30 KCAL/MOL
REMARK 927      BINDING AFFINITY PREDICTED BY RF-SCORE:    0.00 PKD
ROOT
HETATM    1  C   UNK A   0      -6.904  19.021  67.223  1.00  0.00    -0.206 C  
HETATM    2  N   UNK A   0      -6.776  17.619  67.609  1.00  0.00    -0.168 NA 
ENDROOT
BRANCH   2   3
HETATM    3  C   UNK A   0      -7.919  16.908  67.866  1.00  0.00    -0.183 A  
HETATM    4  C   UNK A   0      -9.784  15.983  68.939  1.00  0.00    -0.232 A  
HETATM    5  C   UNK A   0      -8.837  17.056  68.890  1.00  0.00    -0.206 A  
HETATM    6  S   UNK A   0      -8.408  15.633  66.828  1.00  0.00    -0.278 SA 
HETATM    7  C   UNK A   0      -9.599  15.079  67.913  1.00  0.00    -0.203 A  
BRANCH   7   8
HETATM    8  C   UNK A   0     -10.244  13.793  67.714  1.00  0.00    -0.241 C  
HETATM    9  O   UNK A   0     -10.965  13.539  66.755  1.00  0.00    -0.287 OA 
ATOM     10  N   GLU A   1     -10.028  12.866  68.723  1.00  0.00    -0.415 N  
ATOM     11  H   GLU A   1      -9.451  13.125  69.524  1.00  0.00     0.000 HD 
BRANCH  10  12
ATOM     12  CA  GLU A   1     -10.610  11.522  68.664  1.00  0.00    -0.208 C  
ATOM     13  C   GLU A   1     -11.994  11.525  69.340  1.00  0.00    -0.325 C  
ATOM     14  O   GLU A   1     -12.149  12.501  70.268  1.00  0.00    -0.349 OA 
ATOM     15  OXT GLU A   1     -12.834  10.649  69.178  1.00  0.00    -0.043 OA 
BRANCH  12  16
ATOM     16  CB  GLU A   1      -9.675  10.531  69.365  1.00  0.00    -0.188 C  
BRANCH  16  17
ATOM     17  CG  GLU A   1     -10.338   9.831  70.551  1.00  0.00    -0.348 C  
ATOM     18  CD  GLU A   1      -9.437   8.800  71.179  1.00  0.00    -0.240 C  
ATOM     19  OE2 GLU A   1      -8.579   8.177  70.580  1.00  0.00    -0.124 OA 
ATOM     20  OE1 GLU A   1      -9.703   8.603  72.490  1.00  0.00    -0.276 OA 
ENDBRANCH  16  17
ENDBRANCH  12  16
ENDBRANCH  10  12
ENDBRANCH   7   8
ENDBRANCH   2   3
BRANCH   2  21
HETATM   21  C   UNK A   0      -5.610  17.298  68.455  1.00  0.00    -0.141 C  
BRANCH  21  22
HETATM   22  C   UNK A   0      -5.718  15.907  69.040  1.00  0.00    -0.109 A  
HETATM   23  C   UNK A   0      -5.637  13.491  68.783  1.00  0.00    -0.075 A  
HETATM   24  C   UNK A   0      -5.885  13.315  70.144  1.00  0.00    -0.147 A  
HETATM   25  C   UNK A   0      -5.555  14.773  68.229  1.00  0.00    -0.117 A  
HETATM   26  H   UNK A   0      -5.312  10.185  68.004  1.00  0.00     0.000 HD 
HETATM   27  C   UNK A   0      -6.076  14.436  70.950  1.00  0.00    -0.142 A  
HETATM   28  C   UNK A   0      -5.710   9.576  70.444  1.00  0.00    -0.045 C  
HETATM   29  N   UNK A   0      -5.964  12.018  70.651  1.00  0.00    -0.461 NA 
HETATM   30  N   UNK A   0      -5.479  11.030  68.552  1.00  0.00    -0.043 N  
HETATM   31  C   UNK A   0      -5.986  15.721  70.402  1.00  0.00    -0.037 A  
HETATM   32  C   UNK A   0      -5.457  12.273  67.951  1.00  0.00    -0.075 C  
HETATM   33  O   UNK A   0      -5.292  12.418  66.743  1.00  0.00    -0.339 OA 
HETATM   34  C   UNK A   0      -5.715  10.955  69.824  1.00  0.00    -0.059 C  
ENDBRANCH  21  22
ENDBRANCH   2  21
TORSDOF 7
ENDMDL
MODEL      276
REMARK 921   NORMALIZED FREE ENERGY PREDICTED BY IDOCK:   -3.88 KCAL/MOL
REMARK 922        TOTAL FREE ENERGY PREDICTED BY IDOCK:   -6.60 KCAL/MOL
REMARK 923 INTER-LIGAND FREE ENERGY PREDICTED BY IDOCK:   -6.41 KCAL/MOL
REMARK 924 INTRA-LIGAND FREE ENERGY PREDICTED BY IDOCK:   -0.19 KCAL/MOL
REMARK 927      BINDING AFFINITY PREDICTED BY RF-SCORE:    0.00 PKD
ROOT
HETATM    1  C   UNK A   0     -10.675   9.056  66.963  1.00  0.00    -0.114 C  
HETATM    2  N   UNK A   0     -11.011  10.297  67.655  1.00  0.00    -0.303 NA 
ENDROOT
BRANCH   2   3
HETATM    3  C   UNK A   0     -10.369  11.448  67.276  1.00  0.00    -0.198 A  
HETATM    4  C   UNK A   0      -8.748  12.957  66.515  1.00  0.00     0.039 A  
HETATM    5  C   UNK A   0      -9.227  11.609  66.512  1.00  0.00    -0.205 A  
HETATM    6  S   UNK A   0     -10.981  12.983  67.735  1.00  0.00    -0.261 SA 
HETATM    7  C   UNK A   0      -9.573  13.800  67.232  1.00  0.00    -0.237 A  
BRANCH   7   8
HETATM    8  C   UNK A   0      -9.350  15.188  67.599  1.00  0.00    -0.189 C  
HETATM    9  O   UNK A   0      -9.395  15.598  68.753  1.00  0.00    -0.190 OA 
ATOM     10  N   GLU A   1      -9.126  16.047  66.533  1.00  0.00    -0.257 N  
ATOM     11  H   GLU A   1      -9.131  15.676  65.583  1.00  0.00     0.000 HD 
BRANCH  10  12
ATOM     12  CA  GLU A   1      -8.883  17.477  66.742  1.00  0.00    -0.256 C  
ATOM     13  C   GLU A   1      -9.991  18.300  66.058  1.00  0.00    -0.215 C  
ATOM     14  O   GLU A   1     -10.586  17.660  65.021  1.00  0.00    -0.525 OA 
ATOM     15  OXT GLU A   1     -10.225  19.473  66.313  1.00  0.00    -0.410 OA 
BRANCH  12  16
ATOM     16  CB  GLU A   1      -7.510  17.849  66.171  1.00  0.00    -0.315 C  
BRANCH  16  17
ATOM     17  CG  GLU A   1      -6.863  19.022  66.907  1.00  0.00    -0.207 C  
ATOM     18  CD  GLU A   1      -6.081  19.914  65.978  1.00  0.00    -0.175 C  
ATOM     19  OE2 GLU A   1      -5.539  19.538  64.954  1.00  0.00    -0.167 OA 
ATOM     20  OE1 GLU A   1      -6.008  21.190  66.419  1.00  0.00    -0.246 OA 
ENDBRANCH  16  17
ENDBRANCH  12  16
ENDBRANCH  10  12
ENDBRANCH   7   8
ENDBRANCH   2   3
BRANCH   2  21
HETATM   21  C   UNK A   0     -11.301  10.162  69.096  1.00  0.00    -0.143 C  
BRANCH  21  22
HETATM   22  C   UNK A   0     -10.268   9.298  69.787  1.00  0.00    -0.225 A  
HETATM   23  C   UNK A   0      -9.672   7.662  71.483  1.00  0.00    -0.191 A  
HETATM   24  C   UNK A   0      -8.346   7.661  71.049  1.00  0.00    -0.112 A  
HETATM   25  C   UNK A   0     -10.628   8.472  70.864  1.00  0.00    -0.252 A  
HETATM   26  H   UNK A   0      -9.301   5.286  73.903  1.00  0.00     0.000 HD 
HETATM   27  C   UNK A   0      -7.975   8.500  69.999  1.00  0.00    -0.109 A  
HETATM   28  C   UNK A   0      -6.840   5.056  73.294  1.00  0.00    -0.074 C  
HETATM   29  N   UNK A   0      -7.425   6.841  71.701  1.00  0.00    -0.086 NA 
HETATM   30  N   UNK A   0      -9.064   5.938  73.155  1.00  0.00    -0.131 N  
HETATM   31  C   UNK A   0      -8.931   9.305  69.369  1.00  0.00    -0.147 A  
HETATM   32  C   UNK A   0     -10.027   6.770  72.618  1.00  0.00    -0.171 C  
HETATM   33  O   UNK A   0     -11.178   6.805  73.041  1.00  0.00    -0.239 OA 
HETATM   34  C   UNK A   0      -7.856   5.999  72.692  1.00  0.00    -0.104 C  
ENDBRANCH  21  22
ENDBRANCH   2  21
TORSDOF 7
ENDMDL
MODEL      277
REMARK 921   NORMALIZED FREE ENERGY PREDICTED BY IDOCK:   -3.88 KCAL/MOL
REMARK 922        TOTAL FREE ENERGY PREDICTED BY IDOCK:   -6.59 KCAL/MOL
REMARK 923 INTER-LIGAND FREE ENERGY PREDICTED BY IDOCK:   -7.53 KCAL/MOL
REMARK 924 INTRA-LIGAND FREE ENERGY PREDICTED BY IDOCK:    0.94 KCAL/MOL
REMARK 927      BINDING AFFINITY PREDICTED BY RF-SCORE:    0.00 PKD
ROOT
HETATM    1  C   UNK A   0     -10.203   5.330  71.249  1.00  0.00    -0.224 C  
HETATM    2  N   UNK A   0     -10.359   6.280  70.152  1.00  0.00    -0.194 NA 
ENDROOT
BRANCH   2   3
HETATM    3  C   UNK A   0     -10.640   7.586  70.457  1.00  0.00    -0.225 A  
HETATM    4  C   UNK A   0     -11.494   9.508  71.488  1.00  0.00    -0.466 A  
HETATM    5  C   UNK A   0     -11.131   8.131  71.630  1.00  0.00    -0.310 A  
HETATM    6  S   UNK A   0     -10.366   8.831  69.310  1.00  0.00    -0.213 SA 
HETATM    7  C   UNK A   0     -11.211   9.993  70.227  1.00  0.00    -0.313 A  
BRANCH   7   8
HETATM    8  C   UNK A   0     -11.571  11.275  69.649  1.00  0.00    -0.330 C  
HETATM    9  O   UNK A   0     -12.024  12.209  70.303  1.00  0.00    -0.348 OA 
ATOM     10  N   GLU A   1     -11.413  11.365  68.273  1.00  0.00    -0.278 N  
ATOM     11  H   GLU A   1     -11.066  10.556  67.757  1.00  0.00     0.000 HD 
BRANCH  10  12
ATOM     12  CA  GLU A   1     -11.732  12.596  67.546  1.00  0.00    -0.368 C  
ATOM     13  C   GLU A   1     -10.526  13.022  66.689  1.00  0.00    -0.264 C  
ATOM     14  O   GLU A   1      -9.336  12.571  67.156  1.00  0.00    -0.189 OA 
ATOM     15  OXT GLU A   1     -10.596  13.815  65.759  1.00  0.00    -0.281 OA 
BRANCH  12  16
ATOM     16  CB  GLU A   1     -12.095  13.699  68.547  1.00  0.00    -0.321 C  
BRANCH  16  17
ATOM     17  CG  GLU A   1     -11.605  15.078  68.106  1.00  0.00    -0.360 C  
ATOM     18  CD  GLU A   1     -11.430  16.017  69.272  1.00  0.00    -0.350 C  
ATOM     19  OE2 GLU A   1     -12.075  15.964  70.304  1.00  0.00    -0.353 OA 
ATOM     20  OE1 GLU A   1     -10.495  16.967  69.042  1.00  0.00    -0.318 OA 
ENDBRANCH  16  17
ENDBRANCH  12  16
ENDBRANCH  10  12
ENDBRANCH   7   8
ENDBRANCH   2   3
BRANCH   2  21
HETATM   21  C   UNK A   0     -11.006   5.745  68.937  1.00  0.00    -0.180 C  
BRANCH  21  22
HETATM   22  C   UNK A   0      -9.981   5.329  67.904  1.00  0.00    -0.206 A  
HETATM   23  C   UNK A   0      -9.429   4.421  65.718  1.00  0.00    -0.174 A  
HETATM   24  C   UNK A   0      -8.067   4.590  65.966  1.00  0.00    -0.103 A  
HETATM   25  C   UNK A   0     -10.382   4.783  66.675  1.00  0.00    -0.258 A  
HETATM   26  H   UNK A   0      -9.110   3.221  62.541  1.00  0.00     0.000 HD 
HETATM   27  C   UNK A   0      -7.659   5.106  67.196  1.00  0.00    -0.092 A  
HETATM   28  C   UNK A   0      -6.581   3.458  62.710  1.00  0.00    -0.026 C  
HETATM   29  N   UNK A   0      -7.152   4.209  64.985  1.00  0.00    -0.061 NA 
HETATM   30  N   UNK A   0      -8.853   3.570  63.464  1.00  0.00    -0.094 N  
HETATM   31  C   UNK A   0      -8.610   5.479  68.153  1.00  0.00    -0.100 A  
HETATM   32  C   UNK A   0      -9.825   3.851  64.404  1.00  0.00    -0.188 C  
HETATM   33  O   UNK A   0     -11.018   3.648  64.199  1.00  0.00    -0.281 OA 
HETATM   34  C   UNK A   0      -7.610   3.758  63.775  1.00  0.00    -0.070 C  
ENDBRANCH  21  22
ENDBRANCH   2  21
TORSDOF 7
ENDMDL
MODEL      278
REMARK 921   NORMALIZED FREE ENERGY PREDICTED BY IDOCK:   -3.85 KCAL/MOL
REMARK 922        TOTAL FREE ENERGY PREDICTED BY IDOCK:   -6.56 KCAL/MOL
REMARK 923 INTER-LIGAND FREE ENERGY PREDICTED BY IDOCK:   -6.95 KCAL/MOL
REMARK 924 INTRA-LIGAND FREE ENERGY PREDICTED BY IDOCK:    0.38 KCAL/MOL
REMARK 927      BINDING AFFINITY PREDICTED BY RF-SCORE:    0.00 PKD
ROOT
HETATM    1  C   UNK A   0      -9.203   9.352  64.108  1.00  0.00     0.018 C  
HETATM    2  N   UNK A   0      -8.409   9.187  65.322  1.00  0.00    -0.137 NA 
ENDROOT
BRANCH   2   3
HETATM    3  C   UNK A   0      -8.983   8.554  66.394  1.00  0.00    -0.165 A  
HETATM    4  C   UNK A   0     -10.505   7.881  68.041  1.00  0.00    -0.245 A  
HETATM    5  C   UNK A   0     -10.318   8.432  66.733  1.00  0.00    -0.357 A  
HETATM    6  S   UNK A   0      -8.014   7.735  67.548  1.00  0.00    -0.125 SA 
HETATM    7  C   UNK A   0      -9.308   7.541  68.639  1.00  0.00    -0.143 A  
BRANCH   7   8
HETATM    8  C   UNK A   0      -9.070   7.109  70.004  1.00  0.00    -0.145 C  
HETATM    9  O   UNK A   0      -8.351   6.160  70.298  1.00  0.00    -0.121 OA 
ATOM     10  N   GLU A   1      -9.760   7.822  70.974  1.00  0.00    -0.163 N  
ATOM     11  H   GLU A   1     -10.377   8.583  70.690  1.00  0.00     0.000 HD 
BRANCH  10  12
ATOM     12  CA  GLU A   1      -9.621   7.505  72.399  1.00  0.00    -0.159 C  
ATOM     13  C   GLU A   1      -8.460   8.317  73.002  1.00  0.00    -0.195 C  
ATOM     14  O   GLU A   1      -7.521   8.685  72.097  1.00  0.00    -0.231 OA 
ATOM     15  OXT GLU A   1      -8.305   8.496  74.203  1.00  0.00    -0.301 OA 
BRANCH  12  16
ATOM     16  CB  GLU A   1      -9.365   6.002  72.563  1.00  0.00    -0.143 C  
BRANCH  16  17
ATOM     17  CG  GLU A   1     -10.604   5.243  73.039  1.00  0.00    -0.278 C  
ATOM     18  CD  GLU A   1     -10.455   3.753  72.869  1.00  0.00    -0.165 C  
ATOM     19  OE2 GLU A   1      -9.777   3.220  72.010  1.00  0.00    -0.144 OA 
ATOM     20  OE1 GLU A   1     -11.192   3.050  73.760  1.00  0.00    -0.217 OA 
ENDBRANCH  16  17
ENDBRANCH  12  16
ENDBRANCH  10  12
ENDBRANCH   7   8
ENDBRANCH   2   3
BRANCH   2  21
HETATM   21  C   UNK A   0      -7.499  10.304  65.642  1.00  0.00    -0.149 C  
BRANCH  21  22
HETATM   22  C   UNK A   0      -8.177  11.335  66.518  1.00  0.00    -0.165 A  
HETATM   23  C   UNK A   0     -10.084  12.752  67.029  1.00  0.00    -0.240 A  
HETATM   24  C   UNK A   0      -9.451  13.230  68.176  1.00  0.00    -0.222 A  
HETATM   25  C   UNK A   0      -9.457  11.815  66.202  1.00  0.00    -0.240 A  
HETATM   26  H   UNK A   0     -13.002  14.473  67.436  1.00  0.00     0.000 HD 
HETATM   27  C   UNK A   0      -8.168  12.779  68.482  1.00  0.00    -0.068 A  
HETATM   28  C   UNK A   0     -12.104  15.476  69.596  1.00  0.00    -0.352 C  
HETATM   29  N   UNK A   0     -10.113  14.169  68.968  1.00  0.00    -0.401 NA 
HETATM   30  N   UNK A   0     -12.052  14.143  67.605  1.00  0.00    -0.545 N  
HETATM   31  C   UNK A   0      -7.541  11.834  67.662  1.00  0.00    -0.132 A  
HETATM   32  C   UNK A   0     -11.444  13.270  66.725  1.00  0.00    -0.350 C  
HETATM   33  O   UNK A   0     -11.985  12.896  65.688  1.00  0.00    -0.392 OA 
HETATM   34  C   UNK A   0     -11.394  14.536  68.649  1.00  0.00    -0.276 C  
ENDBRANCH  21  22
ENDBRANCH   2  21
TORSDOF 7
ENDMDL
MODEL      279
REMARK 921   NORMALIZED FREE ENERGY PREDICTED BY IDOCK:   -3.85 KCAL/MOL
REMARK 922        TOTAL FREE ENERGY PREDICTED BY IDOCK:   -6.56 KCAL/MOL
REMARK 923 INTER-LIGAND FREE ENERGY PREDICTED BY IDOCK:   -7.49 KCAL/MOL
REMARK 924 INTRA-LIGAND FREE ENERGY PREDICTED BY IDOCK:    0.93 KCAL/MOL
REMARK 927      BINDING AFFINITY PREDICTED BY RF-SCORE:    0.00 PKD
ROOT
HETATM    1  C   UNK A   0      -8.214   9.069  64.836  1.00  0.00    -0.153 C  
HETATM    2  N   UNK A   0      -9.472   8.972  65.569  1.00  0.00    -0.424 NA 
ENDROOT
BRANCH   2   3
HETATM    3  C   UNK A   0      -9.974  10.106  66.154  1.00  0.00    -0.246 A  
HETATM    4  C   UNK A   0     -11.434  11.693  67.066  1.00  0.00    -0.336 A  
HETATM    5  C   UNK A   0     -11.195  10.313  66.769  1.00  0.00     0.204 A  
HETATM    6  S   UNK A   0      -9.040  11.543  66.218  1.00  0.00    -0.203 SA 
HETATM    7  C   UNK A   0     -10.361  12.492  66.725  1.00  0.00    -0.226 A  
BRANCH   7   8
HETATM    8  C   UNK A   0     -10.277  13.941  66.723  1.00  0.00    -0.268 C  
HETATM    9  O   UNK A   0     -11.214  14.674  67.024  1.00  0.00    -0.324 OA 
ATOM     10  N   GLU A   1      -9.061  14.459  66.302  1.00  0.00    -0.491 N  
ATOM     11  H   GLU A   1      -8.316  13.819  66.025  1.00  0.00     0.000 HD 
BRANCH  10  12
ATOM     12  CA  GLU A   1      -8.822  15.904  66.247  1.00  0.00    -0.351 C  
ATOM     13  C   GLU A   1      -7.377  16.210  66.679  1.00  0.00    -0.121 C  
ATOM     14  O   GLU A   1      -6.838  15.269  67.493  1.00  0.00    -0.171 OA 
ATOM     15  OXT GLU A   1      -6.804  17.266  66.445  1.00  0.00    -0.224 OA 
BRANCH  12  16
ATOM     16  CB  GLU A   1      -9.819  16.619  67.166  1.00  0.00    -0.257 C  
BRANCH  16  17
ATOM     17  CG  GLU A   1      -9.379  18.040  67.520  1.00  0.00    -0.257 C  
ATOM     18  CD  GLU A   1     -10.046  19.073  66.649  1.00  0.00    -0.392 C  
ATOM     19  OE2 GLU A   1     -10.415  18.878  65.505  1.00  0.00    -0.550 OA 
ATOM     20  OE1 GLU A   1     -10.164  20.273  67.262  1.00  0.00    -0.412 OA 
ENDBRANCH  16  17
ENDBRANCH  12  16
ENDBRANCH  10  12
ENDBRANCH   7   8
ENDBRANCH   2   3
BRANCH   2  21
HETATM   21  C   UNK A   0      -9.677   7.714  66.314  1.00  0.00    -0.056 C  
BRANCH  21  22
HETATM   22  C   UNK A   0      -9.305   7.870  67.773  1.00  0.00    -0.153 A  
HETATM   23  C   UNK A   0      -9.871   7.698  70.130  1.00  0.00    -0.184 A  
HETATM   24  C   UNK A   0      -8.594   8.126  70.492  1.00  0.00    -0.130 A  
HETATM   25  C   UNK A   0     -10.230   7.571  68.785  1.00  0.00    -0.206 A  
HETATM   26  H   UNK A   0     -11.035   7.195  73.298  1.00  0.00     0.000 HD 
HETATM   27  C   UNK A   0      -7.678   8.451  69.492  1.00  0.00    -0.096 A  
HETATM   28  C   UNK A   0      -8.779   7.907  74.236  1.00  0.00    -0.191 C  
HETATM   29  N   UNK A   0      -8.282   8.244  71.847  1.00  0.00    -0.137 NA 
HETATM   30  N   UNK A   0     -10.408   7.454  72.537  1.00  0.00    -0.212 N  
HETATM   31  C   UNK A   0      -8.031   8.317  68.144  1.00  0.00    -0.123 A  
HETATM   32  C   UNK A   0     -10.827   7.378  71.223  1.00  0.00    -0.238 C  
HETATM   33  O   UNK A   0     -11.970   7.054  70.914  1.00  0.00    -0.342 OA 
HETATM   34  C   UNK A   0      -9.203   7.859  72.786  1.00  0.00    -0.221 C  
ENDBRANCH  21  22
ENDBRANCH   2  21
TORSDOF 7
ENDMDL
MODEL      280
REMARK 921   NORMALIZED FREE ENERGY PREDICTED BY IDOCK:   -3.85 KCAL/MOL
REMARK 922        TOTAL FREE ENERGY PREDICTED BY IDOCK:   -6.55 KCAL/MOL
REMARK 923 INTER-LIGAND FREE ENERGY PREDICTED BY IDOCK:   -6.17 KCAL/MOL
REMARK 924 INTRA-LIGAND FREE ENERGY PREDICTED BY IDOCK:   -0.38 KCAL/MOL
REMARK 927      BINDING AFFINITY PREDICTED BY RF-SCORE:    0.00 PKD
ROOT
HETATM    1  C   UNK A   0      -6.338   9.174  65.543  1.00  0.00    -0.067 C  
HETATM    2  N   UNK A   0      -7.288   8.769  64.512  1.00  0.00    -0.099 NA 
ENDROOT
BRANCH   2   3
HETATM    3  C   UNK A   0      -8.133   9.717  63.997  1.00  0.00    -0.150 A  
HETATM    4  C   UNK A   0      -9.029  11.440  62.688  1.00  0.00    -0.211 A  
HETATM    5  C   UNK A   0      -8.097  10.358  62.771  1.00  0.00    -0.165 A  
HETATM    6  S   UNK A   0      -9.488  10.262  64.896  1.00  0.00    -0.305 SA 
HETATM    7  C   UNK A   0      -9.795  11.556  63.831  1.00  0.00    -0.296 A  
BRANCH   7   8
HETATM    8  C   UNK A   0     -10.726  12.610  64.193  1.00  0.00    -0.406 C  
HETATM    9  O   UNK A   0     -11.921  12.580  63.920  1.00  0.00    -0.399 OA 
ATOM     10  N   GLU A   1     -10.158  13.700  64.837  1.00  0.00    -0.600 N  
ATOM     11  H   GLU A   1      -9.154  13.706  65.016  1.00  0.00     0.000 HD 
BRANCH  10  12
ATOM     12  CA  GLU A   1     -10.970  14.842  65.266  1.00  0.00    -0.380 C  
ATOM     13  C   GLU A   1     -10.070  16.076  65.463  1.00  0.00    -0.304 C  
ATOM     14  O   GLU A   1      -8.777  15.772  65.740  1.00  0.00    -0.151 OA 
ATOM     15  OXT GLU A   1     -10.489  17.224  65.516  1.00  0.00    -0.609 OA 
BRANCH  12  16
ATOM     16  CB  GLU A   1     -11.691  14.492  66.573  1.00  0.00    -0.380 C  
BRANCH  16  17
ATOM     17  CG  GLU A   1     -10.783  13.775  67.573  1.00  0.00    -0.262 C  
ATOM     18  CD  GLU A   1     -11.567  13.113  68.676  1.00  0.00    -0.321 C  
ATOM     19  OE2 GLU A   1     -12.643  13.504  69.090  1.00  0.00    -0.001 OA 
ATOM     20  OE1 GLU A   1     -10.928  12.041  69.199  1.00  0.00    -0.226 OA 
ENDBRANCH  16  17
ENDBRANCH  12  16
ENDBRANCH  10  12
ENDBRANCH   7   8
ENDBRANCH   2   3
BRANCH   2  21
HETATM   21  C   UNK A   0      -7.853   7.414  64.668  1.00  0.00    -0.123 C  
BRANCH  21  22
HETATM   22  C   UNK A   0      -7.751   6.936  66.100  1.00  0.00    -0.091 A  
HETATM   23  C   UNK A   0      -6.774   5.472  67.777  1.00  0.00    -0.055 A  
HETATM   24  C   UNK A   0      -7.536   6.073  68.779  1.00  0.00    -0.091 A  
HETATM   25  C   UNK A   0      -6.877   5.893  66.448  1.00  0.00    -0.059 A  
HETATM   26  H   UNK A   0      -5.069   3.324  69.807  1.00  0.00     0.000 HD 
HETATM   27  C   UNK A   0      -8.427   7.090  68.437  1.00  0.00    -0.123 A  
HETATM   28  C   UNK A   0      -6.299   4.264  71.828  1.00  0.00    -0.018 C  
HETATM   29  N   UNK A   0      -7.405   5.615  70.090  1.00  0.00    -0.067 NA 
HETATM   30  N   UNK A   0      -5.731   4.040  69.510  1.00  0.00    -0.017 N  
HETATM   31  C   UNK A   0      -8.526   7.521  67.109  1.00  0.00    -0.121 A  
HETATM   32  C   UNK A   0      -5.850   4.378  68.176  1.00  0.00    -0.026 C  
HETATM   33  O   UNK A   0      -5.216   3.807  67.293  1.00  0.00    -0.010 OA 
HETATM   34  C   UNK A   0      -6.476   4.650  70.377  1.00  0.00    -0.034 C  
ENDBRANCH  21  22
ENDBRANCH   2  21
TORSDOF 7
ENDMDL
MODEL      281
REMARK 921   NORMALIZED FREE ENERGY PREDICTED BY IDOCK:   -3.84 KCAL/MOL
REMARK 922        TOTAL FREE ENERGY PREDICTED BY IDOCK:   -6.54 KCAL/MOL
REMARK 923 INTER-LIGAND FREE ENERGY PREDICTED BY IDOCK:   -7.32 KCAL/MOL
REMARK 924 INTRA-LIGAND FREE ENERGY PREDICTED BY IDOCK:    0.78 KCAL/MOL
REMARK 927      BINDING AFFINITY PREDICTED BY RF-SCORE:    0.00 PKD
ROOT
HETATM    1  C   UNK A   0     -10.637   8.079  72.698  1.00  0.00    -0.350 C  
HETATM    2  N   UNK A   0     -11.563   7.118  72.108  1.00  0.00    -0.272 NA 
ENDROOT
BRANCH   2   3
HETATM    3  C   UNK A   0     -11.044   6.070  71.391  1.00  0.00    -0.274 A  
HETATM    4  C   UNK A   0      -9.879   4.128  70.795  1.00  0.00    -0.248 A  
HETATM    5  C   UNK A   0     -10.515   4.873  71.839  1.00  0.00    -0.233 A  
HETATM    6  S   UNK A   0     -11.005   6.117  69.677  1.00  0.00    -0.414 SA 
HETATM    7  C   UNK A   0      -9.995   4.750  69.568  1.00  0.00    -0.216 A  
BRANCH   7   8
HETATM    8  C   UNK A   0      -9.359   4.396  68.312  1.00  0.00    -0.147 C  
HETATM    9  O   UNK A   0      -9.444   5.076  67.295  1.00  0.00    -0.124 OA 
ATOM     10  N   GLU A   1      -8.672   3.190  68.320  1.00  0.00    -0.096 N  
ATOM     11  H   GLU A   1      -8.652   2.634  69.175  1.00  0.00     0.000 HD 
BRANCH  10  12
ATOM     12  CA  GLU A   1      -7.976   2.698  67.128  1.00  0.00    -0.074 C  
ATOM     13  C   GLU A   1      -6.457   2.878  67.301  1.00  0.00    -0.036 C  
ATOM     14  O   GLU A   1      -6.117   3.871  68.160  1.00  0.00    -0.029 OA 
ATOM     15  OXT GLU A   1      -5.620   2.294  66.626  1.00  0.00    -0.016 OA 
BRANCH  12  16
ATOM     16  CB  GLU A   1      -8.470   3.468  65.897  1.00  0.00    -0.112 C  
BRANCH  16  17
ATOM     17  CG  GLU A   1      -8.763   2.552  64.709  1.00  0.00    -0.110 C  
ATOM     18  CD  GLU A   1      -9.851   3.103  63.823  1.00  0.00    -0.151 C  
ATOM     19  OE2 GLU A   1     -10.759   3.816  64.208  1.00  0.00    -0.267 OA 
ATOM     20  OE1 GLU A   1      -9.738   2.690  62.540  1.00  0.00    -0.092 OA 
ENDBRANCH  16  17
ENDBRANCH  12  16
ENDBRANCH  10  12
ENDBRANCH   7   8
ENDBRANCH   2   3
BRANCH   2  21
HETATM   21  C   UNK A   0     -12.828   7.684  71.602  1.00  0.00    -0.349 C  
BRANCH  21  22
HETATM   22  C   UNK A   0     -12.708   9.173  71.360  1.00  0.00    -0.383 A  
HETATM   23  C   UNK A   0     -12.031  11.042  69.960  1.00  0.00    -0.430 A  
HETATM   24  C   UNK A   0     -12.521  11.951  70.897  1.00  0.00    -0.300 A  
HETATM   25  C   UNK A   0     -12.119   9.664  70.184  1.00  0.00     0.050 A  
HETATM   26  H   UNK A   0     -11.045  13.345  67.644  1.00  0.00     0.000 HD 
HETATM   27  C   UNK A   0     -13.082  11.472  72.080  1.00  0.00    -0.430 A  
HETATM   28  C   UNK A   0     -11.888  15.215  69.152  1.00  0.00    -0.340 C  
HETATM   29  N   UNK A   0     -12.406  13.316  70.633  1.00  0.00    -0.360 NA 
HETATM   30  N   UNK A   0     -11.418  12.954  68.509  1.00  0.00    -0.286 N  
HETATM   31  C   UNK A   0     -13.181  10.094  72.304  1.00  0.00    -0.359 A  
HETATM   32  C   UNK A   0     -11.423  11.589  68.719  1.00  0.00    -0.287 C  
HETATM   33  O   UNK A   0     -10.940  10.798  67.915  1.00  0.00    -0.243 OA 
HETATM   34  C   UNK A   0     -11.895  13.730  69.431  1.00  0.00    -0.341 C  
ENDBRANCH  21  22
ENDBRANCH   2  21
TORSDOF 7
ENDMDL
MODEL      282
REMARK 921   NORMALIZED FREE ENERGY PREDICTED BY IDOCK:   -3.83 KCAL/MOL
REMARK 922        TOTAL FREE ENERGY PREDICTED BY IDOCK:   -6.52 KCAL/MOL
REMARK 923 INTER-LIGAND FREE ENERGY PREDICTED BY IDOCK:   -7.41 KCAL/MOL
REMARK 924 INTRA-LIGAND FREE ENERGY PREDICTED BY IDOCK:    0.89 KCAL/MOL
REMARK 927      BINDING AFFINITY PREDICTED BY RF-SCORE:    0.00 PKD
ROOT
HETATM    1  C   UNK A   0     -12.122  15.320  68.877  1.00  0.00    -0.192 C  
HETATM    2  N   UNK A   0     -12.132  14.230  67.907  1.00  0.00    -0.567 NA 
ENDROOT
BRANCH   2   3
HETATM    3  C   UNK A   0     -11.900  12.956  68.358  1.00  0.00    -0.318 A  
HETATM    4  C   UNK A   0     -11.807  10.621  68.513  1.00  0.00    -0.087 A  
HETATM    5  C   UNK A   0     -11.869  11.765  67.655  1.00  0.00    -0.241 A  
HETATM    6  S   UNK A   0     -11.564  12.661  70.014  1.00  0.00    -0.030 SA 
HETATM    7  C   UNK A   0     -11.730  10.974  69.845  1.00  0.00    -0.346 A  
BRANCH   7   8
HETATM    8  C   UNK A   0     -11.811  10.116  71.014  1.00  0.00    -0.383 C  
HETATM    9  O   UNK A   0     -12.438  10.409  72.026  1.00  0.00    -0.290 OA 
ATOM     10  N   GLU A   1     -11.077   8.941  70.932  1.00  0.00    -0.257 N  
ATOM     11  H   GLU A   1     -10.538   8.748  70.087  1.00  0.00     0.000 HD 
BRANCH  10  12
ATOM     12  CA  GLU A   1     -11.060   7.972  72.031  1.00  0.00    -0.293 C  
ATOM     13  C   GLU A   1      -9.764   8.133  72.847  1.00  0.00    -0.270 C  
ATOM     14  O   GLU A   1      -8.737   8.670  72.143  1.00  0.00    -0.272 OA 
ATOM     15  OXT GLU A   1      -9.610   7.689  73.977  1.00  0.00    -0.225 OA 
BRANCH  12  16
ATOM     16  CB  GLU A   1     -11.160   6.553  71.459  1.00  0.00    -0.310 C  
BRANCH  16  17
ATOM     17  CG  GLU A   1     -11.624   6.536  70.003  1.00  0.00    -0.455 C  
ATOM     18  CD  GLU A   1     -10.475   6.366  69.043  1.00  0.00    -0.224 C  
ATOM     19  OE2 GLU A   1      -9.337   6.744  69.256  1.00  0.00    -0.144 OA 
ATOM     20  OE1 GLU A   1     -10.845   5.775  67.885  1.00  0.00    -0.248 OA 
ENDBRANCH  16  17
ENDBRANCH  12  16
ENDBRANCH  10  12
ENDBRANCH   7   8
ENDBRANCH   2   3
BRANCH   2  21
HETATM   21  C   UNK A   0     -11.578  14.558  66.579  1.00  0.00    -0.371 C  
BRANCH  21  22
HETATM   22  C   UNK A   0     -10.624  13.486  66.098  1.00  0.00    -0.290 A  
HETATM   23  C   UNK A   0      -8.558  12.229  66.340  1.00  0.00     0.037 A  
HETATM   24  C   UNK A   0      -8.868  11.459  65.219  1.00  0.00     0.064 A  
HETATM   25  C   UNK A   0      -9.423  13.236  66.779  1.00  0.00    -0.257 A  
HETATM   26  H   UNK A   0      -5.639  10.643  67.119  1.00  0.00     0.000 HD 
HETATM   27  C   UNK A   0     -10.046  11.720  64.521  1.00  0.00    -0.312 A  
HETATM   28  C   UNK A   0      -5.972   9.070  65.145  1.00  0.00    -0.059 C  
HETATM   29  N   UNK A   0      -7.972  10.469  64.813  1.00  0.00    -0.309 NA 
HETATM   30  N   UNK A   0      -6.493  10.888  66.618  1.00  0.00    -0.109 N  
HETATM   31  C   UNK A   0     -10.920  12.720  64.963  1.00  0.00    -0.319 A  
HETATM   32  C   UNK A   0      -7.284  11.935  67.048  1.00  0.00    -0.118 C  
HETATM   33  O   UNK A   0      -6.978  12.644  68.002  1.00  0.00    -0.078 OA 
HETATM   34  C   UNK A   0      -6.856  10.221  65.568  1.00  0.00    -0.134 C  
ENDBRANCH  21  22
ENDBRANCH   2  21
TORSDOF 7
ENDMDL
MODEL      283
REMARK 921   NORMALIZED FREE ENERGY PREDICTED BY IDOCK:   -3.82 KCAL/MOL
REMARK 922        TOTAL FREE ENERGY PREDICTED BY IDOCK:   -6.52 KCAL/MOL
REMARK 923 INTER-LIGAND FREE ENERGY PREDICTED BY IDOCK:   -6.83 KCAL/MOL
REMARK 924 INTRA-LIGAND FREE ENERGY PREDICTED BY IDOCK:    0.31 KCAL/MOL
REMARK 927      BINDING AFFINITY PREDICTED BY RF-SCORE:    0.00 PKD
ROOT
HETATM    1  C   UNK A   0      -7.809   9.146  64.667  1.00  0.00    -0.118 C  
HETATM    2  N   UNK A   0      -8.415   9.595  65.917  1.00  0.00    -0.125 NA 
ENDROOT
BRANCH   2   3
HETATM    3  C   UNK A   0      -9.257  10.676  65.880  1.00  0.00    -0.182 A  
HETATM    4  C   UNK A   0     -10.845  12.251  65.186  1.00  0.00    -0.340 A  
HETATM    5  C   UNK A   0     -10.353  10.912  65.070  1.00  0.00    -0.356 A  
HETATM    6  S   UNK A   0      -9.040  11.990  66.960  1.00  0.00    -0.197 SA 
HETATM    7  C   UNK A   0     -10.148  12.981  66.128  1.00  0.00    -0.285 A  
BRANCH   7   8
HETATM    8  C   UNK A   0     -10.238  14.401  66.420  1.00  0.00    -0.289 C  
HETATM    9  O   UNK A   0     -11.246  15.070  66.220  1.00  0.00    -0.344 OA 
ATOM     10  N   GLU A   1      -9.072  14.976  66.903  1.00  0.00    -0.231 N  
ATOM     11  H   GLU A   1      -8.241  14.395  67.023  1.00  0.00     0.000 HD 
BRANCH  10  12
ATOM     12  CA  GLU A   1      -9.006  16.400  67.245  1.00  0.00    -0.195 C  
ATOM     13  C   GLU A   1      -8.135  16.594  68.500  1.00  0.00    -0.226 C  
ATOM     14  O   GLU A   1      -8.078  15.502  69.302  1.00  0.00    -0.217 OA 
ATOM     15  OXT GLU A   1      -7.653  17.668  68.836  1.00  0.00    -0.269 OA 
BRANCH  12  16
ATOM     16  CB  GLU A   1     -10.424  16.930  67.491  1.00  0.00    -0.328 C  
BRANCH  16  17
ATOM     17  CG  GLU A   1     -10.758  18.142  66.621  1.00  0.00    -0.189 C  
ATOM     18  CD  GLU A   1     -10.459  19.442  67.322  1.00  0.00    -0.467 C  
ATOM     19  OE2 GLU A   1     -10.497  19.601  68.528  1.00  0.00    -0.392 OA 
ATOM     20  OE1 GLU A   1     -10.174  20.445  66.460  1.00  0.00    -0.405 OA 
ENDBRANCH  16  17
ENDBRANCH  12  16
ENDBRANCH  10  12
ENDBRANCH   7   8
ENDBRANCH   2   3
BRANCH   2  21
HETATM   21  C   UNK A   0      -7.559   9.481  67.113  1.00  0.00    -0.091 C  
BRANCH  21  22
HETATM   22  C   UNK A   0      -8.041   8.382  68.035  1.00  0.00    -0.123 A  
HETATM   23  C   UNK A   0      -8.475   6.032  68.480  1.00  0.00    -0.113 A  
HETATM   24  C   UNK A   0      -8.907   6.333  69.772  1.00  0.00    -0.140 A  
HETATM   25  C   UNK A   0      -8.047   7.043  67.614  1.00  0.00    -0.114 A  
HETATM   26  H   UNK A   0      -8.817   2.646  68.722  1.00  0.00     0.000 HD 
HETATM   27  C   UNK A   0      -8.929   7.663  70.188  1.00  0.00    -0.146 A  
HETATM   28  C   UNK A   0      -9.609   2.902  71.127  1.00  0.00    -0.226 C  
HETATM   29  N   UNK A   0      -9.330   5.292  70.599  1.00  0.00    -0.156 NA 
HETATM   30  N   UNK A   0      -8.849   3.634  68.975  1.00  0.00    -0.093 N  
HETATM   31  C   UNK A   0      -8.493   8.677  69.328  1.00  0.00    -0.123 A  
HETATM   32  C   UNK A   0      -8.482   4.605  68.064  1.00  0.00    -0.102 C  
HETATM   33  O   UNK A   0      -8.157   4.338  66.911  1.00  0.00    -0.100 OA 
HETATM   34  C   UNK A   0      -9.236   3.999  70.156  1.00  0.00    -0.142 C  
ENDBRANCH  21  22
ENDBRANCH   2  21
TORSDOF 7
ENDMDL
MODEL      284
REMARK 921   NORMALIZED FREE ENERGY PREDICTED BY IDOCK:   -3.78 KCAL/MOL
REMARK 922        TOTAL FREE ENERGY PREDICTED BY IDOCK:   -6.46 KCAL/MOL
REMARK 923 INTER-LIGAND FREE ENERGY PREDICTED BY IDOCK:   -5.65 KCAL/MOL
REMARK 924 INTRA-LIGAND FREE ENERGY PREDICTED BY IDOCK:   -0.80 KCAL/MOL
REMARK 927      BINDING AFFINITY PREDICTED BY RF-SCORE:    0.00 PKD
ROOT
HETATM    1  C   UNK A   0      -9.076  10.131  63.424  1.00  0.00    -0.276 C  
HETATM    2  N   UNK A   0     -10.050  10.107  64.512  1.00  0.00    -0.370 NA 
ENDROOT
BRANCH   2   3
HETATM    3  C   UNK A   0     -10.363  11.289  65.131  1.00  0.00    -0.295 A  
HETATM    4  C   UNK A   0     -11.550  13.063  66.095  1.00  0.00    -0.412 A  
HETATM    5  C   UNK A   0     -11.535  11.672  65.758  1.00  0.00    -0.175 A  
HETATM    6  S   UNK A   0      -9.211  12.556  65.232  1.00  0.00     0.590 SA 
HETATM    7  C   UNK A   0     -10.363  13.689  65.772  1.00  0.00    -0.298 A  
BRANCH   7   8
HETATM    8  C   UNK A   0     -10.048  15.106  65.811  1.00  0.00    -0.346 C  
HETATM    9  O   UNK A   0     -10.044  15.826  64.818  1.00  0.00    -0.330 OA 
ATOM     10  N   GLU A   1      -9.697  15.596  67.061  1.00  0.00    -0.224 N  
ATOM     11  H   GLU A   1      -9.677  14.959  67.858  1.00  0.00     0.000 HD 
BRANCH  10  12
ATOM     12  CA  GLU A   1      -9.355  17.006  67.260  1.00  0.00    -0.237 C  
ATOM     13  C   GLU A   1      -8.234  17.127  68.310  1.00  0.00    -0.230 C  
ATOM     14  O   GLU A   1      -8.184  16.087  69.179  1.00  0.00    -0.226 OA 
ATOM     15  OXT GLU A   1      -7.542  18.125  68.457  1.00  0.00    -0.273 OA 
BRANCH  12  16
ATOM     16  CB  GLU A   1     -10.601  17.773  67.717  1.00  0.00    -0.392 C  
BRANCH  16  17
ATOM     17  CG  GLU A   1     -10.702  19.163  67.089  1.00  0.00    -0.567 C  
ATOM     18  CD  GLU A   1     -10.080  20.225  67.959  1.00  0.00    -0.311 C  
ATOM     19  OE2 GLU A   1     -10.014  20.171  69.173  1.00  0.00    -0.246 OA 
ATOM     20  OE1 GLU A   1      -9.625  21.281  67.247  1.00  0.00    -0.240 OA 
ENDBRANCH  16  17
ENDBRANCH  12  16
ENDBRANCH  10  12
ENDBRANCH   7   8
ENDBRANCH   2   3
BRANCH   2  21
HETATM   21  C   UNK A   0     -10.002   8.914  65.379  1.00  0.00     0.578 C  
BRANCH  21  22
HETATM   22  C   UNK A   0      -8.983   9.078  66.487  1.00  0.00    -0.177 A  
HETATM   23  C   UNK A   0      -8.402   9.058  68.847  1.00  0.00    -0.125 A  
HETATM   24  C   UNK A   0      -7.071   9.347  68.545  1.00  0.00    -0.071 A  
HETATM   25  C   UNK A   0      -9.355   8.925  67.832  1.00  0.00    -0.155 A  
HETATM   26  H   UNK A   0      -8.001   8.807  72.225  1.00  0.00     0.000 HD 
HETATM   27  C   UNK A   0      -6.701   9.528  67.214  1.00  0.00    -0.072 A  
HETATM   28  C   UNK A   0      -5.515   9.286  71.962  1.00  0.00    -0.073 C  
HETATM   29  N   UNK A   0      -6.158   9.476  69.591  1.00  0.00    -0.039 NA 
HETATM   30  N   UNK A   0      -7.779   8.964  71.243  1.00  0.00    -0.127 N  
HETATM   31  C   UNK A   0      -7.649   9.387  66.193  1.00  0.00    -0.096 A  
HETATM   32  C   UNK A   0      -8.765   8.890  70.279  1.00  0.00    -0.169 C  
HETATM   33  O   UNK A   0      -9.944   8.690  70.556  1.00  0.00    -0.179 OA 
HETATM   34  C   UNK A   0      -6.566   9.236  70.876  1.00  0.00    -0.089 C  
ENDBRANCH  21  22
ENDBRANCH   2  21
TORSDOF 7
ENDMDL
MODEL      285
REMARK 921   NORMALIZED FREE ENERGY PREDICTED BY IDOCK:   -3.78 KCAL/MOL
REMARK 922        TOTAL FREE ENERGY PREDICTED BY IDOCK:   -6.45 KCAL/MOL
REMARK 923 INTER-LIGAND FREE ENERGY PREDICTED BY IDOCK:   -6.16 KCAL/MOL
REMARK 924 INTRA-LIGAND FREE ENERGY PREDICTED BY IDOCK:   -0.30 KCAL/MOL
REMARK 927      BINDING AFFINITY PREDICTED BY RF-SCORE:    0.00 PKD
ROOT
HETATM    1  C   UNK A   0      -9.417  10.450  67.782  1.00  0.00    -0.145 C  
HETATM    2  N   UNK A   0     -10.745  10.959  68.111  1.00  0.00    -0.198 NA 
ENDROOT
BRANCH   2   3
HETATM    3  C   UNK A   0     -10.849  12.235  68.602  1.00  0.00    -0.236 A  
HETATM    4  C   UNK A   0     -11.659  14.174  69.637  1.00  0.00    -0.349 A  
HETATM    5  C   UNK A   0     -11.719  12.746  69.548  1.00  0.00    -0.383 A  
HETATM    6  S   UNK A   0      -9.789  13.470  68.061  1.00  0.00    -0.244 SA 
HETATM    7  C   UNK A   0     -10.699  14.706  68.799  1.00  0.00    -0.249 A  
BRANCH   7   8
HETATM    8  C   UNK A   0     -10.445  16.102  68.488  1.00  0.00    -0.269 C  
HETATM    9  O   UNK A   0     -10.328  16.975  69.341  1.00  0.00    -0.299 OA 
ATOM     10  N   GLU A   1     -10.390  16.400  67.134  1.00  0.00    -0.288 N  
ATOM     11  H   GLU A   1     -10.527  15.654  66.453  1.00  0.00     0.000 HD 
BRANCH  10  12
ATOM     12  CA  GLU A   1     -10.139  17.765  66.662  1.00  0.00    -0.350 C  
ATOM     13  C   GLU A   1     -10.771  17.960  65.272  1.00  0.00     0.277 C  
ATOM     14  O   GLU A   1     -10.915  16.808  64.570  1.00  0.00    -0.921 OA 
ATOM     15  OXT GLU A   1     -10.990  19.054  64.769  1.00  0.00    -0.183 OA 
BRANCH  12  16
ATOM     16  CB  GLU A   1      -8.627  18.013  66.603  1.00  0.00    -0.281 C  
BRANCH  16  17
ATOM     17  CG  GLU A   1      -8.187  19.185  67.479  1.00  0.00    -0.310 C  
ATOM     18  CD  GLU A   1      -7.137  20.033  66.807  1.00  0.00    -0.234 C  
ATOM     19  OE2 GLU A   1      -6.331  19.618  65.995  1.00  0.00    -0.179 OA 
ATOM     20  OE1 GLU A   1      -7.155  21.317  67.230  1.00  0.00    -0.522 OA 
ENDBRANCH  16  17
ENDBRANCH  12  16
ENDBRANCH  10  12
ENDBRANCH   7   8
ENDBRANCH   2   3
BRANCH   2  21
HETATM   21  C   UNK A   0     -11.681   9.969  68.677  1.00  0.00     0.307 C  
BRANCH  21  22
HETATM   22  C   UNK A   0     -11.029   8.611  68.820  1.00  0.00     0.106 A  
HETATM   23  C   UNK A   0     -10.487   6.419  67.922  1.00  0.00    -0.276 A  
HETATM   24  C   UNK A   0      -9.777   6.094  69.078  1.00  0.00    -0.135 A  
HETATM   25  C   UNK A   0     -11.111   7.663  67.789  1.00  0.00     0.143 A  
HETATM   26  H   UNK A   0      -9.855   3.519  66.239  1.00  0.00     0.000 HD 
HETATM   27  C   UNK A   0      -9.714   7.020  70.118  1.00  0.00    -0.176 A  
HETATM   28  C   UNK A   0      -8.469   2.685  68.204  1.00  0.00    -0.100 C  
HETATM   29  N   UNK A   0      -9.176   4.839  69.168  1.00  0.00    -0.114 NA 
HETATM   30  N   UNK A   0      -9.861   4.211  66.988  1.00  0.00    -0.221 N  
HETATM   31  C   UNK A   0     -10.329   8.271  69.986  1.00  0.00    -0.212 A  
HETATM   32  C   UNK A   0     -10.548   5.400  66.841  1.00  0.00    -0.250 C  
HETATM   33  O   UNK A   0     -11.217   5.655  65.844  1.00  0.00     0.286 OA 
HETATM   34  C   UNK A   0      -9.224   3.990  68.095  1.00  0.00    -0.153 C  
ENDBRANCH  21  22
ENDBRANCH   2  21
TORSDOF 7
ENDMDL
MODEL      286
REMARK 921   NORMALIZED FREE ENERGY PREDICTED BY IDOCK:   -3.77 KCAL/MOL
REMARK 922        TOTAL FREE ENERGY PREDICTED BY IDOCK:   -6.45 KCAL/MOL
REMARK 923 INTER-LIGAND FREE ENERGY PREDICTED BY IDOCK:   -5.83 KCAL/MOL
REMARK 924 INTRA-LIGAND FREE ENERGY PREDICTED BY IDOCK:   -0.62 KCAL/MOL
REMARK 927      BINDING AFFINITY PREDICTED BY RF-SCORE:    0.00 PKD
ROOT
HETATM    1  C   UNK A   0      -8.360   4.254  66.380  1.00  0.00    -0.105 C  
HETATM    2  N   UNK A   0      -7.880   5.518  66.931  1.00  0.00    -0.100 NA 
ENDROOT
BRANCH   2   3
HETATM    3  C   UNK A   0      -8.806   6.447  67.330  1.00  0.00    -0.108 A  
HETATM    4  C   UNK A   0     -10.500   8.064  67.317  1.00  0.00    -0.384 A  
HETATM    5  C   UNK A   0      -9.899   6.950  66.647  1.00  0.00    -0.217 A  
HETATM    6  S   UNK A   0      -8.722   7.152  68.891  1.00  0.00    -0.127 SA 
HETATM    7  C   UNK A   0      -9.887   8.338  68.522  1.00  0.00    -0.176 A  
BRANCH   7   8
HETATM    8  C   UNK A   0     -10.099   9.470  69.407  1.00  0.00    -0.198 C  
HETATM    9  O   UNK A   0      -9.256   9.878  70.198  1.00  0.00    -0.228 OA 
ATOM     10  N   GLU A   1     -11.360  10.044  69.335  1.00  0.00    -0.395 N  
ATOM     11  H   GLU A   1     -12.049   9.655  68.690  1.00  0.00     0.000 HD 
BRANCH  10  12
ATOM     12  CA  GLU A   1     -11.726  11.195  70.165  1.00  0.00    -0.353 C  
ATOM     13  C   GLU A   1     -12.793  10.778  71.193  1.00  0.00    -0.414 C  
ATOM     14  O   GLU A   1     -13.536   9.711  70.809  1.00  0.00    -0.187 OA 
ATOM     15  OXT GLU A   1     -13.061  11.424  72.198  1.00  0.00    -0.462 OA 
BRANCH  12  16
ATOM     16  CB  GLU A   1     -12.256  12.320  69.269  1.00  0.00    -0.097 C  
BRANCH  16  17
ATOM     17  CG  GLU A   1     -11.553  12.375  67.912  1.00  0.00    -0.415 C  
ATOM     18  CD  GLU A   1     -10.193  13.017  68.004  1.00  0.00    -0.233 C  
ATOM     19  OE2 GLU A   1      -9.884  13.866  68.820  1.00  0.00    -0.203 OA 
ATOM     20  OE1 GLU A   1      -9.343  12.577  67.048  1.00  0.00    -0.197 OA 
ENDBRANCH  16  17
ENDBRANCH  12  16
ENDBRANCH  10  12
ENDBRANCH   7   8
ENDBRANCH   2   3
BRANCH   2  21
HETATM   21  C   UNK A   0      -6.650   6.052  66.315  1.00  0.00    -0.048 C  
BRANCH  21  22
HETATM   22  C   UNK A   0      -6.633   7.565  66.339  1.00  0.00    -0.053 A  
HETATM   23  C   UNK A   0      -6.332   9.659  67.537  1.00  0.00    -0.064 A  
HETATM   24  C   UNK A   0      -6.566  10.387  66.370  1.00  0.00    -0.099 A  
HETATM   25  C   UNK A   0      -6.366   8.261  67.529  1.00  0.00    -0.057 A  
HETATM   26  H   UNK A   0      -5.708  12.335  69.559  1.00  0.00     0.000 HD 
HETATM   27  C   UNK A   0      -6.859   9.703  65.191  1.00  0.00    -0.098 A  
HETATM   28  C   UNK A   0      -6.052  13.902  67.583  1.00  0.00    -0.084 C  
HETATM   29  N   UNK A   0      -6.527  11.780  66.428  1.00  0.00    -0.399 NA 
HETATM   30  N   UNK A   0      -5.952  11.798  68.727  1.00  0.00    -0.047 N  
HETATM   31  C   UNK A   0      -6.884   8.304  65.176  1.00  0.00    -0.069 A  
HETATM   32  C   UNK A   0      -6.041  10.421  68.780  1.00  0.00    -0.040 C  
HETATM   33  O   UNK A   0      -5.889   9.790  69.822  1.00  0.00    -0.039 OA 
HETATM   34  C   UNK A   0      -6.181  12.397  67.601  1.00  0.00    -0.132 C  
ENDBRANCH  21  22
ENDBRANCH   2  21
TORSDOF 7
ENDMDL
MODEL      287
REMARK 921   NORMALIZED FREE ENERGY PREDICTED BY IDOCK:   -3.74 KCAL/MOL
REMARK 922        TOTAL FREE ENERGY PREDICTED BY IDOCK:   -6.40 KCAL/MOL
REMARK 923 INTER-LIGAND FREE ENERGY PREDICTED BY IDOCK:   -5.14 KCAL/MOL
REMARK 924 INTRA-LIGAND FREE ENERGY PREDICTED BY IDOCK:   -1.26 KCAL/MOL
REMARK 927      BINDING AFFINITY PREDICTED BY RF-SCORE:    0.00 PKD
ROOT
HETATM    1  C   UNK A   0      -6.848  10.058  64.579  1.00  0.00    -0.127 C  
HETATM    2  N   UNK A   0      -6.521   9.365  65.821  1.00  0.00    -0.067 NA 
ENDROOT
BRANCH   2   3
HETATM    3  C   UNK A   0      -7.243   8.248  66.152  1.00  0.00    -0.070 A  
HETATM    4  C   UNK A   0      -8.984   6.701  66.395  1.00  0.00    -0.161 A  
HETATM    5  C   UNK A   0      -8.444   7.791  65.641  1.00  0.00    -0.153 A  
HETATM    6  S   UNK A   0      -6.670   7.160  67.349  1.00  0.00    -0.070 SA 
HETATM    7  C   UNK A   0      -8.148   6.316  67.424  1.00  0.00    -0.109 A  
BRANCH   7   8
HETATM    8  C   UNK A   0      -8.408   5.369  68.494  1.00  0.00    -0.097 C  
HETATM    9  O   UNK A   0      -8.605   4.173  68.306  1.00  0.00    -0.092 OA 
ATOM     10  N   GLU A   1      -8.468   5.921  69.765  1.00  0.00    -0.123 N  
ATOM     11  H   GLU A   1      -8.334   6.926  69.880  1.00  0.00     0.000 HD 
BRANCH  10  12
ATOM     12  CA  GLU A   1      -8.721   5.092  70.947  1.00  0.00    -0.122 C  
ATOM     13  C   GLU A   1     -10.182   5.265  71.402  1.00  0.00    -0.213 C  
ATOM     14  O   GLU A   1     -10.734   6.447  71.034  1.00  0.00    -0.232 OA 
ATOM     15  OXT GLU A   1     -10.759   4.488  72.151  1.00  0.00    -0.124 OA 
BRANCH  12  16
ATOM     16  CB  GLU A   1      -7.759   5.500  72.069  1.00  0.00    -0.101 C  
BRANCH  16  17
ATOM     17  CG  GLU A   1      -7.225   6.922  71.900  1.00  0.00    -0.079 C  
ATOM     18  CD  GLU A   1      -7.822   7.875  72.903  1.00  0.00    -0.128 C  
ATOM     19  OE2 GLU A   1      -8.930   7.756  73.394  1.00  0.00    -0.201 OA 
ATOM     20  OE1 GLU A   1      -7.006   8.917  73.183  1.00  0.00    -0.333 OA 
ENDBRANCH  16  17
ENDBRANCH  12  16
ENDBRANCH  10  12
ENDBRANCH   7   8
ENDBRANCH   2   3
BRANCH   2  21
HETATM   21  C   UNK A   0      -6.120  10.234  66.945  1.00  0.00    -0.060 C  
BRANCH  21  22
HETATM   22  C   UNK A   0      -7.279  11.077  67.431  1.00  0.00    -0.103 A  
HETATM   23  C   UNK A   0      -8.370  13.235  67.673  1.00  0.00    -0.181 A  
HETATM   24  C   UNK A   0      -9.461  12.639  68.307  1.00  0.00    -0.203 A  
HETATM   25  C   UNK A   0      -7.286  12.467  67.239  1.00  0.00    -0.114 A  
HETATM   26  H   UNK A   0      -9.593  16.420  67.688  1.00  0.00     0.000 HD 
HETATM   27  C   UNK A   0      -9.449  11.262  68.526  1.00  0.00    -0.191 A  
HETATM   28  C   UNK A   0     -11.716  15.596  68.825  1.00  0.00    -0.382 C  
HETATM   29  N   UNK A   0     -10.518  13.446  68.728  1.00  0.00    -0.360 NA 
HETATM   30  N   UNK A   0      -9.530  15.417  67.858  1.00  0.00    -0.197 N  
HETATM   31  C   UNK A   0      -8.369  10.488  68.085  1.00  0.00    -0.119 A  
HETATM   32  C   UNK A   0      -8.409  14.708  67.473  1.00  0.00    -0.190 C  
HETATM   33  O   UNK A   0      -7.430  15.247  66.966  1.00  0.00    -0.198 OA 
HETATM   34  C   UNK A   0     -10.500  14.785  68.439  1.00  0.00    -0.243 C  
ENDBRANCH  21  22
ENDBRANCH   2  21
TORSDOF 7
ENDMDL
MODEL      288
REMARK 921   NORMALIZED FREE ENERGY PREDICTED BY IDOCK:   -3.73 KCAL/MOL
REMARK 922        TOTAL FREE ENERGY PREDICTED BY IDOCK:   -6.39 KCAL/MOL
REMARK 923 INTER-LIGAND FREE ENERGY PREDICTED BY IDOCK:   -5.08 KCAL/MOL
REMARK 924 INTRA-LIGAND FREE ENERGY PREDICTED BY IDOCK:   -1.31 KCAL/MOL
REMARK 927      BINDING AFFINITY PREDICTED BY RF-SCORE:    0.00 PKD
ROOT
HETATM    1  C   UNK A   0      -6.614   3.458  72.090  1.00  0.00    -0.015 C  
HETATM    2  N   UNK A   0      -7.266   4.510  71.316  1.00  0.00    -0.043 NA 
ENDROOT
BRANCH   2   3
HETATM    3  C   UNK A   0      -7.442   4.315  69.971  1.00  0.00    -0.049 A  
HETATM    4  C   UNK A   0      -7.115   4.300  67.652  1.00  0.00    -0.064 A  
HETATM    5  C   UNK A   0      -6.510   4.334  68.949  1.00  0.00    -0.040 A  
HETATM    6  S   UNK A   0      -8.996   3.968  69.333  1.00  0.00    -0.121 SA 
HETATM    7  C   UNK A   0      -8.490   4.193  67.722  1.00  0.00    -0.098 A  
BRANCH   7   8
HETATM    8  C   UNK A   0      -9.460   4.287  66.646  1.00  0.00    -0.187 C  
HETATM    9  O   UNK A   0     -10.625   4.631  66.813  1.00  0.00    -0.148 OA 
ATOM     10  N   GLU A   1      -8.989   3.908  65.397  1.00  0.00    -0.126 N  
ATOM     11  H   GLU A   1      -8.024   3.593  65.302  1.00  0.00     0.000 HD 
BRANCH  10  12
ATOM     12  CA  GLU A   1      -9.850   3.950  64.211  1.00  0.00    -0.185 C  
ATOM     13  C   GLU A   1     -10.422   2.547  63.933  1.00  0.00    -0.052 C  
ATOM     14  O   GLU A   1      -9.658   1.538  64.420  1.00  0.00    -0.134 OA 
ATOM     15  OXT GLU A   1     -11.390   2.336  63.216  1.00  0.00    -0.328 OA 
BRANCH  12  16
ATOM     16  CB  GLU A   1      -9.036   4.444  63.010  1.00  0.00    -0.130 C  
BRANCH  16  17
ATOM     17  CG  GLU A   1      -7.596   4.800  63.379  1.00  0.00    -0.060 C  
ATOM     18  CD  GLU A   1      -6.629   3.705  63.011  1.00  0.00    -0.030 C  
ATOM     19  OE2 GLU A   1      -6.911   2.521  62.966  1.00  0.00    -0.026 OA 
ATOM     20  OE1 GLU A   1      -5.383   4.170  62.767  1.00  0.00    -0.008 OA 
ENDBRANCH  16  17
ENDBRANCH  12  16
ENDBRANCH  10  12
ENDBRANCH   7   8
ENDBRANCH   2   3
BRANCH   2  21
HETATM   21  C   UNK A   0      -6.954   5.891  71.735  1.00  0.00    -0.073 C  
BRANCH  21  22
HETATM   22  C   UNK A   0      -8.211   6.723  71.873  1.00  0.00    -0.102 A  
HETATM   23  C   UNK A   0      -9.620   8.563  71.141  1.00  0.00    -0.248 A  
HETATM   24  C   UNK A   0     -10.574   8.248  72.109  1.00  0.00    -0.310 A  
HETATM   25  C   UNK A   0      -8.447   7.813  71.020  1.00  0.00    -0.122 A  
HETATM   26  H   UNK A   0     -11.333  11.149  69.720  1.00  0.00     0.000 HD 
HETATM   27  C   UNK A   0     -10.334   7.184  72.978  1.00  0.00    -0.310 A  
HETATM   28  C   UNK A   0     -13.247  10.775  71.356  1.00  0.00    -0.384 C  
HETATM   29  N   UNK A   0     -11.727   9.028  72.196  1.00  0.00    -0.341 NA 
HETATM   30  N   UNK A   0     -11.104  10.386  70.356  1.00  0.00    -0.359 N  
HETATM   31  C   UNK A   0      -9.165   6.425  72.854  1.00  0.00    -0.140 A  
HETATM   32  C   UNK A   0      -9.902   9.715  70.245  1.00  0.00    -0.266 C  
HETATM   33  O   UNK A   0      -9.043  10.033  69.427  1.00  0.00    -0.189 OA 
HETATM   34  C   UNK A   0     -11.935  10.027  71.283  1.00  0.00    -0.394 C  
ENDBRANCH  21  22
ENDBRANCH   2  21
TORSDOF 7
ENDMDL
MODEL      289
REMARK 921   NORMALIZED FREE ENERGY PREDICTED BY IDOCK:   -3.72 KCAL/MOL
REMARK 922        TOTAL FREE ENERGY PREDICTED BY IDOCK:   -6.38 KCAL/MOL
REMARK 923 INTER-LIGAND FREE ENERGY PREDICTED BY IDOCK:   -5.80 KCAL/MOL
REMARK 924 INTRA-LIGAND FREE ENERGY PREDICTED BY IDOCK:   -0.58 KCAL/MOL
REMARK 927      BINDING AFFINITY PREDICTED BY RF-SCORE:    0.00 PKD
ROOT
HETATM    1  C   UNK A   0      -6.462   9.026  65.671  1.00  0.00    -0.067 C  
HETATM    2  N   UNK A   0      -7.458   8.860  64.616  1.00  0.00    -0.101 NA 
ENDROOT
BRANCH   2   3
HETATM    3  C   UNK A   0      -8.350   9.877  64.398  1.00  0.00    -0.168 A  
HETATM    4  C   UNK A   0      -9.498  11.677  63.434  1.00  0.00    -0.233 A  
HETATM    5  C   UNK A   0      -8.680  10.522  63.219  1.00  0.00    -0.195 A  
HETATM    6  S   UNK A   0      -9.275  10.522  65.690  1.00  0.00    -0.199 SA 
HETATM    7  C   UNK A   0      -9.821  11.845  64.765  1.00  0.00    -0.191 A  
BRANCH   7   8
HETATM    8  C   UNK A   0     -10.490  12.967  65.399  1.00  0.00    -0.296 C  
HETATM    9  O   UNK A   0     -11.369  13.626  64.854  1.00  0.00    -0.322 OA 
ATOM     10  N   GLU A   1     -10.028  13.286  66.668  1.00  0.00    -0.265 N  
ATOM     11  H   GLU A   1      -9.270  12.737  67.075  1.00  0.00     0.000 HD 
BRANCH  10  12
ATOM     12  CA  GLU A   1     -10.605  14.393  67.436  1.00  0.00    -0.270 C  
ATOM     13  C   GLU A   1      -9.480  15.215  68.090  1.00  0.00    -0.201 C  
ATOM     14  O   GLU A   1      -8.339  14.513  68.298  1.00  0.00    -0.138 OA 
ATOM     15  OXT GLU A   1      -9.629  16.349  68.525  1.00  0.00    -0.215 OA 
BRANCH  12  16
ATOM     16  CB  GLU A   1     -11.550  13.832  68.505  1.00  0.00    -0.373 C  
BRANCH  16  17
ATOM     17  CG  GLU A   1     -10.846  12.882  69.474  1.00  0.00     0.157 C  
ATOM     18  CD  GLU A   1     -11.209  11.442  69.221  1.00  0.00    -0.277 C  
ATOM     19  OE2 GLU A   1     -12.271  11.069  68.757  1.00  0.00    -0.546 OA 
ATOM     20  OE1 GLU A   1     -10.235  10.584  69.602  1.00  0.00    -0.226 OA 
ENDBRANCH  16  17
ENDBRANCH  12  16
ENDBRANCH  10  12
ENDBRANCH   7   8
ENDBRANCH   2   3
BRANCH   2  21
HETATM   21  C   UNK A   0      -7.984   7.490  64.451  1.00  0.00    -0.117 C  
BRANCH  21  22
HETATM   22  C   UNK A   0      -7.993   6.741  65.766  1.00  0.00    -0.112 A  
HETATM   23  C   UNK A   0      -9.184   5.875  67.700  1.00  0.00    -0.104 A  
HETATM   24  C   UNK A   0      -8.010   5.309  68.198  1.00  0.00    -0.091 A  
HETATM   25  C   UNK A   0      -9.181   6.587  66.497  1.00  0.00    -0.179 A  
HETATM   26  H   UNK A   0     -11.251   4.743  70.166  1.00  0.00     0.000 HD 
HETATM   27  C   UNK A   0      -6.820   5.480  67.492  1.00  0.00    -0.060 A  
HETATM   28  C   UNK A   0      -9.280   3.578  71.278  1.00  0.00    -0.195 C  
HETATM   29  N   UNK A   0      -8.059   4.612  69.405  1.00  0.00    -0.069 NA 
HETATM   30  N   UNK A   0     -10.398   4.920  69.637  1.00  0.00    -0.202 N  
HETATM   31  C   UNK A   0      -6.815   6.185  66.282  1.00  0.00    -0.061 A  
HETATM   32  C   UNK A   0     -10.429   5.687  68.489  1.00  0.00    -0.203 C  
HETATM   33  O   UNK A   0     -11.455   6.229  68.086  1.00  0.00    -0.150 OA 
HETATM   34  C   UNK A   0      -9.265   4.428  70.029  1.00  0.00    -0.131 C  
ENDBRANCH  21  22
ENDBRANCH   2  21
TORSDOF 7
ENDMDL
MODEL      290
REMARK 921   NORMALIZED FREE ENERGY PREDICTED BY IDOCK:   -3.71 KCAL/MOL
REMARK 922        TOTAL FREE ENERGY PREDICTED BY IDOCK:   -6.37 KCAL/MOL
REMARK 923 INTER-LIGAND FREE ENERGY PREDICTED BY IDOCK:   -7.66 KCAL/MOL
REMARK 924 INTRA-LIGAND FREE ENERGY PREDICTED BY IDOCK:    1.30 KCAL/MOL
REMARK 927      BINDING AFFINITY PREDICTED BY RF-SCORE:    0.00 PKD
ROOT
HETATM    1  C   UNK A   0      -7.890   5.999  66.364  1.00  0.00    -0.104 C  
HETATM    2  N   UNK A   0      -8.529   7.084  67.102  1.00  0.00    -0.120 NA 
ENDROOT
BRANCH   2   3
HETATM    3  C   UNK A   0      -8.775   8.262  66.445  1.00  0.00    -0.142 A  
HETATM    4  C   UNK A   0      -8.495  10.325  65.374  1.00  0.00    -0.166 A  
HETATM    5  C   UNK A   0      -7.908   9.069  65.731  1.00  0.00    -0.098 A  
HETATM    6  S   UNK A   0     -10.354   8.931  66.410  1.00  0.00     0.041 SA 
HETATM    7  C   UNK A   0      -9.813  10.415  65.772  1.00  0.00    -0.239 A  
BRANCH   7   8
HETATM    8  C   UNK A   0     -10.691  11.571  65.737  1.00  0.00    -0.271 C  
HETATM    9  O   UNK A   0     -11.885  11.523  66.013  1.00  0.00    -0.282 OA 
ATOM     10  N   GLU A   1     -10.094  12.750  65.314  1.00  0.00    -0.384 N  
ATOM     11  H   GLU A   1      -9.106  12.744  65.058  1.00  0.00     0.000 HD 
BRANCH  10  12
ATOM     12  CA  GLU A   1     -10.850  14.002  65.227  1.00  0.00    -0.347 C  
ATOM     13  C   GLU A   1     -11.882  13.909  64.088  1.00  0.00    -0.385 C  
ATOM     14  O   GLU A   1     -11.547  13.025  63.116  1.00  0.00    -0.370 OA 
ATOM     15  OXT GLU A   1     -12.843  14.659  63.976  1.00  0.00    -0.690 OA 
BRANCH  12  16
ATOM     16  CB  GLU A   1      -9.882  15.165  64.979  1.00  0.00    -0.055 C  
BRANCH  16  17
ATOM     17  CG  GLU A   1      -9.474  15.877  66.268  1.00  0.00    -0.350 C  
ATOM     18  CD  GLU A   1     -10.365  15.509  67.426  1.00  0.00    -0.266 C  
ATOM     19  OE2 GLU A   1     -11.534  15.183  67.321  1.00  0.00    -0.345 OA 
ATOM     20  OE1 GLU A   1      -9.739  15.613  68.620  1.00  0.00    -0.193 OA 
ENDBRANCH  16  17
ENDBRANCH  12  16
ENDBRANCH  10  12
ENDBRANCH   7   8
ENDBRANCH   2   3
BRANCH   2  21
HETATM   21  C   UNK A   0      -8.138   7.203  68.521  1.00  0.00    -0.125 C  
BRANCH  21  22
HETATM   22  C   UNK A   0      -9.186   7.944  69.322  1.00  0.00    -0.148 A  
HETATM   23  C   UNK A   0     -10.378   9.992  69.863  1.00  0.00    -0.315 A  
HETATM   24  C   UNK A   0     -11.168   9.315  70.792  1.00  0.00    -0.288 A  
HETATM   25  C   UNK A   0      -9.394   9.320  69.133  1.00  0.00    -0.157 A  
HETATM   26  H   UNK A   0     -11.869  13.040  70.221  1.00  0.00     0.000 HD 
HETATM   27  C   UNK A   0     -10.949   7.954  71.005  1.00  0.00    -0.262 A  
HETATM   28  C   UNK A   0     -13.470  12.051  71.935  1.00  0.00    -0.305 C  
HETATM   29  N   UNK A   0     -12.134  10.028  71.502  1.00  0.00    -0.395 NA 
HETATM   30  N   UNK A   0     -11.655  12.054  70.370  1.00  0.00    -0.496 N  
HETATM   31  C   UNK A   0      -9.971   7.275  70.270  1.00  0.00    -0.188 A  
HETATM   32  C   UNK A   0     -10.627  11.446  69.676  1.00  0.00     0.120 C  
HETATM   33  O   UNK A   0      -9.900  12.061  68.902  1.00  0.00    -0.095 OA 
HETATM   34  C   UNK A   0     -12.342  11.351  71.213  1.00  0.00    -0.239 C  
ENDBRANCH  21  22
ENDBRANCH   2  21
TORSDOF 7
ENDMDL
MODEL      291
REMARK 921   NORMALIZED FREE ENERGY PREDICTED BY IDOCK:   -3.71 KCAL/MOL
REMARK 922        TOTAL FREE ENERGY PREDICTED BY IDOCK:   -6.36 KCAL/MOL
REMARK 923 INTER-LIGAND FREE ENERGY PREDICTED BY IDOCK:   -6.03 KCAL/MOL
REMARK 924 INTRA-LIGAND FREE ENERGY PREDICTED BY IDOCK:   -0.34 KCAL/MOL
REMARK 927      BINDING AFFINITY PREDICTED BY RF-SCORE:    0.00 PKD
ROOT
HETATM    1  C   UNK A   0     -13.887   7.852  71.614  1.00  0.00    -0.379 C  
HETATM    2  N   UNK A   0     -12.534   8.368  71.431  1.00  0.00    -0.338 NA 
ENDROOT
BRANCH   2   3
HETATM    3  C   UNK A   0     -11.478   7.534  71.693  1.00  0.00    -0.261 A  
HETATM    4  C   UNK A   0      -9.544   6.600  72.627  1.00  0.00    -0.156 A  
HETATM    5  C   UNK A   0     -10.678   7.453  72.818  1.00  0.00    -0.362 A  
HETATM    6  S   UNK A   0     -10.988   6.356  70.547  1.00  0.00    -0.332 SA 
HETATM    7  C   UNK A   0      -9.545   6.006  71.381  1.00  0.00    -0.160 A  
BRANCH   7   8
HETATM    8  C   UNK A   0      -8.501   5.212  70.758  1.00  0.00    -0.117 C  
HETATM    9  O   UNK A   0      -7.631   5.685  70.036  1.00  0.00    -0.078 OA 
ATOM     10  N   GLU A   1      -8.581   3.847  70.995  1.00  0.00    -0.075 N  
ATOM     11  H   GLU A   1      -9.340   3.484  71.572  1.00  0.00     0.000 HD 
BRANCH  10  12
ATOM     12  CA  GLU A   1      -7.599   2.915  70.435  1.00  0.00    -0.043 C  
ATOM     13  C   GLU A   1      -8.144   2.305  69.130  1.00  0.00    -0.044 C  
ATOM     14  O   GLU A   1      -9.497   2.292  69.056  1.00  0.00    -0.144 OA 
ATOM     15  OXT GLU A   1      -7.445   1.746  68.295  1.00  0.00    -0.046 OA 
BRANCH  12  16
ATOM     16  CB  GLU A   1      -7.302   1.812  71.459  1.00  0.00    -0.032 C  
BRANCH  16  17
ATOM     17  CG  GLU A   1      -7.878   2.121  72.841  1.00  0.00    -0.049 C  
ATOM     18  CD  GLU A   1      -7.274   3.364  73.442  1.00  0.00    -0.054 C  
ATOM     19  OE2 GLU A   1      -6.148   3.766  73.210  1.00  0.00    -0.010 OA 
ATOM     20  OE1 GLU A   1      -8.107   3.982  74.309  1.00  0.00    -0.089 OA 
ENDBRANCH  16  17
ENDBRANCH  12  16
ENDBRANCH  10  12
ENDBRANCH   7   8
ENDBRANCH   2   3
BRANCH   2  21
HETATM   21  C   UNK A   0     -12.342   9.787  71.789  1.00  0.00    -0.386 C  
BRANCH  21  22
HETATM   22  C   UNK A   0     -11.589  10.532  70.708  1.00  0.00    -0.432 A  
HETATM   23  C   UNK A   0     -11.339  12.459  69.247  1.00  0.00    -0.315 A  
HETATM   24  C   UNK A   0     -10.159  11.935  68.720  1.00  0.00    -0.120 A  
HETATM   25  C   UNK A   0     -12.053  11.768  70.231  1.00  0.00    -0.426 A  
HETATM   26  H   UNK A   0     -11.307  15.375  67.477  1.00  0.00     0.000 HD 
HETATM   27  C   UNK A   0      -9.706  10.695  69.169  1.00  0.00    -0.205 A  
HETATM   28  C   UNK A   0      -9.119  14.679  66.378  1.00  0.00    -0.242 C  
HETATM   29  N   UNK A   0      -9.483  12.657  67.736  1.00  0.00    -0.191 NA 
HETATM   30  N   UNK A   0     -11.029  14.452  67.809  1.00  0.00    -0.268 N  
HETATM   31  C   UNK A   0     -10.412  10.004  70.160  1.00  0.00    -0.338 A  
HETATM   32  C   UNK A   0     -11.801  13.774  68.731  1.00  0.00    -0.363 C  
HETATM   33  O   UNK A   0     -12.867  14.216  69.150  1.00  0.00     0.270 OA 
HETATM   34  C   UNK A   0      -9.944  13.894  67.371  1.00  0.00    -0.240 C  
ENDBRANCH  21  22
ENDBRANCH   2  21
TORSDOF 7
ENDMDL
MODEL      292
REMARK 921   NORMALIZED FREE ENERGY PREDICTED BY IDOCK:   -3.67 KCAL/MOL
REMARK 922        TOTAL FREE ENERGY PREDICTED BY IDOCK:   -6.30 KCAL/MOL
REMARK 923 INTER-LIGAND FREE ENERGY PREDICTED BY IDOCK:   -6.12 KCAL/MOL
REMARK 924 INTRA-LIGAND FREE ENERGY PREDICTED BY IDOCK:   -0.18 KCAL/MOL
REMARK 927      BINDING AFFINITY PREDICTED BY RF-SCORE:    0.00 PKD
ROOT
HETATM    1  C   UNK A   0      -7.996   6.797  69.943  1.00  0.00    -0.120 C  
HETATM    2  N   UNK A   0      -7.362   7.963  69.335  1.00  0.00    -0.079 NA 
ENDROOT
BRANCH   2   3
HETATM    3  C   UNK A   0      -8.102   9.109  69.200  1.00  0.00    -0.105 A  
HETATM    4  C   UNK A   0      -9.888  10.600  68.935  1.00  0.00    -0.210 A  
HETATM    5  C   UNK A   0      -9.458   9.309  69.380  1.00  0.00    -0.169 A  
HETATM    6  S   UNK A   0      -7.350  10.589  68.767  1.00  0.00    -0.100 SA 
HETATM    7  C   UNK A   0      -8.836  11.372  68.485  1.00  0.00    -0.151 A  
BRANCH   7   8
HETATM    8  C   UNK A   0      -8.881  12.660  67.816  1.00  0.00    -0.179 C  
HETATM    9  O   UNK A   0      -9.290  12.813  66.670  1.00  0.00    -0.238 OA 
ATOM     10  N   GLU A   1      -8.375  13.721  68.552  1.00  0.00    -0.232 N  
ATOM     11  H   GLU A   1      -8.011  13.550  69.489  1.00  0.00     0.000 HD 
BRANCH  10  12
ATOM     12  CA  GLU A   1      -8.354  15.084  68.013  1.00  0.00    -0.148 C  
ATOM     13  C   GLU A   1      -7.145  15.850  68.580  1.00  0.00    -0.124 C  
ATOM     14  O   GLU A   1      -6.710  15.380  69.775  1.00  0.00    -0.171 OA 
ATOM     15  OXT GLU A   1      -6.698  16.878  68.089  1.00  0.00    -0.140 OA 
BRANCH  12  16
ATOM     16  CB  GLU A   1      -9.660  15.797  68.381  1.00  0.00    -0.200 C  
BRANCH  16  17
ATOM     17  CG  GLU A   1     -10.646  15.862  67.215  1.00  0.00    -0.314 C  
ATOM     18  CD  GLU A   1     -10.375  17.034  66.307  1.00  0.00    -0.306 C  
ATOM     19  OE2 GLU A   1      -9.875  18.084  66.666  1.00  0.00    -0.317 OA 
ATOM     20  OE1 GLU A   1     -10.782  16.814  65.036  1.00  0.00    -0.692 OA 
ENDBRANCH  16  17
ENDBRANCH  12  16
ENDBRANCH  10  12
ENDBRANCH   7   8
ENDBRANCH   2   3
BRANCH   2  21
HETATM   21  C   UNK A   0      -6.414   7.671  68.243  1.00  0.00    -0.049 C  
BRANCH  21  22
HETATM   22  C   UNK A   0      -7.095   6.949  67.100  1.00  0.00    -0.080 A  
HETATM   23  C   UNK A   0      -8.640   5.260  66.285  1.00  0.00    -0.116 A  
HETATM   24  C   UNK A   0      -8.389   5.633  64.965  1.00  0.00    -0.146 A  
HETATM   25  C   UNK A   0      -8.001   5.906  67.347  1.00  0.00    -0.102 A  
HETATM   26  H   UNK A   0     -10.974   2.870  65.587  1.00  0.00     0.000 HD 
HETATM   27  C   UNK A   0      -7.470   6.650  64.710  1.00  0.00    -0.095 A  
HETATM   28  C   UNK A   0     -10.738   3.371  63.103  1.00  0.00    -0.219 C  
HETATM   29  N   UNK A   0      -9.046   4.956  63.938  1.00  0.00    -0.332 NA 
HETATM   30  N   UNK A   0     -10.271   3.595  65.443  1.00  0.00    -0.415 N  
HETATM   31  C   UNK A   0      -6.834   7.306  65.770  1.00  0.00    -0.056 A  
HETATM   32  C   UNK A   0      -9.612   4.159  66.518  1.00  0.00    -0.204 C  
HETATM   33  O   UNK A   0      -9.797   3.788  67.673  1.00  0.00    -0.134 OA 
HETATM   34  C   UNK A   0      -9.979   4.002  64.248  1.00  0.00    -0.173 C  
ENDBRANCH  21  22
ENDBRANCH   2  21
TORSDOF 7
ENDMDL
MODEL      293
REMARK 921   NORMALIZED FREE ENERGY PREDICTED BY IDOCK:   -3.66 KCAL/MOL
REMARK 922        TOTAL FREE ENERGY PREDICTED BY IDOCK:   -6.29 KCAL/MOL
REMARK 923 INTER-LIGAND FREE ENERGY PREDICTED BY IDOCK:   -6.19 KCAL/MOL
REMARK 924 INTRA-LIGAND FREE ENERGY PREDICTED BY IDOCK:   -0.10 KCAL/MOL
REMARK 927      BINDING AFFINITY PREDICTED BY RF-SCORE:    0.00 PKD
ROOT
HETATM    1  C   UNK A   0      -5.912  12.684  70.441  1.00  0.00    -0.103 C  
HETATM    2  N   UNK A   0      -6.675  13.653  69.660  1.00  0.00    -0.302 NA 
ENDROOT
BRANCH   2   3
HETATM    3  C   UNK A   0      -7.433  13.193  68.614  1.00  0.00    -0.092 A  
HETATM    4  C   UNK A   0      -9.246  12.645  67.238  1.00  0.00    -0.195 A  
HETATM    5  C   UNK A   0      -8.740  13.491  68.276  1.00  0.00    -0.172 A  
HETATM    6  S   UNK A   0      -6.773  12.097  67.472  1.00  0.00    -0.144 SA 
HETATM    7  C   UNK A   0      -8.290  11.767  66.770  1.00  0.00    -0.165 A  
BRANCH   7   8
HETATM    8  C   UNK A   0      -8.455  10.658  65.847  1.00  0.00    -0.167 C  
HETATM    9  O   UNK A   0      -9.029  10.756  64.768  1.00  0.00    -0.192 OA 
ATOM     10  N   GLU A   1      -7.953   9.444  66.292  1.00  0.00    -0.110 N  
ATOM     11  H   GLU A   1      -7.513   9.392  67.210  1.00  0.00     0.000 HD 
BRANCH  10  12
ATOM     12  CA  GLU A   1      -8.043   8.233  65.471  1.00  0.00    -0.128 C  
ATOM     13  C   GLU A   1      -8.445   7.035  66.351  1.00  0.00    -0.130 C  
ATOM     14  O   GLU A   1      -8.110   7.179  67.657  1.00  0.00    -0.112 OA 
ATOM     15  OXT GLU A   1      -8.889   5.983  65.911  1.00  0.00    -0.152 OA 
BRANCH  12  16
ATOM     16  CB  GLU A   1      -6.690   7.973  64.798  1.00  0.00    -0.059 C  
BRANCH  16  17
ATOM     17  CG  GLU A   1      -5.742   9.168  64.900  1.00  0.00    -0.062 C  
ATOM     18  CD  GLU A   1      -5.459   9.783  63.554  1.00  0.00    -0.084 C  
ATOM     19  OE2 GLU A   1      -5.467   9.173  62.500  1.00  0.00    -0.084 OA 
ATOM     20  OE1 GLU A   1      -5.153  11.098  63.635  1.00  0.00    -0.209 OA 
ENDBRANCH  16  17
ENDBRANCH  12  16
ENDBRANCH  10  12
ENDBRANCH   7   8
ENDBRANCH   2   3
BRANCH   2  21
HETATM   21  C   UNK A   0      -6.022  14.962  69.461  1.00  0.00    -0.107 C  
BRANCH  21  22
HETATM   22  C   UNK A   0      -6.814  15.834  68.512  1.00  0.00    -0.119 A  
HETATM   23  C   UNK A   0      -8.751  17.222  68.030  1.00  0.00    -0.231 A  
HETATM   24  C   UNK A   0      -8.268  17.492  66.749  1.00  0.00    -0.244 A  
HETATM   25  C   UNK A   0      -8.037  16.400  68.907  1.00  0.00    -0.236 A  
HETATM   26  H   UNK A   0     -11.543  19.171  67.823  1.00  0.00     0.000 HD 
HETATM   27  C   UNK A   0      -7.069  16.912  66.340  1.00  0.00    -0.241 A  
HETATM   28  C   UNK A   0     -10.882  19.861  65.464  1.00  0.00    -0.232 C  
HETATM   29  N   UNK A   0      -9.018  18.313  65.907  1.00  0.00    -0.460 NA 
HETATM   30  N   UNK A   0     -10.680  18.701  67.551  1.00  0.00    -0.431 N  
HETATM   31  C   UNK A   0      -6.345  16.096  67.218  1.00  0.00    -0.204 A  
HETATM   32  C   UNK A   0     -10.042  17.842  68.425  1.00  0.00    -0.383 C  
HETATM   33  O   UNK A   0     -10.501  17.566  69.530  1.00  0.00    -0.217 OA 
HETATM   34  C   UNK A   0     -10.162  18.899  66.380  1.00  0.00    -0.426 C  
ENDBRANCH  21  22
ENDBRANCH   2  21
TORSDOF 7
ENDMDL
MODEL      294
REMARK 921   NORMALIZED FREE ENERGY PREDICTED BY IDOCK:   -3.65 KCAL/MOL
REMARK 922        TOTAL FREE ENERGY PREDICTED BY IDOCK:   -6.27 KCAL/MOL
REMARK 923 INTER-LIGAND FREE ENERGY PREDICTED BY IDOCK:   -6.61 KCAL/MOL
REMARK 924 INTRA-LIGAND FREE ENERGY PREDICTED BY IDOCK:    0.34 KCAL/MOL
REMARK 927      BINDING AFFINITY PREDICTED BY RF-SCORE:    0.00 PKD
ROOT
HETATM    1  C   UNK A   0     -14.053   7.924  71.251  1.00  0.00    -0.244 C  
HETATM    2  N   UNK A   0     -13.032   8.967  71.223  1.00  0.00    -0.476 NA 
ENDROOT
BRANCH   2   3
HETATM    3  C   UNK A   0     -11.770   8.632  70.805  1.00  0.00    -0.210 A  
HETATM    4  C   UNK A   0      -9.885   8.247  69.470  1.00  0.00    -0.181 A  
HETATM    5  C   UNK A   0     -11.112   8.966  69.636  1.00  0.00    -0.056 A  
HETATM    6  S   UNK A   0     -10.745   7.678  71.796  1.00  0.00    -0.221 SA 
HETATM    7  C   UNK A   0      -9.612   7.430  70.549  1.00  0.00    -0.172 A  
BRANCH   7   8
HETATM    8  C   UNK A   0      -8.561   6.437  70.687  1.00  0.00    -0.139 C  
HETATM    9  O   UNK A   0      -8.007   5.900  69.734  1.00  0.00    -0.097 OA 
ATOM     10  N   GLU A   1      -8.250   6.091  71.994  1.00  0.00    -0.108 N  
ATOM     11  H   GLU A   1      -8.757   6.532  72.762  1.00  0.00     0.000 HD 
BRANCH  10  12
ATOM     12  CA  GLU A   1      -7.210   5.104  72.297  1.00  0.00    -0.090 C  
ATOM     13  C   GLU A   1      -7.811   3.687  72.266  1.00  0.00    -0.068 C  
ATOM     14  O   GLU A   1      -9.144   3.652  72.517  1.00  0.00    -0.101 OA 
ATOM     15  OXT GLU A   1      -7.145   2.664  72.176  1.00  0.00    -0.032 OA 
BRANCH  12  16
ATOM     16  CB  GLU A   1      -6.611   5.402  73.676  1.00  0.00    -0.073 C  
BRANCH  16  17
ATOM     17  CG  GLU A   1      -7.442   6.406  74.475  1.00  0.00    -0.099 C  
ATOM     18  CD  GLU A   1      -7.446   7.772  73.840  1.00  0.00    -0.138 C  
ATOM     19  OE2 GLU A   1      -6.539   8.221  73.163  1.00  0.00    -0.096 OA 
ATOM     20  OE1 GLU A   1      -8.561   8.479  74.130  1.00  0.00    -0.186 OA 
ENDBRANCH  16  17
ENDBRANCH  12  16
ENDBRANCH  10  12
ENDBRANCH   7   8
ENDBRANCH   2   3
BRANCH   2  21
HETATM   21  C   UNK A   0     -13.111   9.960  72.313  1.00  0.00    -0.327 C  
BRANCH  21  22
HETATM   22  C   UNK A   0     -12.930  11.369  71.789  1.00  0.00    -0.519 A  
HETATM   23  C   UNK A   0     -12.097  12.908  70.103  1.00  0.00    -0.373 A  
HETATM   24  C   UNK A   0     -12.627  13.995  70.800  1.00  0.00    -0.360 A  
HETATM   25  C   UNK A   0     -12.242  11.606  70.589  1.00  0.00    -0.461 A  
HETATM   26  H   UNK A   0     -10.877  14.687  67.460  1.00  0.00     0.000 HD 
HETATM   27  C   UNK A   0     -13.288  13.770  72.007  1.00  0.00    -0.536 A  
HETATM   28  C   UNK A   0     -11.773  16.833  68.496  1.00  0.00     0.406 C  
HETATM   29  N   UNK A   0     -12.454  15.277  70.280  1.00  0.00    -0.466 NA 
HETATM   30  N   UNK A   0     -11.323  14.483  68.354  1.00  0.00    -0.275 N  
HETATM   31  C   UNK A   0     -13.444  12.466  72.492  1.00  0.00    -0.079 A  
HETATM   32  C   UNK A   0     -11.383  13.188  68.830  1.00  0.00    -0.291 C  
HETATM   33  O   UNK A   0     -10.866  12.244  68.239  1.00  0.00    -0.206 OA 
HETATM   34  C   UNK A   0     -11.843  15.434  69.063  1.00  0.00    -0.335 C  
ENDBRANCH  21  22
ENDBRANCH   2  21
TORSDOF 7
ENDMDL
MODEL      295
REMARK 921   NORMALIZED FREE ENERGY PREDICTED BY IDOCK:   -3.65 KCAL/MOL
REMARK 922        TOTAL FREE ENERGY PREDICTED BY IDOCK:   -6.27 KCAL/MOL
REMARK 923 INTER-LIGAND FREE ENERGY PREDICTED BY IDOCK:   -5.79 KCAL/MOL
REMARK 924 INTRA-LIGAND FREE ENERGY PREDICTED BY IDOCK:   -0.48 KCAL/MOL
REMARK 927      BINDING AFFINITY PREDICTED BY RF-SCORE:    0.00 PKD
ROOT
HETATM    1  C   UNK A   0      -6.257  13.624  70.650  1.00  0.00     0.005 C  
HETATM    2  N   UNK A   0      -6.719  12.977  69.426  1.00  0.00    -0.267 NA 
ENDROOT
BRANCH   2   3
HETATM    3  C   UNK A   0      -6.192  11.755  69.097  1.00  0.00    -0.083 A  
HETATM    4  C   UNK A   0      -5.136  10.012  67.943  1.00  0.00    -0.032 A  
HETATM    5  C   UNK A   0      -5.274  11.426  68.117  1.00  0.00    -0.043 A  
HETATM    6  S   UNK A   0      -6.641  10.346  69.967  1.00  0.00    -0.149 SA 
HETATM    7  C   UNK A   0      -5.908   9.301  68.840  1.00  0.00    -0.040 A  
BRANCH   7   8
HETATM    8  C   UNK A   0      -6.161   7.871  68.880  1.00  0.00    -0.039 C  
HETATM    9  O   UNK A   0      -5.989   7.181  69.879  1.00  0.00    -0.023 OA 
ATOM     10  N   GLU A   1      -6.572   7.314  67.678  1.00  0.00    -0.055 N  
ATOM     11  H   GLU A   1      -6.670   7.913  66.858  1.00  0.00     0.000 HD 
BRANCH  10  12
ATOM     12  CA  GLU A   1      -6.868   5.883  67.560  1.00  0.00    -0.060 C  
ATOM     13  C   GLU A   1      -5.833   5.212  66.638  1.00  0.00    -0.022 C  
ATOM     14  O   GLU A   1      -5.262   6.059  65.747  1.00  0.00    -0.012 OA 
ATOM     15  OXT GLU A   1      -5.639   4.004  66.597  1.00  0.00    -0.016 OA 
BRANCH  12  16
ATOM     16  CB  GLU A   1      -8.283   5.701  66.998  1.00  0.00    -0.101 C  
BRANCH  16  17
ATOM     17  CG  GLU A   1      -8.947   7.028  66.633  1.00  0.00    -0.157 C  
ATOM     18  CD  GLU A   1     -10.356   7.121  67.159  1.00  0.00    -0.289 C  
ATOM     19  OE2 GLU A   1     -11.091   6.166  67.337  1.00  0.00    -0.331 OA 
ATOM     20  OE1 GLU A   1     -10.746   8.396  67.384  1.00  0.00    -0.269 OA 
ENDBRANCH  16  17
ENDBRANCH  12  16
ENDBRANCH  10  12
ENDBRANCH   7   8
ENDBRANCH   2   3
BRANCH   2  21
HETATM   21  C   UNK A   0      -7.003  13.885  68.297  1.00  0.00    -0.108 C  
BRANCH  21  22
HETATM   22  C   UNK A   0      -8.159  13.381  67.461  1.00  0.00    -0.183 A  
HETATM   23  C   UNK A   0      -9.925  13.774  65.838  1.00  0.00    -0.308 A  
HETATM   24  C   UNK A   0     -10.290  12.428  65.875  1.00  0.00    -0.257 A  
HETATM   25  C   UNK A   0      -8.871  14.252  66.622  1.00  0.00    -0.167 A  
HETATM   26  H   UNK A   0     -12.182  14.734  63.467  1.00  0.00     0.000 HD 
HETATM   27  C   UNK A   0      -9.605  11.562  66.726  1.00  0.00    -0.203 A  
HETATM   28  C   UNK A   0     -13.028  12.339  63.307  1.00  0.00    -0.097 C  
HETATM   29  N   UNK A   0     -11.351  11.997  65.079  1.00  0.00    -0.324 NA 
HETATM   30  N   UNK A   0     -11.678  14.142  64.126  1.00  0.00    -0.624 N  
HETATM   31  C   UNK A   0      -8.543  12.035  67.506  1.00  0.00    -0.167 A  
HETATM   32  C   UNK A   0     -10.690  14.671  64.933  1.00  0.00    -0.427 C  
HETATM   33  O   UNK A   0     -10.411  15.867  64.935  1.00  0.00    -0.542 OA 
HETATM   34  C   UNK A   0     -11.953  12.880  64.222  1.00  0.00    -0.399 C  
ENDBRANCH  21  22
ENDBRANCH   2  21
TORSDOF 7
ENDMDL
MODEL      296
REMARK 921   NORMALIZED FREE ENERGY PREDICTED BY IDOCK:   -3.64 KCAL/MOL
REMARK 922        TOTAL FREE ENERGY PREDICTED BY IDOCK:   -6.26 KCAL/MOL
REMARK 923 INTER-LIGAND FREE ENERGY PREDICTED BY IDOCK:   -6.82 KCAL/MOL
REMARK 924 INTRA-LIGAND FREE ENERGY PREDICTED BY IDOCK:    0.56 KCAL/MOL
REMARK 927      BINDING AFFINITY PREDICTED BY RF-SCORE:    0.00 PKD
ROOT
HETATM    1  C   UNK A   0     -10.042  10.620  67.624  1.00  0.00    -0.177 C  
HETATM    2  N   UNK A   0     -10.008  11.987  67.114  1.00  0.00    -0.195 NA 
ENDROOT
BRANCH   2   3
HETATM    3  C   UNK A   0      -9.008  12.819  67.547  1.00  0.00    -0.192 A  
HETATM    4  C   UNK A   0      -7.549  14.038  68.914  1.00  0.00    -0.080 A  
HETATM    5  C   UNK A   0      -8.403  12.896  68.788  1.00  0.00     0.140 A  
HETATM    6  S   UNK A   0      -8.303  13.965  66.485  1.00  0.00     0.665 SA 
HETATM    7  C   UNK A   0      -7.479  14.766  67.743  1.00  0.00    -0.163 A  
BRANCH   7   8
HETATM    8  C   UNK A   0      -6.855  16.058  67.517  1.00  0.00    -0.176 C  
HETATM    9  O   UNK A   0      -5.686  16.193  67.170  1.00  0.00    -0.297 OA 
ATOM     10  N   GLU A   1      -7.666  17.154  67.771  1.00  0.00    -0.175 N  
ATOM     11  H   GLU A   1      -8.623  17.003  68.092  1.00  0.00     0.000 HD 
BRANCH  10  12
ATOM     12  CA  GLU A   1      -7.179  18.524  67.587  1.00  0.00    -0.215 C  
ATOM     13  C   GLU A   1      -7.158  18.872  66.087  1.00  0.00    -0.256 C  
ATOM     14  O   GLU A   1      -7.044  17.792  65.276  1.00  0.00    -0.244 OA 
ATOM     15  OXT GLU A   1      -7.096  20.015  65.654  1.00  0.00    -0.297 OA 
BRANCH  12  16
ATOM     16  CB  GLU A   1      -5.774  18.649  68.186  1.00  0.00    -0.191 C  
BRANCH  16  17
ATOM     17  CG  GLU A   1      -5.758  18.436  69.700  1.00  0.00    -0.242 C  
ATOM     18  CD  GLU A   1      -5.667  19.738  70.455  1.00  0.00    -0.270 C  
ATOM     19  OE2 GLU A   1      -5.128  20.744  70.033  1.00  0.00    -0.285 OA 
ATOM     20  OE1 GLU A   1      -6.223  19.666  71.686  1.00  0.00    -0.023 OA 
ENDBRANCH  16  17
ENDBRANCH  12  16
ENDBRANCH  10  12
ENDBRANCH   7   8
ENDBRANCH   2   3
BRANCH   2  21
HETATM   21  C   UNK A   0     -11.326  12.616  66.898  1.00  0.00    -0.320 C  
BRANCH  21  22
HETATM   22  C   UNK A   0     -11.726  13.477  68.077  1.00  0.00    -0.394 A  
HETATM   23  C   UNK A   0     -12.389  13.702  70.404  1.00  0.00    -0.415 A  
HETATM   24  C   UNK A   0     -12.434  15.091  70.281  1.00  0.00    -0.337 A  
HETATM   25  C   UNK A   0     -12.041  12.897  69.315  1.00  0.00    -0.234 A  
HETATM   26  H   UNK A   0     -13.172  13.570  73.722  1.00  0.00     0.000 HD 
HETATM   27  C   UNK A   0     -12.150  15.673  69.047  1.00  0.00    -0.227 A  
HETATM   28  C   UNK A   0     -13.292  16.111  73.791  1.00  0.00    -0.180 C  
HETATM   29  N   UNK A   0     -12.792  15.853  71.393  1.00  0.00    -0.528 NA 
HETATM   30  N   UNK A   0     -12.990  13.953  72.795  1.00  0.00    -0.383 N  
HETATM   31  C   UNK A   0     -11.791  14.871  67.956  1.00  0.00    -0.296 A  
HETATM   32  C   UNK A   0     -12.717  13.116  71.730  1.00  0.00    -0.168 C  
HETATM   33  O   UNK A   0     -12.733  11.893  71.833  1.00  0.00    -0.254 OA 
HETATM   34  C   UNK A   0     -13.009  15.232  72.594  1.00  0.00    -0.408 C  
ENDBRANCH  21  22
ENDBRANCH   2  21
TORSDOF 7
ENDMDL
MODEL      297
REMARK 921   NORMALIZED FREE ENERGY PREDICTED BY IDOCK:   -3.63 KCAL/MOL
REMARK 922        TOTAL FREE ENERGY PREDICTED BY IDOCK:   -6.25 KCAL/MOL
REMARK 923 INTER-LIGAND FREE ENERGY PREDICTED BY IDOCK:   -5.24 KCAL/MOL
REMARK 924 INTRA-LIGAND FREE ENERGY PREDICTED BY IDOCK:   -1.02 KCAL/MOL
REMARK 927      BINDING AFFINITY PREDICTED BY RF-SCORE:    0.00 PKD
ROOT
HETATM    1  C   UNK A   0      -7.515   9.633  63.355  1.00  0.00    -0.118 C  
HETATM    2  N   UNK A   0      -7.800   8.991  64.635  1.00  0.00    -0.115 NA 
ENDROOT
BRANCH   2   3
HETATM    3  C   UNK A   0      -8.603   9.651  65.528  1.00  0.00    -0.147 A  
HETATM    4  C   UNK A   0     -10.471  10.406  66.723  1.00  0.00    -0.287 A  
HETATM    5  C   UNK A   0      -9.892   9.359  65.937  1.00  0.00    -0.362 A  
HETATM    6  S   UNK A   0      -8.038  11.049  66.346  1.00  0.00    -0.156 SA 
HETATM    7  C   UNK A   0      -9.585  11.441  66.943  1.00  0.00    -0.185 A  
BRANCH   7   8
HETATM    8  C   UNK A   0      -9.840  12.736  67.549  1.00  0.00    -0.211 C  
HETATM    9  O   UNK A   0     -10.180  12.881  68.718  1.00  0.00    -0.197 OA 
ATOM     10  N   GLU A   1      -9.718  13.820  66.691  1.00  0.00    -0.280 N  
ATOM     11  H   GLU A   1      -9.468  13.658  65.715  1.00  0.00     0.000 HD 
BRANCH  10  12
ATOM     12  CA  GLU A   1      -9.943  15.192  67.155  1.00  0.00    -0.237 C  
ATOM     13  C   GLU A   1     -11.452  15.499  67.162  1.00  0.00    -0.067 C  
ATOM     14  O   GLU A   1     -12.167  14.747  66.290  1.00  0.00    -0.205 OA 
ATOM     15  OXT GLU A   1     -11.955  16.429  67.777  1.00  0.00     0.337 OA 
BRANCH  12  16
ATOM     16  CB  GLU A   1      -9.202  16.168  66.235  1.00  0.00    -0.366 C  
BRANCH  16  17
ATOM     17  CG  GLU A   1      -7.807  16.521  66.751  1.00  0.00    -0.296 C  
ATOM     18  CD  GLU A   1      -7.860  17.382  67.987  1.00  0.00    -0.207 C  
ATOM     19  OE2 GLU A   1      -8.759  18.161  68.247  1.00  0.00    -0.270 OA 
ATOM     20  OE1 GLU A   1      -6.773  17.228  68.777  1.00  0.00    -0.182 OA 
ENDBRANCH  16  17
ENDBRANCH  12  16
ENDBRANCH  10  12
ENDBRANCH   7   8
ENDBRANCH   2   3
BRANCH   2  21
HETATM   21  C   UNK A   0      -6.689   8.212  65.215  1.00  0.00    -0.052 C  
BRANCH  21  22
HETATM   22  C   UNK A   0      -7.200   7.036  66.019  1.00  0.00    -0.074 A  
HETATM   23  C   UNK A   0      -8.417   4.937  66.157  1.00  0.00    -0.112 A  
HETATM   24  C   UNK A   0      -8.118   4.826  67.515  1.00  0.00    -0.101 A  
HETATM   25  C   UNK A   0      -7.966   6.030  65.411  1.00  0.00    -0.118 A  
HETATM   26  H   UNK A   0     -10.100   1.983  65.877  1.00  0.00     0.000 HD 
HETATM   27  C   UNK A   0      -7.381   5.836  68.133  1.00  0.00    -0.077 A  
HETATM   28  C   UNK A   0      -9.670   1.509  68.340  1.00  0.00    -0.103 C  
HETATM   29  N   UNK A   0      -8.594   3.721  68.221  1.00  0.00    -0.093 NA 
HETATM   30  N   UNK A   0      -9.587   2.758  66.296  1.00  0.00    -0.389 N  
HETATM   31  C   UNK A   0      -6.920   6.927  67.387  1.00  0.00    -0.079 A  
HETATM   32  C   UNK A   0      -9.221   3.851  65.537  1.00  0.00    -0.151 C  
HETATM   33  O   UNK A   0      -9.534   3.968  64.356  1.00  0.00    -0.149 OA 
HETATM   34  C   UNK A   0      -9.268   2.734  67.552  1.00  0.00    -0.187 C  
ENDBRANCH  21  22
ENDBRANCH   2  21
TORSDOF 7
ENDMDL
MODEL      298
REMARK 921   NORMALIZED FREE ENERGY PREDICTED BY IDOCK:   -3.63 KCAL/MOL
REMARK 922        TOTAL FREE ENERGY PREDICTED BY IDOCK:   -6.24 KCAL/MOL
REMARK 923 INTER-LIGAND FREE ENERGY PREDICTED BY IDOCK:   -5.06 KCAL/MOL
REMARK 924 INTRA-LIGAND FREE ENERGY PREDICTED BY IDOCK:   -1.18 KCAL/MOL
REMARK 927      BINDING AFFINITY PREDICTED BY RF-SCORE:    0.00 PKD
ROOT
HETATM    1  C   UNK A   0      -6.965   3.649  71.872  1.00  0.00    -0.030 C  
HETATM    2  N   UNK A   0      -7.313   4.750  70.980  1.00  0.00    -0.058 NA 
ENDROOT
BRANCH   2   3
HETATM    3  C   UNK A   0      -7.427   4.491  69.639  1.00  0.00    -0.051 A  
HETATM    4  C   UNK A   0      -6.972   4.320  67.348  1.00  0.00    -0.063 A  
HETATM    5  C   UNK A   0      -6.440   4.387  68.675  1.00  0.00    -0.037 A  
HETATM    6  S   UNK A   0      -8.963   4.215  68.929  1.00  0.00    -0.124 SA 
HETATM    7  C   UNK A   0      -8.353   4.312  67.341  1.00  0.00    -0.099 A  
BRANCH   7   8
HETATM    8  C   UNK A   0      -9.252   4.411  66.205  1.00  0.00    -0.141 C  
HETATM    9  O   UNK A   0     -10.458   4.608  66.312  1.00  0.00    -0.284 OA 
ATOM     10  N   GLU A   1      -8.657   4.215  64.967  1.00  0.00    -0.114 N  
ATOM     11  H   GLU A   1      -7.657   4.018  64.920  1.00  0.00     0.000 HD 
BRANCH  10  12
ATOM     12  CA  GLU A   1      -9.433   4.285  63.726  1.00  0.00    -0.118 C  
ATOM     13  C   GLU A   1      -9.812   2.865  63.268  1.00  0.00    -0.105 C  
ATOM     14  O   GLU A   1      -8.967   1.902  63.713  1.00  0.00    -0.088 OA 
ATOM     15  OXT GLU A   1     -10.697   2.623  62.458  1.00  0.00    -0.134 OA 
BRANCH  12  16
ATOM     16  CB  GLU A   1      -8.606   4.993  62.647  1.00  0.00    -0.118 C  
BRANCH  16  17
ATOM     17  CG  GLU A   1      -7.207   5.375  63.133  1.00  0.00    -0.044 C  
ATOM     18  CD  GLU A   1      -7.232   6.570  64.051  1.00  0.00    -0.067 C  
ATOM     19  OE2 GLU A   1      -8.062   7.460  64.002  1.00  0.00    -0.118 OA 
ATOM     20  OE1 GLU A   1      -6.201   6.577  64.926  1.00  0.00    -0.036 OA 
ENDBRANCH  16  17
ENDBRANCH  12  16
ENDBRANCH  10  12
ENDBRANCH   7   8
ENDBRANCH   2   3
BRANCH   2  21
HETATM   21  C   UNK A   0      -6.740   6.062  71.340  1.00  0.00    -0.055 C  
BRANCH  21  22
HETATM   22  C   UNK A   0      -7.715   7.185  71.061  1.00  0.00    -0.090 A  
HETATM   23  C   UNK A   0      -9.845   8.286  71.460  1.00  0.00    -0.250 A  
HETATM   24  C   UNK A   0      -9.514   9.303  70.564  1.00  0.00    -0.264 A  
HETATM   25  C   UNK A   0      -8.960   7.234  71.708  1.00  0.00    -0.136 A  
HETATM   26  H   UNK A   0     -12.867   9.557  72.406  1.00  0.00     0.000 HD 
HETATM   27  C   UNK A   0      -8.292   9.247  69.895  1.00  0.00    -0.161 A  
HETATM   28  C   UNK A   0     -12.506  11.551  70.865  1.00  0.00    -0.464 C  
HETATM   29  N   UNK A   0     -10.432  10.330  70.342  1.00  0.00    -0.430 NA 
HETATM   30  N   UNK A   0     -11.979   9.461  71.914  1.00  0.00    -0.367 N  
HETATM   31  C   UNK A   0      -7.398   8.200  70.149  1.00  0.00    -0.060 A  
HETATM   32  C   UNK A   0     -11.165   8.369  72.140  1.00  0.00    -0.361 C  
HETATM   33  O   UNK A   0     -11.487   7.450  72.887  1.00  0.00    -0.298 OA 
HETATM   34  C   UNK A   0     -11.594  10.363  71.066  1.00  0.00    -0.295 C  
ENDBRANCH  21  22
ENDBRANCH   2  21
TORSDOF 7
ENDMDL
MODEL      299
REMARK 921   NORMALIZED FREE ENERGY PREDICTED BY IDOCK:   -3.61 KCAL/MOL
REMARK 922        TOTAL FREE ENERGY PREDICTED BY IDOCK:   -6.21 KCAL/MOL
REMARK 923 INTER-LIGAND FREE ENERGY PREDICTED BY IDOCK:   -8.03 KCAL/MOL
REMARK 924 INTRA-LIGAND FREE ENERGY PREDICTED BY IDOCK:    1.81 KCAL/MOL
REMARK 927      BINDING AFFINITY PREDICTED BY RF-SCORE:    0.00 PKD
ROOT
HETATM    1  C   UNK A   0      -8.295  19.786  67.094  1.00  0.00    -0.315 C  
HETATM    2  N   UNK A   0      -8.442  18.372  67.424  1.00  0.00    -0.251 NA 
ENDROOT
BRANCH   2   3
HETATM    3  C   UNK A   0      -9.187  17.582  66.588  1.00  0.00    -0.262 A  
HETATM    4  C   UNK A   0     -10.966  16.677  65.363  1.00  0.00    -0.096 A  
HETATM    5  C   UNK A   0     -10.413  17.834  65.998  1.00  0.00    -0.286 A  
HETATM    6  S   UNK A   0      -8.619  16.037  66.107  1.00  0.00    -0.157 SA 
HETATM    7  C   UNK A   0     -10.118  15.590  65.433  1.00  0.00    -0.352 A  
BRANCH   7   8
HETATM    8  C   UNK A   0     -10.381  14.213  65.053  1.00  0.00    -0.418 C  
HETATM    9  O   UNK A   0     -10.011  13.247  65.712  1.00  0.00    -0.283 OA 
ATOM     10  N   GLU A   1     -11.047  14.054  63.847  1.00  0.00    -0.430 N  
ATOM     11  H   GLU A   1     -11.308  14.880  63.308  1.00  0.00     0.000 HD 
BRANCH  10  12
ATOM     12  CA  GLU A   1     -11.385  12.725  63.330  1.00  0.00    -0.337 C  
ATOM     13  C   GLU A   1     -12.760  12.290  63.870  1.00  0.00    -0.382 C  
ATOM     14  O   GLU A   1     -13.100  12.881  65.042  1.00  0.00    -0.794 OA 
ATOM     15  OXT GLU A   1     -13.431  11.390  63.382  1.00  0.00    -0.030 OA 
BRANCH  12  16
ATOM     16  CB  GLU A   1     -10.303  11.724  63.754  1.00  0.00    -0.451 C  
BRANCH  16  17
ATOM     17  CG  GLU A   1     -10.008  10.683  62.674  1.00  0.00    -0.040 C  
ATOM     18  CD  GLU A   1      -8.798   9.849  63.006  1.00  0.00    -0.245 C  
ATOM     19  OE2 GLU A   1      -7.855  10.236  63.673  1.00  0.00    -0.157 OA 
ATOM     20  OE1 GLU A   1      -8.844   8.617  62.449  1.00  0.00    -0.169 OA 
ENDBRANCH  16  17
ENDBRANCH  12  16
ENDBRANCH  10  12
ENDBRANCH   7   8
ENDBRANCH   2   3
BRANCH   2  21
HETATM   21  C   UNK A   0      -8.540  18.064  68.864  1.00  0.00    -0.112 C  
BRANCH  21  22
HETATM   22  C   UNK A   0      -9.432  16.867  69.113  1.00  0.00    -0.135 A  
HETATM   23  C   UNK A   0      -9.815  14.467  69.060  1.00  0.00    -0.142 A  
HETATM   24  C   UNK A   0     -11.085  14.634  69.614  1.00  0.00    -0.253 A  
HETATM   25  C   UNK A   0      -8.993  15.569  68.808  1.00  0.00    -0.204 A  
HETATM   26  H   UNK A   0      -9.884  11.059  68.926  1.00  0.00     0.000 HD 
HETATM   27  C   UNK A   0     -11.539  15.922  69.894  1.00  0.00    -0.337 A  
HETATM   28  C   UNK A   0     -12.210  11.069  69.961  1.00  0.00    -0.418 C  
HETATM   29  N   UNK A   0     -11.873  13.506  69.843  1.00  0.00    -0.362 NA 
HETATM   30  N   UNK A   0     -10.191  12.018  69.085  1.00  0.00    -0.414 N  
HETATM   31  C   UNK A   0     -10.715  17.028  69.652  1.00  0.00    -0.048 A  
HETATM   32  C   UNK A   0      -9.372  13.081  68.757  1.00  0.00     0.135 C  
HETATM   33  O   UNK A   0      -8.279  12.930  68.219  1.00  0.00    -0.150 OA 
HETATM   34  C   UNK A   0     -11.355  12.262  69.598  1.00  0.00    -0.137 C  
ENDBRANCH  21  22
ENDBRANCH   2  21
TORSDOF 7
ENDMDL
MODEL      300
REMARK 921   NORMALIZED FREE ENERGY PREDICTED BY IDOCK:   -3.58 KCAL/MOL
REMARK 922        TOTAL FREE ENERGY PREDICTED BY IDOCK:   -6.17 KCAL/MOL
REMARK 923 INTER-LIGAND FREE ENERGY PREDICTED BY IDOCK:   -5.38 KCAL/MOL
REMARK 924 INTRA-LIGAND FREE ENERGY PREDICTED BY IDOCK:   -0.79 KCAL/MOL
REMARK 927      BINDING AFFINITY PREDICTED BY RF-SCORE:    0.00 PKD
ROOT
HETATM    1  C   UNK A   0     -10.679  12.477  67.224  1.00  0.00    -0.233 C  
HETATM    2  N   UNK A   0     -10.071  11.151  67.269  1.00  0.00    -0.184 NA 
ENDROOT
BRANCH   2   3
HETATM    3  C   UNK A   0      -9.721  10.636  68.490  1.00  0.00    -0.174 A  
HETATM    4  C   UNK A   0      -8.505   9.681  70.249  1.00  0.00    -0.221 A  
HETATM    5  C   UNK A   0      -8.465  10.442  69.037  1.00  0.00    -0.155 A  
HETATM    6  S   UNK A   0     -10.923  10.141  69.608  1.00  0.00    -0.279 SA 
HETATM    7  C   UNK A   0      -9.796   9.369  70.625  1.00  0.00    -0.276 A  
BRANCH   7   8
HETATM    8  C   UNK A   0     -10.239   8.489  71.692  1.00  0.00    -0.266 C  
HETATM    9  O   UNK A   0     -11.095   8.800  72.514  1.00  0.00    -0.266 OA 
ATOM     10  N   GLU A   1      -9.585   7.267  71.754  1.00  0.00    -0.151 N  
ATOM     11  H   GLU A   1      -8.854   7.057  71.075  1.00  0.00     0.000 HD 
BRANCH  10  12
ATOM     12  CA  GLU A   1      -9.923   6.271  72.774  1.00  0.00    -0.172 C  
ATOM     13  C   GLU A   1      -8.639   5.780  73.468  1.00  0.00    -0.120 C  
ATOM     14  O   GLU A   1      -7.524   5.903  72.707  1.00  0.00    -0.093 OA 
ATOM     15  OXT GLU A   1      -8.626   5.195  74.543  1.00  0.00    -0.109 OA 
BRANCH  12  16
ATOM     16  CB  GLU A   1     -10.658   5.097  72.116  1.00  0.00    -0.273 C  
BRANCH  16  17
ATOM     17  CG  GLU A   1      -9.887   4.507  70.935  1.00  0.00    -0.269 C  
ATOM     18  CD  GLU A   1     -10.106   5.290  69.666  1.00  0.00    -0.257 C  
ATOM     19  OE2 GLU A   1     -11.118   5.916  69.408  1.00  0.00    -0.363 OA 
ATOM     20  OE1 GLU A   1      -9.063   5.198  68.810  1.00  0.00    -0.108 OA 
ENDBRANCH  16  17
ENDBRANCH  12  16
ENDBRANCH  10  12
ENDBRANCH   7   8
ENDBRANCH   2   3
BRANCH   2  21
HETATM   21  C   UNK A   0      -9.165  10.831  66.148  1.00  0.00    -0.180 C  
BRANCH  21  22
HETATM   22  C   UNK A   0      -9.001   9.336  65.981  1.00  0.00    -0.215 A  
HETATM   23  C   UNK A   0      -7.714   7.421  65.215  1.00  0.00    -0.113 A  
HETATM   24  C   UNK A   0      -8.682   6.545  65.705  1.00  0.00    -0.120 A  
HETATM   25  C   UNK A   0      -7.867   8.805  65.346  1.00  0.00    -0.100 A  
HETATM   26  H   UNK A   0      -5.543   5.036  64.103  1.00  0.00     0.000 HD 
HETATM   27  C   UNK A   0      -9.824   7.066  66.312  1.00  0.00    -0.010 A  
HETATM   28  C   UNK A   0      -7.118   3.219  64.937  1.00  0.00    -0.061 C  
HETATM   29  N   UNK A   0      -8.489   5.173  65.547  1.00  0.00    -0.132 NA 
HETATM   30  N   UNK A   0      -6.377   5.458  64.510  1.00  0.00    -0.029 N  
HETATM   31  C   UNK A   0      -9.977   8.450  66.454  1.00  0.00    -0.291 A  
HETATM   32  C   UNK A   0      -6.518   6.831  64.557  1.00  0.00    -0.042 C  
HETATM   33  O   UNK A   0      -5.689   7.596  64.074  1.00  0.00    -0.043 OA 
HETATM   34  C   UNK A   0      -7.324   4.716  64.991  1.00  0.00    -0.072 C  
ENDBRANCH  21  22
ENDBRANCH   2  21
TORSDOF 7
ENDMDL
MODEL      301
REMARK 921   NORMALIZED FREE ENERGY PREDICTED BY IDOCK:   -3.57 KCAL/MOL
REMARK 922        TOTAL FREE ENERGY PREDICTED BY IDOCK:   -6.17 KCAL/MOL
REMARK 923 INTER-LIGAND FREE ENERGY PREDICTED BY IDOCK:   -4.55 KCAL/MOL
REMARK 924 INTRA-LIGAND FREE ENERGY PREDICTED BY IDOCK:   -1.61 KCAL/MOL
REMARK 927      BINDING AFFINITY PREDICTED BY RF-SCORE:    0.00 PKD
ROOT
HETATM    1  C   UNK A   0      -9.479   5.786  72.194  1.00  0.00    -0.149 C  
HETATM    2  N   UNK A   0      -9.185   6.760  71.148  1.00  0.00    -0.159 NA 
ENDROOT
BRANCH   2   3
HETATM    3  C   UNK A   0      -8.547   6.326  70.014  1.00  0.00    -0.134 A  
HETATM    4  C   UNK A   0      -6.892   5.748  68.462  1.00  0.00    -0.063 A  
HETATM    5  C   UNK A   0      -7.234   5.927  69.840  1.00  0.00    -0.073 A  
HETATM    6  S   UNK A   0      -9.396   6.192  68.530  1.00  0.00    -0.116 SA 
HETATM    7  C   UNK A   0      -7.971   5.956  67.627  1.00  0.00    -0.102 A  
BRANCH   7   8
HETATM    8  C   UNK A   0      -7.992   6.024  66.177  1.00  0.00    -0.107 C  
HETATM    9  O   UNK A   0      -9.012   5.896  65.508  1.00  0.00    -0.139 OA 
ATOM     10  N   GLU A   1      -6.752   6.199  65.579  1.00  0.00    -0.047 N  
ATOM     11  H   GLU A   1      -5.920   6.267  66.167  1.00  0.00     0.000 HD 
BRANCH  10  12
ATOM     12  CA  GLU A   1      -6.611   6.290  64.123  1.00  0.00    -0.034 C  
ATOM     13  C   GLU A   1      -6.081   4.955  63.568  1.00  0.00    -0.022 C  
ATOM     14  O   GLU A   1      -5.372   4.230  64.468  1.00  0.00    -0.012 OA 
ATOM     15  OXT GLU A   1      -6.153   4.630  62.390  1.00  0.00    -0.016 OA 
BRANCH  12  16
ATOM     16  CB  GLU A   1      -5.650   7.433  63.775  1.00  0.00    -0.037 C  
BRANCH  16  17
ATOM     17  CG  GLU A   1      -6.057   8.760  64.417  1.00  0.00    -0.066 C  
ATOM     18  CD  GLU A   1      -7.410   9.226  63.945  1.00  0.00    -0.102 C  
ATOM     19  OE2 GLU A   1      -7.887   8.971  62.855  1.00  0.00    -0.119 OA 
ATOM     20  OE1 GLU A   1      -8.041  10.002  64.857  1.00  0.00    -0.141 OA 
ENDBRANCH  16  17
ENDBRANCH  12  16
ENDBRANCH  10  12
ENDBRANCH   7   8
ENDBRANCH   2   3
BRANCH   2  21
HETATM   21  C   UNK A   0      -8.815   8.108  71.623  1.00  0.00    -0.156 C  
BRANCH  21  22
HETATM   22  C   UNK A   0      -9.345   9.183  70.700  1.00  0.00    -0.312 A  
HETATM   23  C   UNK A   0      -9.017  10.761  68.880  1.00  0.00    -0.158 A  
HETATM   24  C   UNK A   0     -10.351  11.162  68.956  1.00  0.00    -0.194 A  
HETATM   25  C   UNK A   0      -8.512   9.783  69.743  1.00  0.00    -0.206 A  
HETATM   26  H   UNK A   0      -8.157  12.736  66.234  1.00  0.00     0.000 HD 
HETATM   27  C   UNK A   0     -11.178  10.591  69.923  1.00  0.00    -0.374 A  
HETATM   28  C   UNK A   0     -10.541  13.620  66.124  1.00  0.00    -0.291 C  
HETATM   29  N   UNK A   0     -10.809  12.145  68.079  1.00  0.00    -0.213 NA 
HETATM   30  N   UNK A   0      -8.718  12.318  66.976  1.00  0.00    -0.194 N  
HETATM   31  C   UNK A   0     -10.679   9.604  70.782  1.00  0.00    -0.401 A  
HETATM   32  C   UNK A   0      -8.161  11.405  67.850  1.00  0.00    -0.126 C  
HETATM   33  O   UNK A   0      -6.973  11.099  67.813  1.00  0.00    -0.074 OA 
HETATM   34  C   UNK A   0      -9.967  12.633  67.115  1.00  0.00    -0.217 C  
ENDBRANCH  21  22
ENDBRANCH   2  21
TORSDOF 7
ENDMDL
MODEL      302
REMARK 921   NORMALIZED FREE ENERGY PREDICTED BY IDOCK:   -3.57 KCAL/MOL
REMARK 922        TOTAL FREE ENERGY PREDICTED BY IDOCK:   -6.16 KCAL/MOL
REMARK 923 INTER-LIGAND FREE ENERGY PREDICTED BY IDOCK:   -5.35 KCAL/MOL
REMARK 924 INTRA-LIGAND FREE ENERGY PREDICTED BY IDOCK:   -0.81 KCAL/MOL
REMARK 927      BINDING AFFINITY PREDICTED BY RF-SCORE:    0.00 PKD
ROOT
HETATM    1  C   UNK A   0     -12.310  13.061  65.035  1.00  0.00    -0.473 C  
HETATM    2  N   UNK A   0     -12.154  13.154  66.483  1.00  0.00    -0.385 NA 
ENDROOT
BRANCH   2   3
HETATM    3  C   UNK A   0     -11.182  13.983  66.980  1.00  0.00    -0.313 A  
HETATM    4  C   UNK A   0     -10.037  15.558  68.282  1.00  0.00    -0.218 A  
HETATM    5  C   UNK A   0     -11.095  14.596  68.217  1.00  0.00    -0.283 A  
HETATM    6  S   UNK A   0      -9.807  14.384  66.037  1.00  0.00    -0.306 SA 
HETATM    7  C   UNK A   0      -9.307  15.608  67.111  1.00  0.00    -0.218 A  
BRANCH   7   8
HETATM    8  C   UNK A   0      -8.271  16.551  66.731  1.00  0.00    -0.243 C  
HETATM    9  O   UNK A   0      -7.590  16.436  65.718  1.00  0.00     0.385 OA 
ATOM     10  N   GLU A   1      -8.062  17.587  67.630  1.00  0.00    -0.204 N  
ATOM     11  H   GLU A   1      -8.624  17.630  68.481  1.00  0.00     0.000 HD 
BRANCH  10  12
ATOM     12  CA  GLU A   1      -7.051  18.619  67.385  1.00  0.00    -0.206 C  
ATOM     13  C   GLU A   1      -6.380  19.017  68.713  1.00  0.00    -0.247 C  
ATOM     14  O   GLU A   1      -7.153  18.797  69.805  1.00  0.00     0.010 OA 
ATOM     15  OXT GLU A   1      -5.313  19.612  68.786  1.00  0.00    -0.192 OA 
BRANCH  12  16
ATOM     16  CB  GLU A   1      -7.717  19.839  66.736  1.00  0.00    -0.306 C  
BRANCH  16  17
ATOM     17  CG  GLU A   1      -9.065  20.181  67.370  1.00  0.00    -0.475 C  
ATOM     18  CD  GLU A   1     -10.223  19.681  66.546  1.00  0.00    -0.480 C  
ATOM     19  OE2 GLU A   1     -10.201  19.544  65.337  1.00  0.00    -0.343 OA 
ATOM     20  OE1 GLU A   1     -11.323  19.430  67.291  1.00  0.00    -0.208 OA 
ENDBRANCH  16  17
ENDBRANCH  12  16
ENDBRANCH  10  12
ENDBRANCH   7   8
ENDBRANCH   2   3
BRANCH   2  21
HETATM   21  C   UNK A   0     -12.377  11.899  67.227  1.00  0.00     0.988 C  
BRANCH  21  22
HETATM   22  C   UNK A   0     -11.181  10.978  67.126  1.00  0.00    -0.290 A  
HETATM   23  C   UNK A   0      -9.331   9.791  68.164  1.00  0.00    -0.136 A  
HETATM   24  C   UNK A   0      -8.974   9.228  66.939  1.00  0.00    -0.130 A  
HETATM   25  C   UNK A   0     -10.422  10.660  68.263  1.00  0.00    -0.214 A  
HETATM   26  H   UNK A   0      -6.948   8.221  70.034  1.00  0.00     0.000 HD 
HETATM   27  C   UNK A   0      -9.707   9.560  65.800  1.00  0.00    -0.357 A  
HETATM   28  C   UNK A   0      -6.107   7.026  67.950  1.00  0.00    -0.033 C  
HETATM   29  N   UNK A   0      -7.875   8.371  66.887  1.00  0.00    -0.095 NA 
HETATM   30  N   UNK A   0      -7.489   8.515  69.221  1.00  0.00    -0.081 N  
HETATM   31  C   UNK A   0     -10.805  10.422  65.896  1.00  0.00     0.079 A  
HETATM   32  C   UNK A   0      -8.516   9.429  69.353  1.00  0.00    -0.142 C  
HETATM   33  O   UNK A   0      -8.788   9.963  70.424  1.00  0.00    -0.141 OA 
HETATM   34  C   UNK A   0      -7.225   8.038  68.046  1.00  0.00    -0.094 C  
ENDBRANCH  21  22
ENDBRANCH   2  21
TORSDOF 7
ENDMDL
MODEL      303
REMARK 921   NORMALIZED FREE ENERGY PREDICTED BY IDOCK:   -3.51 KCAL/MOL
REMARK 922        TOTAL FREE ENERGY PREDICTED BY IDOCK:   -6.07 KCAL/MOL
REMARK 923 INTER-LIGAND FREE ENERGY PREDICTED BY IDOCK:   -6.32 KCAL/MOL
REMARK 924 INTRA-LIGAND FREE ENERGY PREDICTED BY IDOCK:    0.24 KCAL/MOL
REMARK 927      BINDING AFFINITY PREDICTED BY RF-SCORE:    0.00 PKD
ROOT
HETATM    1  C   UNK A   0      -6.995  11.525  69.398  1.00  0.00    -0.071 C  
HETATM    2  N   UNK A   0      -8.335  11.649  68.832  1.00  0.00    -0.360 NA 
ENDROOT
BRANCH   2   3
HETATM    3  C   UNK A   0      -9.245  10.656  69.088  1.00  0.00    -0.148 A  
HETATM    4  C   UNK A   0     -11.121   9.486  69.859  1.00  0.00    -0.244 A  
HETATM    5  C   UNK A   0     -10.565  10.752  69.488  1.00  0.00    -0.235 A  
HETATM    6  S   UNK A   0      -8.813   9.006  68.902  1.00  0.00    -0.140 SA 
HETATM    7  C   UNK A   0     -10.227   8.451  69.673  1.00  0.00    -0.209 A  
BRANCH   7   8
HETATM    8  C   UNK A   0     -10.356   7.062  70.075  1.00  0.00    -0.202 C  
HETATM    9  O   UNK A   0     -11.431   6.475  70.146  1.00  0.00    -0.368 OA 
ATOM     10  N   GLU A   1      -9.167   6.440  70.429  1.00  0.00    -0.155 N  
ATOM     11  H   GLU A   1      -8.297   6.971  70.391  1.00  0.00     0.000 HD 
BRANCH  10  12
ATOM     12  CA  GLU A   1      -9.135   5.038  70.855  1.00  0.00    -0.143 C  
ATOM     13  C   GLU A   1      -8.944   4.126  69.629  1.00  0.00    -0.101 C  
ATOM     14  O   GLU A   1      -9.378   4.673  68.467  1.00  0.00    -0.122 OA 
ATOM     15  OXT GLU A   1      -8.578   2.960  69.698  1.00  0.00    -0.058 OA 
BRANCH  12  16
ATOM     16  CB  GLU A   1     -10.442   4.696  71.579  1.00  0.00    -0.102 C  
BRANCH  16  17
ATOM     17  CG  GLU A   1     -10.219   4.285  73.034  1.00  0.00    -0.226 C  
ATOM     18  CD  GLU A   1     -10.101   2.790  73.189  1.00  0.00    -0.122 C  
ATOM     19  OE2 GLU A   1     -10.639   1.976  72.461  1.00  0.00    -0.155 OA 
ATOM     20  OE1 GLU A   1      -9.353   2.434  74.259  1.00  0.00    -0.079 OA 
ENDBRANCH  16  17
ENDBRANCH  12  16
ENDBRANCH  10  12
ENDBRANCH   7   8
ENDBRANCH   2   3
BRANCH   2  21
HETATM   21  C   UNK A   0      -8.403  12.259  67.490  1.00  0.00    -0.170 C  
BRANCH  21  22
HETATM   22  C   UNK A   0      -8.402  13.770  67.569  1.00  0.00    -0.197 A  
HETATM   23  C   UNK A   0      -9.536  15.864  68.056  1.00  0.00    -0.211 A  
HETATM   24  C   UNK A   0      -8.382  16.587  67.752  1.00  0.00    -0.170 A  
HETATM   25  C   UNK A   0      -9.553  14.469  67.965  1.00  0.00    -0.217 A  
HETATM   26  H   UNK A   0     -11.455  18.537  68.957  1.00  0.00     0.000 HD 
HETATM   27  C   UNK A   0      -7.243  15.902  67.331  1.00  0.00    -0.227 A  
HETATM   28  C   UNK A   0      -9.491  20.093  68.508  1.00  0.00    -0.152 C  
HETATM   29  N   UNK A   0      -8.414  17.978  67.851  1.00  0.00    -0.247 NA 
HETATM   30  N   UNK A   0     -10.655  18.001  68.622  1.00  0.00    -0.350 N  
HETATM   31  C   UNK A   0      -7.252  14.504  67.248  1.00  0.00    -0.053 A  
HETATM   32  C   UNK A   0     -10.737  16.629  68.482  1.00  0.00    -0.351 C  
HETATM   33  O   UNK A   0     -11.772  16.006  68.698  1.00  0.00    -0.382 OA 
HETATM   34  C   UNK A   0      -9.544  18.594  68.320  1.00  0.00    -0.347 C  
ENDBRANCH  21  22
ENDBRANCH   2  21
TORSDOF 7
ENDMDL
MODEL      304
REMARK 921   NORMALIZED FREE ENERGY PREDICTED BY IDOCK:   -3.51 KCAL/MOL
REMARK 922        TOTAL FREE ENERGY PREDICTED BY IDOCK:   -6.07 KCAL/MOL
REMARK 923 INTER-LIGAND FREE ENERGY PREDICTED BY IDOCK:   -6.91 KCAL/MOL
REMARK 924 INTRA-LIGAND FREE ENERGY PREDICTED BY IDOCK:    0.84 KCAL/MOL
REMARK 927      BINDING AFFINITY PREDICTED BY RF-SCORE:    0.00 PKD
ROOT
HETATM    1  C   UNK A   0      -9.072  21.019  67.090  1.00  0.00     0.069 C  
HETATM    2  N   UNK A   0      -8.614  19.681  67.452  1.00  0.00    -0.296 NA 
ENDROOT
BRANCH   2   3
HETATM    3  C   UNK A   0      -9.345  18.604  67.022  1.00  0.00    -0.294 A  
HETATM    4  C   UNK A   0     -10.993  16.952  66.834  1.00  0.00     0.103 A  
HETATM    5  C   UNK A   0     -10.657  18.264  67.296  1.00  0.00    -0.406 A  
HETATM    6  S   UNK A   0      -8.652  17.443  65.967  1.00  0.00     0.027 SA 
HETATM    7  C   UNK A   0      -9.945  16.351  66.166  1.00  0.00    -0.339 A  
BRANCH   7   8
HETATM    8  C   UNK A   0      -9.839  14.982  65.694  1.00  0.00    -0.345 C  
HETATM    9  O   UNK A   0      -8.935  14.221  66.022  1.00  0.00     0.009 OA 
ATOM     10  N   GLU A   1     -10.819  14.595  64.792  1.00  0.00    -0.538 N  
ATOM     11  H   GLU A   1     -11.536  15.266  64.515  1.00  0.00     0.000 HD 
BRANCH  10  12
ATOM     12  CA  GLU A   1     -10.848  13.242  64.228  1.00  0.00    -0.392 C  
ATOM     13  C   GLU A   1     -12.307  12.792  64.027  1.00  0.00    -0.411 C  
ATOM     14  O   GLU A   1     -13.188  13.411  64.851  1.00  0.00    -0.679 OA 
ATOM     15  OXT GLU A   1     -12.640  11.861  63.306  1.00  0.00    -0.586 OA 
BRANCH  12  16
ATOM     16  CB  GLU A   1     -10.116  12.282  65.172  1.00  0.00    -0.284 C  
BRANCH  16  17
ATOM     17  CG  GLU A   1      -9.180  11.326  64.432  1.00  0.00    -0.065 C  
ATOM     18  CD  GLU A   1      -9.578   9.885  64.617  1.00  0.00    -0.252 C  
ATOM     19  OE2 GLU A   1     -10.149   9.448  65.600  1.00  0.00    -0.261 OA 
ATOM     20  OE1 GLU A   1      -9.199   9.102  63.582  1.00  0.00     0.038 OA 
ENDBRANCH  16  17
ENDBRANCH  12  16
ENDBRANCH  10  12
ENDBRANCH   7   8
ENDBRANCH   2   3
BRANCH   2  21
HETATM   21  C   UNK A   0      -8.009  19.560  68.793  1.00  0.00    -0.327 C  
BRANCH  21  22
HETATM   22  C   UNK A   0      -7.260  18.254  68.944  1.00  0.00    -0.282 A  
HETATM   23  C   UNK A   0      -7.250  15.833  69.156  1.00  0.00    -0.192 A  
HETATM   24  C   UNK A   0      -5.855  15.818  69.189  1.00  0.00    -0.109 A  
HETATM   25  C   UNK A   0      -7.951  17.036  69.037  1.00  0.00    -0.153 A  
HETATM   26  H   UNK A   0      -7.688  12.453  69.309  1.00  0.00     0.000 HD 
HETATM   27  C   UNK A   0      -5.162  17.026  69.125  1.00  0.00    -0.133 A  
HETATM   28  C   UNK A   0      -5.163  12.131  69.351  1.00  0.00    -0.065 C  
HETATM   29  N   UNK A   0      -5.198  14.594  69.314  1.00  0.00    -0.086 NA 
HETATM   30  N   UNK A   0      -7.221  13.359  69.294  1.00  0.00    -0.312 N  
HETATM   31  C   UNK A   0      -5.860  18.232  68.996  1.00  0.00    -0.212 A  
HETATM   32  C   UNK A   0      -7.955  14.527  69.245  1.00  0.00     0.007 C  
HETATM   33  O   UNK A   0      -9.183  14.536  69.272  1.00  0.00    -0.049 OA 
HETATM   34  C   UNK A   0      -5.928  13.435  69.318  1.00  0.00    -0.093 C  
ENDBRANCH  21  22
ENDBRANCH   2  21
TORSDOF 7
ENDMDL
MODEL      305
REMARK 921   NORMALIZED FREE ENERGY PREDICTED BY IDOCK:   -3.45 KCAL/MOL
REMARK 922        TOTAL FREE ENERGY PREDICTED BY IDOCK:   -5.99 KCAL/MOL
REMARK 923 INTER-LIGAND FREE ENERGY PREDICTED BY IDOCK:   -4.42 KCAL/MOL
REMARK 924 INTRA-LIGAND FREE ENERGY PREDICTED BY IDOCK:   -1.57 KCAL/MOL
REMARK 927      BINDING AFFINITY PREDICTED BY RF-SCORE:    0.00 PKD
ROOT
HETATM    1  C   UNK A   0      -7.307  15.032  69.853  1.00  0.00    -0.060 C  
HETATM    2  N   UNK A   0      -7.793  14.359  68.652  1.00  0.00    -0.136 NA 
ENDROOT
BRANCH   2   3
HETATM    3  C   UNK A   0      -7.145  13.225  68.234  1.00  0.00    -0.109 A  
HETATM    4  C   UNK A   0      -5.795  11.735  67.033  1.00  0.00    -0.145 A  
HETATM    5  C   UNK A   0      -6.044  13.094  67.407  1.00  0.00    -0.028 A  
HETATM    6  S   UNK A   0      -7.664  11.677  68.759  1.00  0.00    -0.073 SA 
HETATM    7  C   UNK A   0      -6.677  10.860  67.636  1.00  0.00    -0.069 A  
BRANCH   7   8
HETATM    8  C   UNK A   0      -6.850   9.439  67.393  1.00  0.00    -0.080 C  
HETATM    9  O   UNK A   0      -5.936   8.625  67.461  1.00  0.00    -0.046 OA 
ATOM     10  N   GLU A   1      -8.132   9.059  67.021  1.00  0.00    -0.105 N  
ATOM     11  H   GLU A   1      -8.859   9.770  66.940  1.00  0.00     0.000 HD 
BRANCH  10  12
ATOM     12  CA  GLU A   1      -8.463   7.659  66.743  1.00  0.00    -0.127 C  
ATOM     13  C   GLU A   1      -8.395   7.399  65.227  1.00  0.00    -0.104 C  
ATOM     14  O   GLU A   1      -8.594   8.508  64.472  1.00  0.00    -0.137 OA 
ATOM     15  OXT GLU A   1      -8.320   6.284  64.729  1.00  0.00    -0.128 OA 
BRANCH  12  16
ATOM     16  CB  GLU A   1      -9.868   7.354  67.276  1.00  0.00    -0.230 C  
BRANCH  16  17
ATOM     17  CG  GLU A   1     -10.252   8.236  68.464  1.00  0.00    -0.234 C  
ATOM     18  CD  GLU A   1     -10.720   7.425  69.645  1.00  0.00    -0.235 C  
ATOM     19  OE2 GLU A   1     -11.265   6.339  69.564  1.00  0.00    -0.380 OA 
ATOM     20  OE1 GLU A   1     -10.504   8.049  70.825  1.00  0.00    -0.203 OA 
ENDBRANCH  16  17
ENDBRANCH  12  16
ENDBRANCH  10  12
ENDBRANCH   7   8
ENDBRANCH   2   3
BRANCH   2  21
HETATM   21  C   UNK A   0      -8.295  15.248  67.586  1.00  0.00    -0.164 C  
BRANCH  21  22
HETATM   22  C   UNK A   0      -9.511  14.660  66.904  1.00  0.00    -0.259 A  
HETATM   23  C   UNK A   0     -10.507  13.348  65.116  1.00  0.00    -0.358 A  
HETATM   24  C   UNK A   0     -11.779  13.534  65.657  1.00  0.00    -0.339 A  
HETATM   25  C   UNK A   0      -9.380  13.905  65.728  1.00  0.00     0.106 A  
HETATM   26  H   UNK A   0     -11.465  11.350  62.522  1.00  0.00     0.000 HD 
HETATM   27  C   UNK A   0     -11.921  14.306  66.809  1.00  0.00    -0.462 A  
HETATM   28  C   UNK A   0     -13.881  11.494  63.308  1.00  0.00     2.238 C  
HETATM   29  N   UNK A   0     -12.876  12.965  65.009  1.00  0.00    -0.798 NA 
HETATM   30  N   UNK A   0     -11.528  11.949  63.345  1.00  0.00    -0.651 N  
HETATM   31  C   UNK A   0     -10.794  14.858  67.430  1.00  0.00    -0.304 A  
HETATM   32  C   UNK A   0     -10.396  12.535  63.877  1.00  0.00    -0.409 C  
HETATM   33  O   UNK A   0      -9.288  12.412  63.364  1.00  0.00    -0.015 OA 
HETATM   34  C   UNK A   0     -12.672  12.171  63.911  1.00  0.00    -0.377 C  
ENDBRANCH  21  22
ENDBRANCH   2  21
TORSDOF 7
ENDMDL
MODEL      306
REMARK 921   NORMALIZED FREE ENERGY PREDICTED BY IDOCK:   -3.43 KCAL/MOL
REMARK 922        TOTAL FREE ENERGY PREDICTED BY IDOCK:   -5.96 KCAL/MOL
REMARK 923 INTER-LIGAND FREE ENERGY PREDICTED BY IDOCK:   -4.36 KCAL/MOL
REMARK 924 INTRA-LIGAND FREE ENERGY PREDICTED BY IDOCK:   -1.60 KCAL/MOL
REMARK 927      BINDING AFFINITY PREDICTED BY RF-SCORE:    0.00 PKD
ROOT
HETATM    1  C   UNK A   0      -9.914  11.158  66.734  1.00  0.00    -0.208 C  
HETATM    2  N   UNK A   0      -8.987  10.088  67.093  1.00  0.00    -0.135 NA 
ENDROOT
BRANCH   2   3
HETATM    3  C   UNK A   0      -8.508  10.046  68.376  1.00  0.00    -0.112 A  
HETATM    4  C   UNK A   0      -7.140  10.288  70.262  1.00  0.00    -0.114 A  
HETATM    5  C   UNK A   0      -7.483  10.769  68.958  1.00  0.00    -0.118 A  
HETATM    6  S   UNK A   0      -9.211   8.998  69.538  1.00  0.00    -0.157 SA 
HETATM    7  C   UNK A   0      -7.956   9.249  70.663  1.00  0.00    -0.162 A  
BRANCH   7   8
HETATM    8  C   UNK A   0      -7.830   8.400  71.835  1.00  0.00    -0.125 C  
HETATM    9  O   UNK A   0      -7.512   8.819  72.943  1.00  0.00    -0.357 OA 
ATOM     10  N   GLU A   1      -8.047   7.049  71.607  1.00  0.00    -0.103 N  
ATOM     11  H   GLU A   1      -8.275   6.732  70.664  1.00  0.00     0.000 HD 
BRANCH  10  12
ATOM     12  CA  GLU A   1      -7.957   6.067  72.691  1.00  0.00    -0.104 C  
ATOM     13  C   GLU A   1      -6.522   5.514  72.775  1.00  0.00    -0.065 C  
ATOM     14  O   GLU A   1      -5.838   5.586  71.607  1.00  0.00    -0.022 OA 
ATOM     15  OXT GLU A   1      -6.074   4.926  73.750  1.00  0.00    -0.035 OA 
BRANCH  12  16
ATOM     16  CB  GLU A   1      -8.954   4.931  72.433  1.00  0.00    -0.140 C  
BRANCH  16  17
ATOM     17  CG  GLU A   1      -9.652   5.057  71.079  1.00  0.00    -0.232 C  
ATOM     18  CD  GLU A   1     -10.974   5.772  71.186  1.00  0.00    -0.225 C  
ATOM     19  OE2 GLU A   1     -11.685   5.765  72.175  1.00  0.00    -0.263 OA 
ATOM     20  OE1 GLU A   1     -11.319   6.405  70.042  1.00  0.00    -0.370 OA 
ENDBRANCH  16  17
ENDBRANCH  12  16
ENDBRANCH  10  12
ENDBRANCH   7   8
ENDBRANCH   2   3
BRANCH   2  21
HETATM   21  C   UNK A   0      -8.039   9.689  66.034  1.00  0.00    -0.112 C  
BRANCH  21  22
HETATM   22  C   UNK A   0      -7.670   8.226  66.147  1.00  0.00    -0.097 A  
HETATM   23  C   UNK A   0      -8.303   5.879  66.167  1.00  0.00    -0.124 A  
HETATM   24  C   UNK A   0      -6.971   5.497  66.321  1.00  0.00    -0.060 A  
HETATM   25  C   UNK A   0      -8.656   7.229  66.082  1.00  0.00    -0.156 A  
HETATM   26  H   UNK A   0      -9.607   2.730  66.013  1.00  0.00     0.000 HD 
HETATM   27  C   UNK A   0      -5.988   6.481  66.415  1.00  0.00    -0.025 A  
HETATM   28  C   UNK A   0      -7.268   1.755  66.252  1.00  0.00    -0.052 C  
HETATM   29  N   UNK A   0      -6.666   4.138  66.407  1.00  0.00    -0.049 NA 
HETATM   30  N   UNK A   0      -8.924   3.481  66.111  1.00  0.00    -0.135 N  
HETATM   31  C   UNK A   0      -6.336   7.834  66.321  1.00  0.00    -0.046 A  
HETATM   32  C   UNK A   0      -9.325   4.803  66.090  1.00  0.00    -0.152 C  
HETATM   33  O   UNK A   0     -10.505   5.132  66.010  1.00  0.00    -0.231 OA 
HETATM   34  C   UNK A   0      -7.665   3.213  66.255  1.00  0.00    -0.077 C  
ENDBRANCH  21  22
ENDBRANCH   2  21
TORSDOF 7
ENDMDL
MODEL      307
REMARK 921   NORMALIZED FREE ENERGY PREDICTED BY IDOCK:   -3.32 KCAL/MOL
REMARK 922        TOTAL FREE ENERGY PREDICTED BY IDOCK:   -5.81 KCAL/MOL
REMARK 923 INTER-LIGAND FREE ENERGY PREDICTED BY IDOCK:   -5.93 KCAL/MOL
REMARK 924 INTRA-LIGAND FREE ENERGY PREDICTED BY IDOCK:    0.13 KCAL/MOL
REMARK 927      BINDING AFFINITY PREDICTED BY RF-SCORE:    0.00 PKD
ROOT
HETATM    1  C   UNK A   0      -8.342   7.135  69.160  1.00  0.00    -0.129 C  
HETATM    2  N   UNK A   0      -7.848   8.372  68.563  1.00  0.00    -0.118 NA 
ENDROOT
BRANCH   2   3
HETATM    3  C   UNK A   0      -8.712   9.429  68.446  1.00  0.00    -0.124 A  
HETATM    4  C   UNK A   0     -10.657  10.712  68.213  1.00  0.00    -0.227 A  
HETATM    5  C   UNK A   0     -10.080   9.474  68.642  1.00  0.00    -0.198 A  
HETATM    6  S   UNK A   0      -8.135  10.987  68.020  1.00  0.00    -0.126 SA 
HETATM    7  C   UNK A   0      -9.703  11.601  67.760  1.00  0.00    -0.173 A  
BRANCH   7   8
HETATM    8  C   UNK A   0      -9.899  12.882  67.104  1.00  0.00    -0.225 C  
HETATM    9  O   UNK A   0     -10.320  12.997  65.958  1.00  0.00    -0.274 OA 
ATOM     10  N   GLU A   1      -9.525  13.988  67.853  1.00  0.00    -0.203 N  
ATOM     11  H   GLU A   1      -9.145  13.851  68.790  1.00  0.00     0.000 HD 
BRANCH  10  12
ATOM     12  CA  GLU A   1      -9.665  15.349  67.328  1.00  0.00    -0.212 C  
ATOM     13  C   GLU A   1      -8.561  16.249  67.913  1.00  0.00    -0.173 C  
ATOM     14  O   GLU A   1      -8.082  15.822  69.107  1.00  0.00    -0.207 OA 
ATOM     15  OXT GLU A   1      -8.238  17.329  67.437  1.00  0.00    -0.187 OA 
BRANCH  12  16
ATOM     16  CB  GLU A   1     -11.050  15.896  67.692  1.00  0.00    -0.266 C  
BRANCH  16  17
ATOM     17  CG  GLU A   1     -11.239  16.064  69.200  1.00  0.00    -0.342 C  
ATOM     18  CD  GLU A   1     -11.776  14.813  69.847  1.00  0.00    -0.306 C  
ATOM     19  OE2 GLU A   1     -12.488  13.998  69.289  1.00  0.00    -0.259 OA 
ATOM     20  OE1 GLU A   1     -11.414  14.701  71.145  1.00  0.00    -0.265 OA 
ENDBRANCH  16  17
ENDBRANCH  12  16
ENDBRANCH  10  12
ENDBRANCH   7   8
ENDBRANCH   2   3
BRANCH   2  21
HETATM   21  C   UNK A   0      -6.880   8.201  67.462  1.00  0.00    -0.070 C  
BRANCH  21  22
HETATM   22  C   UNK A   0      -7.452   7.344  66.353  1.00  0.00    -0.084 A  
HETATM   23  C   UNK A   0      -9.020   5.656  65.578  1.00  0.00    -0.113 A  
HETATM   24  C   UNK A   0      -8.539   5.775  64.274  1.00  0.00     0.078 A  
HETATM   25  C   UNK A   0      -8.484   6.429  66.613  1.00  0.00    -0.115 A  
HETATM   26  H   UNK A   0     -11.450   3.360  64.900  1.00  0.00     0.000 HD 
HETATM   27  C   UNK A   0      -7.495   6.662  64.013  1.00  0.00    -0.093 A  
HETATM   28  C   UNK A   0     -10.798   3.403  62.440  1.00  0.00    -0.141 C  
HETATM   29  N   UNK A   0      -9.100   4.980  63.275  1.00  0.00    -0.341 NA 
HETATM   30  N   UNK A   0     -10.664   3.994  64.759  1.00  0.00    -0.595 N  
HETATM   31  C   UNK A   0      -6.962   7.444  65.044  1.00  0.00    -0.051 A  
HETATM   32  C   UNK A   0     -10.120   4.687  65.822  1.00  0.00    -0.244 C  
HETATM   33  O   UNK A   0     -10.511   4.537  66.976  1.00  0.00    -0.085 OA 
HETATM   34  C   UNK A   0     -10.159   4.165  63.578  1.00  0.00    -0.067 C  
ENDBRANCH  21  22
ENDBRANCH   2  21
TORSDOF 7
ENDMDL
MODEL      308
REMARK 921   NORMALIZED FREE ENERGY PREDICTED BY IDOCK:   -3.31 KCAL/MOL
REMARK 922        TOTAL FREE ENERGY PREDICTED BY IDOCK:   -5.79 KCAL/MOL
REMARK 923 INTER-LIGAND FREE ENERGY PREDICTED BY IDOCK:   -5.39 KCAL/MOL
REMARK 924 INTRA-LIGAND FREE ENERGY PREDICTED BY IDOCK:   -0.40 KCAL/MOL
REMARK 927      BINDING AFFINITY PREDICTED BY RF-SCORE:    0.00 PKD
ROOT
HETATM    1  C   UNK A   0      -7.557   5.496  69.219  1.00  0.00    -0.086 C  
HETATM    2  N   UNK A   0      -6.679   6.582  68.797  1.00  0.00    -0.055 NA 
ENDROOT
BRANCH   2   3
HETATM    3  C   UNK A   0      -6.939   7.846  69.259  1.00  0.00    -0.056 A  
HETATM    4  C   UNK A   0      -7.694   9.640  70.562  1.00  0.00    -0.152 A  
HETATM    5  C   UNK A   0      -7.300   8.264  70.527  1.00  0.00    -0.056 A  
HETATM    6  S   UNK A   0      -6.813   9.202  68.215  1.00  0.00    -0.065 SA 
HETATM    7  C   UNK A   0      -7.562  10.250  69.330  1.00  0.00    -0.137 A  
BRANCH   7   8
HETATM    8  C   UNK A   0      -8.001  11.573  68.925  1.00  0.00    -0.057 C  
HETATM    9  O   UNK A   0      -7.278  12.563  68.948  1.00  0.00    -0.102 OA 
ATOM     10  N   GLU A   1      -9.334  11.659  68.549  1.00  0.00    -0.269 N  
ATOM     11  H   GLU A   1      -9.915  10.822  68.576  1.00  0.00     0.000 HD 
BRANCH  10  12
ATOM     12  CA  GLU A   1      -9.924  12.928  68.113  1.00  0.00    -0.234 C  
ATOM     13  C   GLU A   1     -11.460  12.833  68.164  1.00  0.00    -0.314 C  
ATOM     14  O   GLU A   1     -11.934  11.567  68.052  1.00  0.00    -0.595 OA 
ATOM     15  OXT GLU A   1     -12.204  13.804  68.157  1.00  0.00    -0.331 OA 
BRANCH  12  16
ATOM     16  CB  GLU A   1      -9.455  13.244  66.688  1.00  0.00    -0.262 C  
BRANCH  16  17
ATOM     17  CG  GLU A   1      -9.825  12.148  65.689  1.00  0.00    -0.256 C  
ATOM     18  CD  GLU A   1     -10.454  12.708  64.439  1.00  0.00    -0.373 C  
ATOM     19  OE2 GLU A   1     -11.102  13.738  64.394  1.00  0.00    -0.379 OA 
ATOM     20  OE1 GLU A   1     -10.254  11.921  63.357  1.00  0.00    -0.413 OA 
ENDBRANCH  16  17
ENDBRANCH  12  16
ENDBRANCH  10  12
ENDBRANCH   7   8
ENDBRANCH   2   3
BRANCH   2  21
HETATM   21  C   UNK A   0      -6.175   6.489  67.413  1.00  0.00    -0.036 C  
BRANCH  21  22
HETATM   22  C   UNK A   0      -7.188   5.831  66.500  1.00  0.00    -0.074 A  
HETATM   23  C   UNK A   0      -8.224   3.834  65.582  1.00  0.00    -0.105 A  
HETATM   24  C   UNK A   0      -9.103   4.610  64.826  1.00  0.00    -0.149 A  
HETATM   25  C   UNK A   0      -7.272   4.433  66.411  1.00  0.00    -0.076 A  
HETATM   26  H   UNK A   0      -9.468   0.798  64.647  1.00  0.00     0.000 HD 
HETATM   27  C   UNK A   0      -9.008   5.999  64.887  1.00  0.00     0.258 A  
HETATM   28  C   UNK A   0     -11.211   1.961  63.202  1.00  0.00    -0.240 C  
HETATM   29  N   UNK A   0     -10.033   3.969  64.007  1.00  0.00    -0.244 NA 
HETATM   30  N   UNK A   0      -9.343   1.808  64.696  1.00  0.00    -0.153 N  
HETATM   31  C   UNK A   0      -8.062   6.603  65.724  1.00  0.00    -0.122 A  
HETATM   32  C   UNK A   0      -8.343   2.356  65.476  1.00  0.00    -0.091 C  
HETATM   33  O   UNK A   0      -7.538   1.667  66.095  1.00  0.00    -0.060 OA 
HETATM   34  C   UNK A   0     -10.118   2.602  64.026  1.00  0.00    -0.111 C  
ENDBRANCH  21  22
ENDBRANCH   2  21
TORSDOF 7
ENDMDL
MODEL      309
REMARK 921   NORMALIZED FREE ENERGY PREDICTED BY IDOCK:   -3.30 KCAL/MOL
REMARK 922        TOTAL FREE ENERGY PREDICTED BY IDOCK:   -5.78 KCAL/MOL
REMARK 923 INTER-LIGAND FREE ENERGY PREDICTED BY IDOCK:   -4.01 KCAL/MOL
REMARK 924 INTRA-LIGAND FREE ENERGY PREDICTED BY IDOCK:   -1.77 KCAL/MOL
REMARK 927      BINDING AFFINITY PREDICTED BY RF-SCORE:    0.00 PKD
ROOT
HETATM    1  C   UNK A   0     -10.063   3.618  72.823  1.00  0.00    -0.159 C  
HETATM    2  N   UNK A   0      -9.178   4.442  72.006  1.00  0.00    -0.125 NA 
ENDROOT
BRANCH   2   3
HETATM    3  C   UNK A   0      -9.213   4.284  70.645  1.00  0.00    -0.124 A  
HETATM    4  C   UNK A   0      -8.700   3.631  68.455  1.00  0.00    -0.135 A  
HETATM    5  C   UNK A   0      -8.594   3.335  69.851  1.00  0.00    -0.108 A  
HETATM    6  S   UNK A   0     -10.143   5.341  69.665  1.00  0.00    -0.274 SA 
HETATM    7  C   UNK A   0      -9.451   4.765  68.220  1.00  0.00    -0.142 A  
BRANCH   7   8
HETATM    8  C   UNK A   0      -9.653   5.472  66.967  1.00  0.00    -0.137 C  
HETATM    9  O   UNK A   0     -10.643   5.324  66.259  1.00  0.00    -0.283 OA 
ATOM     10  N   GLU A   1      -8.610   6.306  66.589  1.00  0.00    -0.116 N  
ATOM     11  H   GLU A   1      -7.786   6.377  67.186  1.00  0.00     0.000 HD 
BRANCH  10  12
ATOM     12  CA  GLU A   1      -8.668   7.088  65.351  1.00  0.00     0.029 C  
ATOM     13  C   GLU A   1      -7.579   6.601  64.377  1.00  0.00    -0.103 C  
ATOM     14  O   GLU A   1      -6.520   6.014  64.988  1.00  0.00    -0.036 OA 
ATOM     15  OXT GLU A   1      -7.579   6.844  63.177  1.00  0.00    -0.083 OA 
BRANCH  12  16
ATOM     16  CB  GLU A   1      -8.469   8.573  65.677  1.00  0.00    -0.170 C  
BRANCH  16  17
ATOM     17  CG  GLU A   1      -9.777   9.364  65.644  1.00  0.00    -0.336 C  
ATOM     18  CD  GLU A   1     -10.385   9.513  67.014  1.00  0.00    -0.250 C  
ATOM     19  OE2 GLU A   1     -10.247   8.713  67.922  1.00  0.00    -0.197 OA 
ATOM     20  OE1 GLU A   1     -11.144  10.626  67.130  1.00  0.00    -0.282 OA 
ENDBRANCH  16  17
ENDBRANCH  12  16
ENDBRANCH  10  12
ENDBRANCH   7   8
ENDBRANCH   2   3
BRANCH   2  21
HETATM   21  C   UNK A   0      -7.851   4.719  72.591  1.00  0.00    -0.093 C  
BRANCH  21  22
HETATM   22  C   UNK A   0      -7.431   6.153  72.352  1.00  0.00    -0.094 A  
HETATM   23  C   UNK A   0      -6.444   7.860  70.931  1.00  0.00    -0.037 A  
HETATM   24  C   UNK A   0      -6.685   8.837  71.897  1.00  0.00    -0.051 A  
HETATM   25  C   UNK A   0      -6.810   6.528  71.151  1.00  0.00    -0.066 A  
HETATM   26  H   UNK A   0      -5.108   9.942  68.582  1.00  0.00     0.000 HD 
HETATM   27  C   UNK A   0      -7.277   8.467  73.104  1.00  0.00    -0.109 A  
HETATM   28  C   UNK A   0      -5.463  11.923  70.142  1.00  0.00    -0.115 C  
HETATM   29  N   UNK A   0      -6.298  10.151  71.636  1.00  0.00    -0.153 NA 
HETATM   30  N   UNK A   0      -5.512   9.624  69.463  1.00  0.00    -0.034 N  
HETATM   31  C   UNK A   0      -7.653   7.137  73.325  1.00  0.00    -0.092 A  
HETATM   32  C   UNK A   0      -5.795   8.288  69.664  1.00  0.00    -0.026 C  
HETATM   33  O   UNK A   0      -5.529   7.426  68.832  1.00  0.00    -0.020 OA 
HETATM   34  C   UNK A   0      -5.769  10.468  70.412  1.00  0.00    -0.087 C  
ENDBRANCH  21  22
ENDBRANCH   2  21
TORSDOF 7
ENDMDL
MODEL      310
REMARK 921   NORMALIZED FREE ENERGY PREDICTED BY IDOCK:   -3.29 KCAL/MOL
REMARK 922        TOTAL FREE ENERGY PREDICTED BY IDOCK:   -5.77 KCAL/MOL
REMARK 923 INTER-LIGAND FREE ENERGY PREDICTED BY IDOCK:   -6.64 KCAL/MOL
REMARK 924 INTRA-LIGAND FREE ENERGY PREDICTED BY IDOCK:    0.87 KCAL/MOL
REMARK 927      BINDING AFFINITY PREDICTED BY RF-SCORE:    0.00 PKD
ROOT
HETATM    1  C   UNK A   0     -10.563   9.069  68.953  1.00  0.00    -0.180 C  
HETATM    2  N   UNK A   0     -10.723  10.020  67.858  1.00  0.00    -0.255 NA 
ENDROOT
BRANCH   2   3
HETATM    3  C   UNK A   0      -9.606  10.654  67.378  1.00  0.00    -0.158 A  
HETATM    4  C   UNK A   0      -7.647  11.139  66.190  1.00  0.00    -0.032 A  
HETATM    5  C   UNK A   0      -8.870  10.396  66.236  1.00  0.00    -0.166 A  
HETATM    6  S   UNK A   0      -8.934  11.994  68.212  1.00  0.00    -0.165 SA 
HETATM    7  C   UNK A   0      -7.515  11.989  67.270  1.00  0.00    -0.158 A  
BRANCH   7   8
HETATM    8  C   UNK A   0      -6.362  12.780  67.662  1.00  0.00    -0.153 C  
HETATM    9  O   UNK A   0      -5.223  12.330  67.729  1.00  0.00    -0.062 OA 
ATOM     10  N   GLU A   1      -6.642  14.094  68.011  1.00  0.00    -0.134 N  
ATOM     11  H   GLU A   1      -7.607  14.424  67.977  1.00  0.00     0.000 HD 
BRANCH  10  12
ATOM     12  CA  GLU A   1      -5.583  15.017  68.427  1.00  0.00    -0.108 C  
ATOM     13  C   GLU A   1      -5.951  15.658  69.777  1.00  0.00    -0.151 C  
ATOM     14  O   GLU A   1      -7.285  15.697  70.019  1.00  0.00    -0.058 OA 
ATOM     15  OXT GLU A   1      -5.146  16.218  70.509  1.00  0.00    -0.165 OA 
BRANCH  12  16
ATOM     16  CB  GLU A   1      -5.399  16.097  67.354  1.00  0.00    -0.109 C  
BRANCH  16  17
ATOM     17  CG  GLU A   1      -6.728  16.649  66.840  1.00  0.00    -0.247 C  
ATOM     18  CD  GLU A   1      -6.604  18.074  66.366  1.00  0.00    -0.221 C  
ATOM     19  OE2 GLU A   1      -5.803  18.880  66.803  1.00  0.00    -0.161 OA 
ATOM     20  OE1 GLU A   1      -7.512  18.388  65.414  1.00  0.00    -0.494 OA 
ENDBRANCH  16  17
ENDBRANCH  12  16
ENDBRANCH  10  12
ENDBRANCH   7   8
ENDBRANCH   2   3
BRANCH   2  21
HETATM   21  C   UNK A   0     -11.960  10.826  67.893  1.00  0.00     0.487 C  
BRANCH  21  22
HETATM   22  C   UNK A   0     -11.672  12.291  67.648  1.00  0.00    -0.403 A  
HETATM   23  C   UNK A   0     -11.127  14.509  68.480  1.00  0.00    -0.271 A  
HETATM   24  C   UNK A   0     -11.098  15.015  67.180  1.00  0.00    -0.332 A  
HETATM   25  C   UNK A   0     -11.413  13.161  68.718  1.00  0.00    -0.348 A  
HETATM   26  H   UNK A   0     -10.251  17.405  70.055  1.00  0.00     0.000 HD 
HETATM   27  C   UNK A   0     -11.381  14.163  66.114  1.00  0.00    -0.337 A  
HETATM   28  C   UNK A   0     -10.090  18.577  67.802  1.00  0.00    -0.391 C  
HETATM   29  N   UNK A   0     -10.814  16.367  66.991  1.00  0.00    -0.214 NA 
HETATM   30  N   UNK A   0     -10.496  16.757  69.307  1.00  0.00    -0.328 N  
HETATM   31  C   UNK A   0     -11.658  12.811  66.347  1.00  0.00    -0.435 A  
HETATM   32  C   UNK A   0     -10.839  15.450  69.593  1.00  0.00    -0.283 C  
HETATM   33  O   UNK A   0     -10.916  15.026  70.743  1.00  0.00    -0.236 OA 
HETATM   34  C   UNK A   0     -10.491  17.145  68.071  1.00  0.00    -0.369 C  
ENDBRANCH  21  22
ENDBRANCH   2  21
TORSDOF 7
ENDMDL
MODEL      311
REMARK 921   NORMALIZED FREE ENERGY PREDICTED BY IDOCK:   -3.27 KCAL/MOL
REMARK 922        TOTAL FREE ENERGY PREDICTED BY IDOCK:   -5.74 KCAL/MOL
REMARK 923 INTER-LIGAND FREE ENERGY PREDICTED BY IDOCK:   -5.84 KCAL/MOL
REMARK 924 INTRA-LIGAND FREE ENERGY PREDICTED BY IDOCK:    0.10 KCAL/MOL
REMARK 927      BINDING AFFINITY PREDICTED BY RF-SCORE:    0.00 PKD
ROOT
HETATM    1  C   UNK A   0      -6.257  11.880  69.899  1.00  0.00    -0.139 C  
HETATM    2  N   UNK A   0      -7.141  11.879  68.738  1.00  0.00    -0.106 NA 
ENDROOT
BRANCH   2   3
HETATM    3  C   UNK A   0      -7.854  10.740  68.463  1.00  0.00    -0.122 A  
HETATM    4  C   UNK A   0      -9.593   9.185  68.263  1.00  0.00    -0.161 A  
HETATM    5  C   UNK A   0      -9.221  10.564  68.342  1.00  0.00    -0.154 A  
HETATM    6  S   UNK A   0      -7.051   9.250  68.188  1.00  0.00    -0.077 SA 
HETATM    7  C   UNK A   0      -8.494   8.349  68.263  1.00  0.00    -0.135 A  
BRANCH   7   8
HETATM    8  C   UNK A   0      -8.460   6.900  68.354  1.00  0.00    -0.123 C  
HETATM    9  O   UNK A   0      -7.540   6.216  67.919  1.00  0.00    -0.097 OA 
ATOM     10  N   GLU A   1      -9.581   6.322  68.932  1.00  0.00    -0.126 N  
ATOM     11  H   GLU A   1     -10.344   6.920  69.250  1.00  0.00     0.000 HD 
BRANCH  10  12
ATOM     12  CA  GLU A   1      -9.694   4.870  69.095  1.00  0.00    -0.182 C  
ATOM     13  C   GLU A   1      -9.308   4.475  70.532  1.00  0.00    -0.148 C  
ATOM     14  O   GLU A   1      -8.473   5.357  71.136  1.00  0.00    -0.121 OA 
ATOM     15  OXT GLU A   1      -9.594   3.402  71.045  1.00  0.00    -0.154 OA 
BRANCH  12  16
ATOM     16  CB  GLU A   1      -8.778   4.171  68.083  1.00  0.00    -0.117 C  
BRANCH  16  17
ATOM     17  CG  GLU A   1      -9.556   3.402  67.016  1.00  0.00    -0.117 C  
ATOM     18  CD  GLU A   1      -9.805   4.235  65.785  1.00  0.00    -0.223 C  
ATOM     19  OE2 GLU A   1      -9.916   5.447  65.783  1.00  0.00    -0.075 OA 
ATOM     20  OE1 GLU A   1      -9.932   3.486  64.666  1.00  0.00    -0.175 OA 
ENDBRANCH  16  17
ENDBRANCH  12  16
ENDBRANCH  10  12
ENDBRANCH   7   8
ENDBRANCH   2   3
BRANCH   2  21
HETATM   21  C   UNK A   0      -6.652  12.634  67.568  1.00  0.00    -0.156 C  
BRANCH  21  22
HETATM   22  C   UNK A   0      -7.169  14.056  67.573  1.00  0.00    -0.183 A  
HETATM   23  C   UNK A   0      -9.013  15.638  67.486  1.00  0.00    -0.199 A  
HETATM   24  C   UNK A   0      -8.130  16.710  67.622  1.00  0.00    -0.171 A  
HETATM   25  C   UNK A   0      -8.542  14.321  67.459  1.00  0.00    -0.203 A  
HETATM   26  H   UNK A   0     -11.881  17.485  67.452  1.00  0.00     0.000 HD 
HETATM   27  C   UNK A   0      -6.762  16.456  67.708  1.00  0.00    -0.156 A  
HETATM   28  C   UNK A   0     -10.510  19.611  67.730  1.00  0.00    -0.573 C  
HETATM   29  N   UNK A   0      -8.644  18.006  67.638  1.00  0.00    -0.244 NA 
HETATM   30  N   UNK A   0     -10.887  17.258  67.478  1.00  0.00    -0.269 N  
HETATM   31  C   UNK A   0      -6.288  15.139  67.691  1.00  0.00    -0.164 A  
HETATM   32  C   UNK A   0     -10.462  15.947  67.379  1.00  0.00    -0.306 C  
HETATM   33  O   UNK A   0     -11.240  15.014  67.204  1.00  0.00    -0.331 OA 
HETATM   34  C   UNK A   0     -10.001  18.194  67.605  1.00  0.00    -0.337 C  
ENDBRANCH  21  22
ENDBRANCH   2  21
TORSDOF 7
ENDMDL
MODEL      312
REMARK 921   NORMALIZED FREE ENERGY PREDICTED BY IDOCK:   -3.21 KCAL/MOL
REMARK 922        TOTAL FREE ENERGY PREDICTED BY IDOCK:   -5.65 KCAL/MOL
REMARK 923 INTER-LIGAND FREE ENERGY PREDICTED BY IDOCK:   -5.31 KCAL/MOL
REMARK 924 INTRA-LIGAND FREE ENERGY PREDICTED BY IDOCK:   -0.34 KCAL/MOL
REMARK 927      BINDING AFFINITY PREDICTED BY RF-SCORE:    0.00 PKD
ROOT
HETATM    1  C   UNK A   0     -10.516  10.943  64.334  1.00  0.00    -0.333 C  
HETATM    2  N   UNK A   0      -9.778  10.078  65.250  1.00  0.00    -0.288 NA 
ENDROOT
BRANCH   2   3
HETATM    3  C   UNK A   0      -9.909  10.295  66.597  1.00  0.00    -0.204 A  
HETATM    4  C   UNK A   0      -9.609  11.117  68.769  1.00  0.00    -0.180 A  
HETATM    5  C   UNK A   0      -9.468  11.358  67.365  1.00  0.00    -0.174 A  
HETATM    6  S   UNK A   0     -10.739   9.168  67.588  1.00  0.00    -0.102 SA 
HETATM    7  C   UNK A   0     -10.210   9.903  69.031  1.00  0.00    -0.200 A  
BRANCH   7   8
HETATM    8  C   UNK A   0     -10.383   9.236  70.310  1.00  0.00    -0.229 C  
HETATM    9  O   UNK A   0     -10.595   9.832  71.360  1.00  0.00    -0.233 OA 
ATOM     10  N   GLU A   1     -10.240   7.856  70.276  1.00  0.00    -0.197 N  
ATOM     11  H   GLU A   1     -10.029   7.398  69.390  1.00  0.00     0.000 HD 
BRANCH  10  12
ATOM     12  CA  GLU A   1     -10.388   7.043  71.486  1.00  0.00    -0.203 C  
ATOM     13  C   GLU A   1     -11.864   6.646  71.671  1.00  0.00    -0.336 C  
ATOM     14  O   GLU A   1     -12.738   7.501  71.084  1.00  0.00    -0.310 OA 
ATOM     15  OXT GLU A   1     -12.240   5.736  72.397  1.00  0.00    -0.207 OA 
BRANCH  12  16
ATOM     16  CB  GLU A   1      -9.893   7.840  72.699  1.00  0.00    -0.284 C  
BRANCH  16  17
ATOM     17  CG  GLU A   1      -8.570   7.310  73.252  1.00  0.00    -0.168 C  
ATOM     18  CD  GLU A   1      -7.415   8.226  72.939  1.00  0.00    -0.104 C  
ATOM     19  OE2 GLU A   1      -7.354   8.949  71.961  1.00  0.00    -0.301 OA 
ATOM     20  OE1 GLU A   1      -6.418   8.138  73.847  1.00  0.00    -0.103 OA 
ENDBRANCH  16  17
ENDBRANCH  12  16
ENDBRANCH  10  12
ENDBRANCH   7   8
ENDBRANCH   2   3
BRANCH   2  21
HETATM   21  C   UNK A   0      -8.440   9.661  64.788  1.00  0.00    -0.159 C  
BRANCH  21  22
HETATM   22  C   UNK A   0      -7.892   8.531  65.632  1.00  0.00    -0.102 A  
HETATM   23  C   UNK A   0      -7.860   6.183  66.260  1.00  0.00    -0.104 A  
HETATM   24  C   UNK A   0      -6.841   6.419  67.182  1.00  0.00    -0.066 A  
HETATM   25  C   UNK A   0      -8.387   7.225  65.491  1.00  0.00    -0.137 A  
HETATM   26  H   UNK A   0      -8.059   2.811  66.741  1.00  0.00     0.000 HD 
HETATM   27  C   UNK A   0      -6.363   7.718  67.348  1.00  0.00    -0.055 A  
HETATM   28  C   UNK A   0      -6.182   2.949  68.454  1.00  0.00    -0.029 C  
HETATM   29  N   UNK A   0      -6.350   5.350  67.932  1.00  0.00    -0.038 NA 
HETATM   30  N   UNK A   0      -7.762   3.780  66.855  1.00  0.00    -0.080 N  
HETATM   31  C   UNK A   0      -6.881   8.763  66.573  1.00  0.00    -0.072 A  
HETATM   32  C   UNK A   0      -8.357   4.788  66.123  1.00  0.00    -0.111 C  
HETATM   33  O   UNK A   0      -9.291   4.582  65.355  1.00  0.00    -0.148 OA 
HETATM   34  C   UNK A   0      -6.819   4.086  67.689  1.00  0.00    -0.051 C  
ENDBRANCH  21  22
ENDBRANCH   2  21
TORSDOF 7
ENDMDL
MODEL      313
REMARK 921   NORMALIZED FREE ENERGY PREDICTED BY IDOCK:   -3.16 KCAL/MOL
REMARK 922        TOTAL FREE ENERGY PREDICTED BY IDOCK:   -5.58 KCAL/MOL
REMARK 923 INTER-LIGAND FREE ENERGY PREDICTED BY IDOCK:   -4.86 KCAL/MOL
REMARK 924 INTRA-LIGAND FREE ENERGY PREDICTED BY IDOCK:   -0.72 KCAL/MOL
REMARK 927      BINDING AFFINITY PREDICTED BY RF-SCORE:    0.00 PKD
ROOT
HETATM    1  C   UNK A   0     -12.651  10.760  69.726  1.00  0.00    -0.058 C  
HETATM    2  N   UNK A   0     -11.311  10.475  69.224  1.00  0.00    -0.254 NA 
ENDROOT
BRANCH   2   3
HETATM    3  C   UNK A   0     -10.636   9.400  69.742  1.00  0.00    -0.231 A  
HETATM    4  C   UNK A   0      -9.341   8.032  71.133  1.00  0.00    -0.176 A  
HETATM    5  C   UNK A   0     -10.194   9.177  71.034  1.00  0.00    -0.372 A  
HETATM    6  S   UNK A   0     -10.239   8.057  68.753  1.00  0.00    -0.204 SA 
HETATM    7  C   UNK A   0      -9.207   7.377  69.925  1.00  0.00    -0.144 A  
BRANCH   7   8
HETATM    8  C   UNK A   0      -8.315   6.283  69.584  1.00  0.00    -0.125 C  
HETATM    9  O   UNK A   0      -7.352   5.957  70.269  1.00  0.00    -0.075 OA 
ATOM     10  N   GLU A   1      -8.598   5.648  68.383  1.00  0.00    -0.111 N  
ATOM     11  H   GLU A   1      -9.387   5.970  67.822  1.00  0.00     0.000 HD 
BRANCH  10  12
ATOM     12  CA  GLU A   1      -7.788   4.525  67.903  1.00  0.00    -0.081 C  
ATOM     13  C   GLU A   1      -6.801   5.016  66.828  1.00  0.00    -0.063 C  
ATOM     14  O   GLU A   1      -7.211   6.134  66.179  1.00  0.00    -0.072 OA 
ATOM     15  OXT GLU A   1      -5.812   4.389  66.474  1.00  0.00    -0.024 OA 
BRANCH  12  16
ATOM     16  CB  GLU A   1      -8.710   3.442  67.330  1.00  0.00    -0.133 C  
BRANCH  16  17
ATOM     17  CG  GLU A   1      -9.640   2.841  68.384  1.00  0.00    -0.105 C  
ATOM     18  CD  GLU A   1      -8.988   2.770  69.741  1.00  0.00    -0.104 C  
ATOM     19  OE2 GLU A   1      -7.791   2.648  69.927  1.00  0.00    -0.043 OA 
ATOM     20  OE1 GLU A   1      -9.884   2.821  70.753  1.00  0.00    -0.103 OA 
ENDBRANCH  16  17
ENDBRANCH  12  16
ENDBRANCH  10  12
ENDBRANCH   7   8
ENDBRANCH   2   3
BRANCH   2  21
HETATM   21  C   UNK A   0     -10.491  11.659  68.900  1.00  0.00    -0.175 C  
BRANCH  21  22
HETATM   22  C   UNK A   0      -9.485  11.352  67.811  1.00  0.00    -0.167 A  
HETATM   23  C   UNK A   0      -8.954  10.956  65.472  1.00  0.00    -0.213 A  
HETATM   24  C   UNK A   0      -7.600  10.818  65.779  1.00  0.00    -0.079 A  
HETATM   25  C   UNK A   0      -9.893  11.218  66.474  1.00  0.00    -0.239 A  
HETATM   26  H   UNK A   0      -8.638  10.576  62.097  1.00  0.00     0.000 HD 
HETATM   27  C   UNK A   0      -7.191  10.922  67.108  1.00  0.00    -0.104 A  
HETATM   28  C   UNK A   0      -6.119  10.322  62.365  1.00  0.00    -0.123 C  
HETATM   29  N   UNK A   0      -6.700  10.550  64.748  1.00  0.00    -0.338 NA 
HETATM   30  N   UNK A   0      -8.386  10.627  63.083  1.00  0.00    -0.285 N  
HETATM   31  C   UNK A   0      -8.127  11.195  68.113  1.00  0.00    -0.128 A  
HETATM   32  C   UNK A   0      -9.355  10.820  64.048  1.00  0.00    -0.252 C  
HETATM   33  O   UNK A   0     -10.551  10.884  63.776  1.00  0.00    -0.341 OA 
HETATM   34  C   UNK A   0      -7.150  10.511  63.454  1.00  0.00     0.059 C  
ENDBRANCH  21  22
ENDBRANCH   2  21
TORSDOF 7
ENDMDL
MODEL      314
REMARK 921   NORMALIZED FREE ENERGY PREDICTED BY IDOCK:   -3.14 KCAL/MOL
REMARK 922        TOTAL FREE ENERGY PREDICTED BY IDOCK:   -5.55 KCAL/MOL
REMARK 923 INTER-LIGAND FREE ENERGY PREDICTED BY IDOCK:   -6.10 KCAL/MOL
REMARK 924 INTRA-LIGAND FREE ENERGY PREDICTED BY IDOCK:    0.55 KCAL/MOL
REMARK 927      BINDING AFFINITY PREDICTED BY RF-SCORE:    0.00 PKD
ROOT
HETATM    1  C   UNK A   0     -14.020   7.947  71.743  1.00  0.00    -0.399 C  
HETATM    2  N   UNK A   0     -13.087   8.979  71.303  1.00  0.00    -0.496 NA 
ENDROOT
BRANCH   2   3
HETATM    3  C   UNK A   0     -11.876   8.588  70.793  1.00  0.00    -0.163 A  
HETATM    4  C   UNK A   0      -9.596   8.492  70.268  1.00  0.00    -0.177 A  
HETATM    5  C   UNK A   0     -10.598   8.943  71.185  1.00  0.00    -0.335 A  
HETATM    6  S   UNK A   0     -11.795   7.480  69.486  1.00  0.00     0.928 SA 
HETATM    7  C   UNK A   0     -10.132   7.753  69.233  1.00  0.00    -0.199 A  
BRANCH   7   8
HETATM    8  C   UNK A   0      -9.474   7.264  68.035  1.00  0.00    -0.136 C  
HETATM    9  O   UNK A   0      -9.339   7.932  67.016  1.00  0.00    -0.145 OA 
ATOM     10  N   GLU A   1      -9.040   5.947  68.100  1.00  0.00    -0.118 N  
ATOM     11  H   GLU A   1      -9.201   5.410  68.952  1.00  0.00     0.000 HD 
BRANCH  10  12
ATOM     12  CA  GLU A   1      -8.355   5.312  66.971  1.00  0.00    -0.107 C  
ATOM     13  C   GLU A   1      -9.229   4.178  66.403  1.00  0.00    -0.157 C  
ATOM     14  O   GLU A   1     -10.097   3.653  67.303  1.00  0.00     0.112 OA 
ATOM     15  OXT GLU A   1      -9.070   3.683  65.296  1.00  0.00    -0.132 OA 
BRANCH  12  16
ATOM     16  CB  GLU A   1      -7.003   4.762  67.440  1.00  0.00    -0.061 C  
BRANCH  16  17
ATOM     17  CG  GLU A   1      -6.734   5.042  68.918  1.00  0.00    -0.050 C  
ATOM     18  CD  GLU A   1      -6.726   3.780  69.742  1.00  0.00    -0.034 C  
ATOM     19  OE2 GLU A   1      -7.366   2.779  69.477  1.00  0.00    -0.044 OA 
ATOM     20  OE1 GLU A   1      -5.951   3.883  70.846  1.00  0.00    -0.013 OA 
ENDBRANCH  16  17
ENDBRANCH  12  16
ENDBRANCH  10  12
ENDBRANCH   7   8
ENDBRANCH   2   3
BRANCH   2  21
HETATM   21  C   UNK A   0     -13.079  10.214  72.113  1.00  0.00    -0.364 C  
BRANCH  21  22
HETATM   22  C   UNK A   0     -12.668  11.413  71.286  1.00  0.00    -0.498 A  
HETATM   23  C   UNK A   0     -12.613  13.816  70.927  1.00  0.00    -0.428 A  
HETATM   24  C   UNK A   0     -11.865  13.648  69.761  1.00  0.00    -0.327 A  
HETATM   25  C   UNK A   0     -13.015  12.713  71.686  1.00  0.00    -0.400 A  
HETATM   26  H   UNK A   0     -12.669  17.227  70.877  1.00  0.00     0.000 HD 
HETATM   27  C   UNK A   0     -11.540  12.359  69.343  1.00  0.00    -0.371 A  
HETATM   28  C   UNK A   0     -11.273  17.215  68.748  1.00  0.00     0.162 C  
HETATM   29  N   UNK A   0     -11.491  14.778  69.034  1.00  0.00    -0.277 NA 
HETATM   30  N   UNK A   0     -12.481  16.267  70.589  1.00  0.00    -0.360 N  
HETATM   31  C   UNK A   0     -11.933  11.252  70.105  1.00  0.00    -0.452 A  
HETATM   32  C   UNK A   0     -12.957  15.205  71.332  1.00  0.00    -0.403 C  
HETATM   33  O   UNK A   0     -13.661  15.358  72.326  1.00  0.00    -0.416 OA 
HETATM   34  C   UNK A   0     -11.792  16.023  69.519  1.00  0.00    -0.237 C  
ENDBRANCH  21  22
ENDBRANCH   2  21
TORSDOF 7
ENDMDL
MODEL      315
REMARK 921   NORMALIZED FREE ENERGY PREDICTED BY IDOCK:   -3.13 KCAL/MOL
REMARK 922        TOTAL FREE ENERGY PREDICTED BY IDOCK:   -5.54 KCAL/MOL
REMARK 923 INTER-LIGAND FREE ENERGY PREDICTED BY IDOCK:   -4.96 KCAL/MOL
REMARK 924 INTRA-LIGAND FREE ENERGY PREDICTED BY IDOCK:   -0.57 KCAL/MOL
REMARK 927      BINDING AFFINITY PREDICTED BY RF-SCORE:    0.00 PKD
ROOT
HETATM    1  C   UNK A   0      -6.002  11.368  67.636  1.00  0.00    -0.054 C  
HETATM    2  N   UNK A   0      -6.190  11.633  69.059  1.00  0.00    -0.060 NA 
ENDROOT
BRANCH   2   3
HETATM    3  C   UNK A   0      -6.531  10.587  69.876  1.00  0.00    -0.116 A  
HETATM    4  C   UNK A   0      -6.412   8.731  71.300  1.00  0.00    -0.071 A  
HETATM    5  C   UNK A   0      -5.759   9.901  70.796  1.00  0.00    -0.080 A  
HETATM    6  S   UNK A   0      -8.125   9.954  69.870  1.00  0.00    -0.173 SA 
HETATM    7  C   UNK A   0      -7.690   8.592  70.796  1.00  0.00    -0.087 A  
BRANCH   7   8
HETATM    8  C   UNK A   0      -8.601   7.470  70.939  1.00  0.00    -0.130 C  
HETATM    9  O   UNK A   0      -9.555   7.468  71.709  1.00  0.00    -0.151 OA 
ATOM     10  N   GLU A   1      -8.290   6.359  70.168  1.00  0.00    -0.132 N  
ATOM     11  H   GLU A   1      -7.467   6.385  69.565  1.00  0.00     0.000 HD 
BRANCH  10  12
ATOM     12  CA  GLU A   1      -9.116   5.149  70.202  1.00  0.00    -0.128 C  
ATOM     13  C   GLU A   1      -8.302   3.978  70.782  1.00  0.00    -0.070 C  
ATOM     14  O   GLU A   1      -6.962   4.113  70.626  1.00  0.00    -0.032 OA 
ATOM     15  OXT GLU A   1      -8.801   2.947  71.212  1.00  0.00    -0.070 OA 
BRANCH  12  16
ATOM     16  CB  GLU A   1      -9.593   4.819  68.783  1.00  0.00    -0.227 C  
BRANCH  16  17
ATOM     17  CG  GLU A   1      -8.617   5.295  67.708  1.00  0.00    -0.104 C  
ATOM     18  CD  GLU A   1      -9.293   6.152  66.668  1.00  0.00    -0.146 C  
ATOM     19  OE2 GLU A   1     -10.463   6.054  66.347  1.00  0.00    -0.167 OA 
ATOM     20  OE1 GLU A   1      -8.446   7.033  66.088  1.00  0.00    -0.123 OA 
ENDBRANCH  16  17
ENDBRANCH  12  16
ENDBRANCH  10  12
ENDBRANCH   7   8
ENDBRANCH   2   3
BRANCH   2  21
HETATM   21  C   UNK A   0      -6.803  12.936  69.385  1.00  0.00     0.040 C  
BRANCH  21  22
HETATM   22  C   UNK A   0      -7.729  13.402  68.283  1.00  0.00    -0.141 A  
HETATM   23  C   UNK A   0      -9.714  13.091  66.916  1.00  0.00    -0.238 A  
HETATM   24  C   UNK A   0      -9.475  14.295  66.253  1.00  0.00    -0.252 A  
HETATM   25  C   UNK A   0      -8.853  12.642  67.921  1.00  0.00    -0.182 A  
HETATM   26  H   UNK A   0     -12.630  12.329  65.316  1.00  0.00     0.000 HD 
HETATM   27  C   UNK A   0      -8.346  15.041  66.588  1.00  0.00    -0.115 A  
HETATM   28  C   UNK A   0     -12.458  14.490  63.982  1.00  0.00    -0.096 C  
HETATM   29  N   UNK A   0     -10.359  14.700  65.252  1.00  0.00    -0.376 NA 
HETATM   30  N   UNK A   0     -11.777  12.827  65.568  1.00  0.00    -0.372 N  
HETATM   31  C   UNK A   0      -7.485  14.600  67.600  1.00  0.00    -0.205 A  
HETATM   32  C   UNK A   0     -10.917  12.313  66.519  1.00  0.00    -0.279 C  
HETATM   33  O   UNK A   0     -11.105  11.226  67.058  1.00  0.00    -0.286 OA 
HETATM   34  C   UNK A   0     -11.480  13.954  65.002  1.00  0.00    -0.339 C  
ENDBRANCH  21  22
ENDBRANCH   2  21
TORSDOF 7
ENDMDL
MODEL      316
REMARK 921   NORMALIZED FREE ENERGY PREDICTED BY IDOCK:   -3.11 KCAL/MOL
REMARK 922        TOTAL FREE ENERGY PREDICTED BY IDOCK:   -5.51 KCAL/MOL
REMARK 923 INTER-LIGAND FREE ENERGY PREDICTED BY IDOCK:   -6.07 KCAL/MOL
REMARK 924 INTRA-LIGAND FREE ENERGY PREDICTED BY IDOCK:    0.56 KCAL/MOL
REMARK 927      BINDING AFFINITY PREDICTED BY RF-SCORE:    0.00 PKD
ROOT
HETATM    1  C   UNK A   0      -8.192  12.988  68.112  1.00  0.00    -0.157 C  
HETATM    2  N   UNK A   0      -9.160  11.974  67.704  1.00  0.00    -0.173 NA 
ENDROOT
BRANCH   2   3
HETATM    3  C   UNK A   0      -8.733  10.678  67.582  1.00  0.00    -0.121 A  
HETATM    4  C   UNK A   0      -8.550   8.435  66.933  1.00  0.00    -0.129 A  
HETATM    5  C   UNK A   0      -9.008   9.748  66.596  1.00  0.00    -0.161 A  
HETATM    6  S   UNK A   0      -7.680   9.991  68.749  1.00  0.00    -0.090 SA 
HETATM    7  C   UNK A   0      -7.882   8.412  68.142  1.00  0.00    -0.111 A  
BRANCH   7   8
HETATM    8  C   UNK A   0      -7.414   7.262  68.894  1.00  0.00    -0.101 C  
HETATM    9  O   UNK A   0      -6.454   7.297  69.656  1.00  0.00    -0.034 OA 
ATOM     10  N   GLU A   1      -8.105   6.083  68.655  1.00  0.00    -0.106 N  
ATOM     11  H   GLU A   1      -8.877   6.083  67.987  1.00  0.00     0.000 HD 
BRANCH  10  12
ATOM     12  CA  GLU A   1      -7.751   4.837  69.341  1.00  0.00    -0.063 C  
ATOM     13  C   GLU A   1      -6.339   4.393  68.918  1.00  0.00    -0.032 C  
ATOM     14  O   GLU A   1      -5.961   4.854  67.700  1.00  0.00    -0.021 OA 
ATOM     15  OXT GLU A   1      -5.665   3.581  69.538  1.00  0.00    -0.016 OA 
BRANCH  12  16
ATOM     16  CB  GLU A   1      -8.780   3.754  68.992  1.00  0.00    -0.133 C  
BRANCH  16  17
ATOM     17  CG  GLU A   1      -9.025   3.638  67.487  1.00  0.00    -0.164 C  
ATOM     18  CD  GLU A   1      -8.501   2.341  66.926  1.00  0.00    -0.097 C  
ATOM     19  OE2 GLU A   1      -7.555   1.725  67.380  1.00  0.00    -0.058 OA 
ATOM     20  OE1 GLU A   1      -9.176   1.940  65.824  1.00  0.00    -0.092 OA 
ENDBRANCH  16  17
ENDBRANCH  12  16
ENDBRANCH  10  12
ENDBRANCH   7   8
ENDBRANCH   2   3
BRANCH   2  21
HETATM   21  C   UNK A   0     -10.167  12.419  66.720  1.00  0.00    -0.219 C  
BRANCH  21  22
HETATM   22  C   UNK A   0     -10.228  13.929  66.638  1.00  0.00    -0.276 A  
HETATM   23  C   UNK A   0     -10.419  16.101  67.713  1.00  0.00    -0.295 A  
HETATM   24  C   UNK A   0     -10.304  16.746  66.482  1.00  0.00    -0.301 A  
HETATM   25  C   UNK A   0     -10.385  14.705  67.796  1.00  0.00    -0.237 A  
HETATM   26  H   UNK A   0     -10.593  18.920  69.627  1.00  0.00     0.000 HD 
HETATM   27  C   UNK A   0     -10.177  15.981  65.323  1.00  0.00    -0.245 A  
HETATM   28  C   UNK A   0     -10.365  20.350  67.534  1.00  0.00    -0.333 C  
HETATM   29  N   UNK A   0     -10.350  18.140  66.446  1.00  0.00    -0.394 NA 
HETATM   30  N   UNK A   0     -10.535  18.323  68.802  1.00  0.00    -0.402 N  
HETATM   31  C   UNK A   0     -10.132  14.585  65.403  1.00  0.00    -0.394 A  
HETATM   32  C   UNK A   0     -10.573  16.948  68.924  1.00  0.00    -0.353 C  
HETATM   33  O   UNK A   0     -10.730  16.387  70.005  1.00  0.00    -0.319 OA 
HETATM   34  C   UNK A   0     -10.423  18.842  67.620  1.00  0.00    -0.443 C  
ENDBRANCH  21  22
ENDBRANCH   2  21
TORSDOF 7
ENDMDL
MODEL      317
REMARK 921   NORMALIZED FREE ENERGY PREDICTED BY IDOCK:   -2.97 KCAL/MOL
REMARK 922        TOTAL FREE ENERGY PREDICTED BY IDOCK:   -5.32 KCAL/MOL
REMARK 923 INTER-LIGAND FREE ENERGY PREDICTED BY IDOCK:   -4.93 KCAL/MOL
REMARK 924 INTRA-LIGAND FREE ENERGY PREDICTED BY IDOCK:   -0.39 KCAL/MOL
REMARK 927      BINDING AFFINITY PREDICTED BY RF-SCORE:    0.00 PKD
ROOT
HETATM    1  C   UNK A   0     -10.612   7.801  67.551  1.00  0.00    -0.248 C  
HETATM    2  N   UNK A   0     -10.921   8.587  68.743  1.00  0.00    -0.433 NA 
ENDROOT
BRANCH   2   3
HETATM    3  C   UNK A   0     -10.659   9.932  68.721  1.00  0.00    -0.222 A  
HETATM    4  C   UNK A   0     -10.891  12.252  68.503  1.00  0.00    -0.267 A  
HETATM    5  C   UNK A   0     -11.536  11.001  68.762  1.00  0.00    -0.386 A  
HETATM    6  S   UNK A   0      -9.045  10.508  68.657  1.00  0.00    -0.165 SA 
HETATM    7  C   UNK A   0      -9.529  12.109  68.334  1.00  0.00    -0.179 A  
BRANCH   7   8
HETATM    8  C   UNK A   0      -8.562  13.104  67.904  1.00  0.00    -0.185 C  
HETATM    9  O   UNK A   0      -7.983  13.063  66.823  1.00  0.00     0.030 OA 
ATOM     10  N   GLU A   1      -8.291  14.098  68.833  1.00  0.00    -0.326 N  
ATOM     11  H   GLU A   1      -8.765  14.080  69.736  1.00  0.00     0.000 HD 
BRANCH  10  12
ATOM     12  CA  GLU A   1      -7.338  15.174  68.545  1.00  0.00    -0.119 C  
ATOM     13  C   GLU A   1      -6.215  15.171  69.598  1.00  0.00    -0.135 C  
ATOM     14  O   GLU A   1      -6.579  14.625  70.785  1.00  0.00    -0.050 OA 
ATOM     15  OXT GLU A   1      -5.140  15.736  69.450  1.00  0.00    -0.101 OA 
BRANCH  12  16
ATOM     16  CB  GLU A   1      -8.073  16.519  68.550  1.00  0.00    -0.218 C  
BRANCH  16  17
ATOM     17  CG  GLU A   1      -9.573  16.370  68.806  1.00  0.00    -0.249 C  
ATOM     18  CD  GLU A   1     -10.348  17.584  68.360  1.00  0.00    -0.378 C  
ATOM     19  OE2 GLU A   1      -9.902  18.716  68.334  1.00  0.00    -0.343 OA 
ATOM     20  OE1 GLU A   1     -11.623  17.292  68.019  1.00  0.00     0.269 OA 
ENDBRANCH  16  17
ENDBRANCH  12  16
ENDBRANCH  10  12
ENDBRANCH   7   8
ENDBRANCH   2   3
BRANCH   2  21
HETATM   21  C   UNK A   0     -10.691   7.902  70.030  1.00  0.00    -0.244 C  
BRANCH  21  22
HETATM   22  C   UNK A   0      -9.972   6.585  69.834  1.00  0.00    -0.191 A  
HETATM   23  C   UNK A   0      -7.914   5.300  69.681  1.00  0.00    -0.084 A  
HETATM   24  C   UNK A   0      -8.637   4.120  69.506  1.00  0.00    -0.072 A  
HETATM   25  C   UNK A   0      -8.570   6.524  69.842  1.00  0.00    -0.139 A  
HETATM   26  H   UNK A   0      -4.814   3.876  69.655  1.00  0.00     0.000 HD 
HETATM   27  C   UNK A   0     -10.030   4.176  69.469  1.00  0.00    -0.058 A  
HETATM   28  C   UNK A   0      -5.875   1.581  69.362  1.00  0.00    -0.022 C  
HETATM   29  N   UNK A   0      -7.941   2.922  69.343  1.00  0.00    -0.045 NA 
HETATM   30  N   UNK A   0      -5.828   3.966  69.600  1.00  0.00    -0.018 N  
HETATM   31  C   UNK A   0     -10.690   5.398  69.639  1.00  0.00    -0.267 A  
HETATM   32  C   UNK A   0      -6.431   5.204  69.696  1.00  0.00    -0.038 C  
HETATM   33  O   UNK A   0      -5.787   6.245  69.795  1.00  0.00    -0.016 OA 
HETATM   34  C   UNK A   0      -6.575   2.918  69.441  1.00  0.00    -0.033 C  
ENDBRANCH  21  22
ENDBRANCH   2  21
TORSDOF 7
ENDMDL
MODEL      318
REMARK 921   NORMALIZED FREE ENERGY PREDICTED BY IDOCK:   -2.97 KCAL/MOL
REMARK 922        TOTAL FREE ENERGY PREDICTED BY IDOCK:   -5.31 KCAL/MOL
REMARK 923 INTER-LIGAND FREE ENERGY PREDICTED BY IDOCK:   -4.15 KCAL/MOL
REMARK 924 INTRA-LIGAND FREE ENERGY PREDICTED BY IDOCK:   -1.16 KCAL/MOL
REMARK 927      BINDING AFFINITY PREDICTED BY RF-SCORE:    0.00 PKD
ROOT
HETATM    1  C   UNK A   0     -10.129  12.614  68.623  1.00  0.00    -0.122 C  
HETATM    2  N   UNK A   0      -9.038  11.738  68.206  1.00  0.00    -0.184 NA 
ENDROOT
BRANCH   2   3
HETATM    3  C   UNK A   0      -8.249  11.175  69.175  1.00  0.00     0.000 A  
HETATM    4  C   UNK A   0      -6.406  10.582  70.494  1.00  0.00    -0.090 A  
HETATM    5  C   UNK A   0      -6.992  11.549  69.616  1.00  0.00     0.016 A  
HETATM    6  S   UNK A   0      -8.792   9.810  70.061  1.00  0.00    -0.172 SA 
HETATM    7  C   UNK A   0      -7.258   9.526  70.747  1.00  0.00    -0.091 A  
BRANCH   7   8
HETATM    8  C   UNK A   0      -6.978   8.286  71.449  1.00  0.00    -0.065 C  
HETATM    9  O   UNK A   0      -5.938   8.078  72.066  1.00  0.00    -0.039 OA 
ATOM     10  N   GLU A   1      -7.960   7.313  71.336  1.00  0.00    -0.096 N  
ATOM     11  H   GLU A   1      -8.796   7.509  70.785  1.00  0.00     0.000 HD 
BRANCH  10  12
ATOM     12  CA  GLU A   1      -7.822   6.008  71.990  1.00  0.00    -0.106 C  
ATOM     13  C   GLU A   1      -6.931   5.088  71.135  1.00  0.00    -0.048 C  
ATOM     14  O   GLU A   1      -6.922   5.406  69.817  1.00  0.00    -0.057 OA 
ATOM     15  OXT GLU A   1      -6.395   4.073  71.558  1.00  0.00    -0.014 OA 
BRANCH  12  16
ATOM     16  CB  GLU A   1      -9.209   5.385  72.180  1.00  0.00    -0.157 C  
BRANCH  16  17
ATOM     17  CG  GLU A   1      -9.819   4.894  70.868  1.00  0.00    -0.277 C  
ATOM     18  CD  GLU A   1     -10.947   5.778  70.400  1.00  0.00    -0.262 C  
ATOM     19  OE2 GLU A   1     -11.670   6.422  71.137  1.00  0.00    -0.325 OA 
ATOM     20  OE1 GLU A   1     -11.104   5.756  69.057  1.00  0.00    -0.285 OA 
ENDBRANCH  16  17
ENDBRANCH  12  16
ENDBRANCH  10  12
ENDBRANCH   7   8
ENDBRANCH   2   3
BRANCH   2  21
HETATM   21  C   UNK A   0      -8.352  12.131  66.960  1.00  0.00    -0.173 C  
BRANCH  21  22
HETATM   22  C   UNK A   0      -8.354  11.003  65.950  1.00  0.00    -0.119 A  
HETATM   23  C   UNK A   0      -7.341   9.004  65.009  1.00  0.00    -0.096 A  
HETATM   24  C   UNK A   0      -8.383   8.881  64.090  1.00  0.00    -0.163 A  
HETATM   25  C   UNK A   0      -7.320  10.054  65.932  1.00  0.00    -0.115 A  
HETATM   26  H   UNK A   0      -5.656   6.186  64.083  1.00  0.00     0.000 HD 
HETATM   27  C   UNK A   0      -9.399   9.835  64.084  1.00  0.00    -0.237 A  
HETATM   28  C   UNK A   0      -7.441   5.698  62.335  1.00  0.00    -0.053 C  
HETATM   29  N   UNK A   0      -8.359   7.820  63.184  1.00  0.00    -0.374 NA 
HETATM   30  N   UNK A   0      -6.361   6.922  64.090  1.00  0.00    -0.035 N  
HETATM   31  C   UNK A   0      -9.387  10.882  65.012  1.00  0.00    -0.260 A  
HETATM   32  C   UNK A   0      -6.265   7.979  64.974  1.00  0.00    -0.045 C  
HETATM   33  O   UNK A   0      -5.316   8.111  65.742  1.00  0.00    -0.028 OA 
HETATM   34  C   UNK A   0      -7.364   6.883  63.270  1.00  0.00    -0.080 C  
ENDBRANCH  21  22
ENDBRANCH   2  21
TORSDOF 7
ENDMDL
MODEL      319
REMARK 921   NORMALIZED FREE ENERGY PREDICTED BY IDOCK:   -2.89 KCAL/MOL
REMARK 922        TOTAL FREE ENERGY PREDICTED BY IDOCK:   -5.20 KCAL/MOL
REMARK 923 INTER-LIGAND FREE ENERGY PREDICTED BY IDOCK:   -4.76 KCAL/MOL
REMARK 924 INTRA-LIGAND FREE ENERGY PREDICTED BY IDOCK:   -0.44 KCAL/MOL
REMARK 927      BINDING AFFINITY PREDICTED BY RF-SCORE:    0.00 PKD
ROOT
HETATM    1  C   UNK A   0      -7.456  11.165  69.526  1.00  0.00     0.025 C  
HETATM    2  N   UNK A   0      -8.266  10.035  69.970  1.00  0.00    -0.298 NA 
ENDROOT
BRANCH   2   3
HETATM    3  C   UNK A   0      -7.715   8.781  69.925  1.00  0.00    -0.081 A  
HETATM    4  C   UNK A   0      -6.213   7.007  69.634  1.00  0.00    -0.034 A  
HETATM    5  C   UNK A   0      -6.384   8.404  69.895  1.00  0.00    -0.035 A  
HETATM    6  S   UNK A   0      -8.712   7.386  69.922  1.00  0.00    -0.141 SA 
HETATM    7  C   UNK A   0      -7.421   6.346  69.533  1.00  0.00    -0.093 A  
BRANCH   7   8
HETATM    8  C   UNK A   0      -7.669   4.975  69.124  1.00  0.00    -0.076 C  
HETATM    9  O   UNK A   0      -7.510   4.009  69.863  1.00  0.00    -0.048 OA 
ATOM     10  N   GLU A   1      -8.059   4.819  67.802  1.00  0.00    -0.093 N  
ATOM     11  H   GLU A   1      -8.146   5.643  67.207  1.00  0.00     0.000 HD 
BRANCH  10  12
ATOM     12  CA  GLU A   1      -8.348   3.496  67.241  1.00  0.00    -0.091 C  
ATOM     13  C   GLU A   1      -7.221   3.081  66.277  1.00  0.00    -0.066 C  
ATOM     14  O   GLU A   1      -6.549   4.128  65.737  1.00  0.00    -0.042 OA 
ATOM     15  OXT GLU A   1      -7.030   1.931  65.906  1.00  0.00    -0.038 OA 
BRANCH  12  16
ATOM     16  CB  GLU A   1      -9.692   3.537  66.506  1.00  0.00    -0.043 C  
BRANCH  16  17
ATOM     17  CG  GLU A   1      -9.979   4.901  65.878  1.00  0.00    -0.222 C  
ATOM     18  CD  GLU A   1     -10.497   5.893  66.888  1.00  0.00    -0.286 C  
ATOM     19  OE2 GLU A   1     -11.136   5.597  67.881  1.00  0.00    -0.082 OA 
ATOM     20  OE1 GLU A   1     -10.208   7.172  66.558  1.00  0.00    -0.173 OA 
ENDBRANCH  16  17
ENDBRANCH  12  16
ENDBRANCH  10  12
ENDBRANCH   7   8
ENDBRANCH   2   3
BRANCH   2  21
HETATM   21  C   UNK A   0      -9.705  10.121  69.648  1.00  0.00    -0.221 C  
BRANCH  21  22
HETATM   22  C   UNK A   0      -9.979  11.213  68.636  1.00  0.00    -0.210 A  
HETATM   23  C   UNK A   0     -10.470  13.534  68.109  1.00  0.00    -0.249 A  
HETATM   24  C   UNK A   0     -10.453  13.251  66.743  1.00  0.00    -0.270 A  
HETATM   25  C   UNK A   0     -10.238  12.528  69.052  1.00  0.00     0.096 A  
HETATM   26  H   UNK A   0     -11.032  16.886  67.815  1.00  0.00     0.000 HD 
HETATM   27  C   UNK A   0     -10.224  11.941  66.323  1.00  0.00    -0.247 A  
HETATM   28  C   UNK A   0     -11.017  16.662  65.279  1.00  0.00    -0.127 C  
HETATM   29  N   UNK A   0     -10.696  14.285  65.838  1.00  0.00    -0.296 NA 
HETATM   30  N   UNK A   0     -10.894  15.911  67.552  1.00  0.00    -0.318 N  
HETATM   31  C   UNK A   0      -9.982  10.933  67.264  1.00  0.00    -0.216 A  
HETATM   32  C   UNK A   0     -10.736  14.937  68.519  1.00  0.00    -0.245 C  
HETATM   33  O   UNK A   0     -10.808  15.184  69.719  1.00  0.00    -0.261 OA 
HETATM   34  C   UNK A   0     -10.862  15.563  66.304  1.00  0.00    -0.283 C  
ENDBRANCH  21  22
ENDBRANCH   2  21
TORSDOF 7
ENDMDL
MODEL      320
REMARK 921   NORMALIZED FREE ENERGY PREDICTED BY IDOCK:   -2.89 KCAL/MOL
REMARK 922        TOTAL FREE ENERGY PREDICTED BY IDOCK:   -5.20 KCAL/MOL
REMARK 923 INTER-LIGAND FREE ENERGY PREDICTED BY IDOCK:   -3.79 KCAL/MOL
REMARK 924 INTRA-LIGAND FREE ENERGY PREDICTED BY IDOCK:   -1.41 KCAL/MOL
REMARK 927      BINDING AFFINITY PREDICTED BY RF-SCORE:    0.00 PKD
ROOT
HETATM    1  C   UNK A   0      -9.862  10.488  64.084  1.00  0.00    -0.337 C  
HETATM    2  N   UNK A   0      -8.858   9.692  64.783  1.00  0.00    -0.194 NA 
ENDROOT
BRANCH   2   3
HETATM    3  C   UNK A   0      -8.486  10.075  66.045  1.00  0.00    -0.131 A  
HETATM    4  C   UNK A   0      -7.353  11.068  67.838  1.00  0.00    -0.092 A  
HETATM    5  C   UNK A   0      -7.679  11.124  66.445  1.00  0.00    -0.124 A  
HETATM    6  S   UNK A   0      -9.053   9.222  67.421  1.00  0.00    -0.126 SA 
HETATM    7  C   UNK A   0      -7.971  10.010  68.474  1.00  0.00    -0.102 A  
BRANCH   7   8
HETATM    8  C   UNK A   0      -7.770   9.528  69.829  1.00  0.00    -0.123 C  
HETATM    9  O   UNK A   0      -7.271  10.204  70.721  1.00  0.00    -0.320 OA 
ATOM     10  N   GLU A   1      -8.142   8.208  70.043  1.00  0.00    -0.112 N  
ATOM     11  H   GLU A   1      -8.521   7.664  69.267  1.00  0.00     0.000 HD 
BRANCH  10  12
ATOM     12  CA  GLU A   1      -8.001   7.578  71.359  1.00  0.00    -0.095 C  
ATOM     13  C   GLU A   1      -7.419   6.162  71.199  1.00  0.00    -0.085 C  
ATOM     14  O   GLU A   1      -7.663   5.603  69.988  1.00  0.00    -0.079 OA 
ATOM     15  OXT GLU A   1      -6.912   5.525  72.113  1.00  0.00    -0.075 OA 
BRANCH  12  16
ATOM     16  CB  GLU A   1      -9.371   7.519  72.044  1.00  0.00    -0.165 C  
BRANCH  16  17
ATOM     17  CG  GLU A   1     -10.530   7.590  71.050  1.00  0.00    -0.222 C  
ATOM     18  CD  GLU A   1     -11.628   6.614  71.387  1.00  0.00    -0.313 C  
ATOM     19  OE2 GLU A   1     -11.456   5.553  71.960  1.00  0.00    -0.186 OA 
ATOM     20  OE1 GLU A   1     -12.841   7.021  70.950  1.00  0.00    -0.306 OA 
ENDBRANCH  16  17
ENDBRANCH  12  16
ENDBRANCH  10  12
ENDBRANCH   7   8
ENDBRANCH   2   3
BRANCH   2  21
HETATM   21  C   UNK A   0      -7.787   9.136  63.933  1.00  0.00    -0.129 C  
BRANCH  21  22
HETATM   22  C   UNK A   0      -7.604   7.653  64.175  1.00  0.00    -0.113 A  
HETATM   23  C   UNK A   0      -6.702   5.820  65.491  1.00  0.00    -0.047 A  
HETATM   24  C   UNK A   0      -7.298   4.886  64.643  1.00  0.00    -0.063 A  
HETATM   25  C   UNK A   0      -6.848   7.191  65.263  1.00  0.00    -0.051 A  
HETATM   26  H   UNK A   0      -5.357   3.571  67.676  1.00  0.00     0.000 HD 
HETATM   27  C   UNK A   0      -8.028   5.337  63.544  1.00  0.00    -0.097 A  
HETATM   28  C   UNK A   0      -6.363   1.662  66.325  1.00  0.00    -0.023 C  
HETATM   29  N   UNK A   0      -7.120   3.528  64.906  1.00  0.00    -0.064 NA 
HETATM   30  N   UNK A   0      -5.854   3.941  66.866  1.00  0.00    -0.022 N  
HETATM   31  C   UNK A   0      -8.185   6.709  63.317  1.00  0.00     0.065 A  
HETATM   32  C   UNK A   0      -5.915   5.302  66.641  1.00  0.00    -0.023 C  
HETATM   33  O   UNK A   0      -5.342   6.115  67.360  1.00  0.00    -0.005 OA 
HETATM   34  C   UNK A   0      -6.438   3.143  66.030  1.00  0.00    -0.032 C  
ENDBRANCH  21  22
ENDBRANCH   2  21
TORSDOF 7
ENDMDL
MODEL      321
REMARK 921   NORMALIZED FREE ENERGY PREDICTED BY IDOCK:   -2.72 KCAL/MOL
REMARK 922        TOTAL FREE ENERGY PREDICTED BY IDOCK:   -4.97 KCAL/MOL
REMARK 923 INTER-LIGAND FREE ENERGY PREDICTED BY IDOCK:   -4.35 KCAL/MOL
REMARK 924 INTRA-LIGAND FREE ENERGY PREDICTED BY IDOCK:   -0.62 KCAL/MOL
REMARK 927      BINDING AFFINITY PREDICTED BY RF-SCORE:    0.00 PKD
ROOT
HETATM    1  C   UNK A   0      -7.235  11.346  67.773  1.00  0.00    -0.089 C  
HETATM    2  N   UNK A   0      -8.454  10.741  68.300  1.00  0.00    -0.125 NA 
ENDROOT
BRANCH   2   3
HETATM    3  C   UNK A   0      -8.374   9.487  68.847  1.00  0.00    -0.121 A  
HETATM    4  C   UNK A   0      -8.857   7.537  70.052  1.00  0.00    -0.144 A  
HETATM    5  C   UNK A   0      -9.372   8.696  69.387  1.00  0.00    -0.150 A  
HETATM    6  S   UNK A   0      -6.875   8.656  68.915  1.00  0.00    -0.062 SA 
HETATM    7  C   UNK A   0      -7.484   7.446  69.948  1.00  0.00    -0.085 A  
BRANCH   7   8
HETATM    8  C   UNK A   0      -6.587   6.517  70.612  1.00  0.00    -0.053 C  
HETATM    9  O   UNK A   0      -5.474   6.828  71.022  1.00  0.00    -0.026 OA 
ATOM     10  N   GLU A   1      -7.058   5.216  70.713  1.00  0.00    -0.058 N  
ATOM     11  H   GLU A   1      -7.975   4.986  70.329  1.00  0.00     0.000 HD 
BRANCH  10  12
ATOM     12  CA  GLU A   1      -6.268   4.165  71.359  1.00  0.00    -0.014 C  
ATOM     13  C   GLU A   1      -6.176   2.938  70.432  1.00  0.00    -0.023 C  
ATOM     14  O   GLU A   1      -7.202   2.839  69.552  1.00  0.00    -0.043 OA 
ATOM     15  OXT GLU A   1      -5.347   2.047  70.561  1.00  0.00    -0.004 OA 
BRANCH  12  16
ATOM     16  CB  GLU A   1      -6.924   3.781  72.691  1.00  0.00    -0.044 C  
BRANCH  16  17
ATOM     17  CG  GLU A   1      -8.440   3.977  72.679  1.00  0.00    -0.100 C  
ATOM     18  CD  GLU A   1      -9.129   3.131  73.719  1.00  0.00    -0.085 C  
ATOM     19  OE2 GLU A   1      -8.713   2.061  74.125  1.00  0.00    -0.061 OA 
ATOM     20  OE1 GLU A   1     -10.296   3.670  74.140  1.00  0.00    -0.155 OA 
ENDBRANCH  16  17
ENDBRANCH  12  16
ENDBRANCH  10  12
ENDBRANCH   7   8
ENDBRANCH   2   3
BRANCH   2  21
HETATM   21  C   UNK A   0      -9.688  11.041  67.546  1.00  0.00    -0.172 C  
BRANCH  21  22
HETATM   22  C   UNK A   0      -9.699  12.472  67.055  1.00  0.00    -0.213 A  
HETATM   23  C   UNK A   0      -9.759  14.861  67.498  1.00  0.00    -0.212 A  
HETATM   24  C   UNK A   0      -9.683  15.140  66.134  1.00  0.00    -0.310 A  
HETATM   25  C   UNK A   0      -9.770  13.542  67.961  1.00  0.00    -0.228 A  
HETATM   26  H   UNK A   0      -9.736  18.100  68.569  1.00  0.00     0.000 HD 
HETATM   27  C   UNK A   0      -9.641  14.083  65.226  1.00  0.00     0.116 A  
HETATM   28  C   UNK A   0      -9.562  18.893  66.156  1.00  0.00    -0.266 C  
HETATM   29  N   UNK A   0      -9.681  16.472  65.718  1.00  0.00    -0.523 NA 
HETATM   30  N   UNK A   0      -9.740  17.299  67.938  1.00  0.00    -0.265 N  
HETATM   31  C   UNK A   0      -9.642  12.760  65.685  1.00  0.00    -0.054 A  
HETATM   32  C   UNK A   0      -9.821  16.014  68.435  1.00  0.00    -0.213 C  
HETATM   33  O   UNK A   0      -9.943  15.777  69.633  1.00  0.00    -0.271 OA 
HETATM   34  C   UNK A   0      -9.670  17.470  66.656  1.00  0.00    -0.299 C  
ENDBRANCH  21  22
ENDBRANCH   2  21
TORSDOF 7
ENDMDL
MODEL      322
REMARK 921   NORMALIZED FREE ENERGY PREDICTED BY IDOCK:   -2.69 KCAL/MOL
REMARK 922        TOTAL FREE ENERGY PREDICTED BY IDOCK:   -4.92 KCAL/MOL
REMARK 923 INTER-LIGAND FREE ENERGY PREDICTED BY IDOCK:   -4.75 KCAL/MOL
REMARK 924 INTRA-LIGAND FREE ENERGY PREDICTED BY IDOCK:   -0.16 KCAL/MOL
REMARK 927      BINDING AFFINITY PREDICTED BY RF-SCORE:    0.00 PKD
ROOT
HETATM    1  C   UNK A   0      -7.106  15.209  70.372  1.00  0.00     0.315 C  
HETATM    2  N   UNK A   0      -7.484  14.442  69.189  1.00  0.00    -0.213 NA 
ENDROOT
BRANCH   2   3
HETATM    3  C   UNK A   0      -6.725  13.352  68.850  1.00  0.00    -0.110 A  
HETATM    4  C   UNK A   0      -5.267  11.904  67.726  1.00  0.00    -0.062 A  
HETATM    5  C   UNK A   0      -5.661  13.259  67.972  1.00  0.00    -0.113 A  
HETATM    6  S   UNK A   0      -7.023  11.822  69.565  1.00  0.00     0.108 SA 
HETATM    7  C   UNK A   0      -6.003  11.006  68.472  1.00  0.00    -0.042 A  
BRANCH   7   8
HETATM    8  C   UNK A   0      -6.014   9.556  68.388  1.00  0.00    -0.044 C  
HETATM    9  O   UNK A   0      -5.366   8.921  67.562  1.00  0.00    -0.034 OA 
ATOM     10  N   GLU A   1      -6.858   8.922  69.288  1.00  0.00    -0.049 N  
ATOM     11  H   GLU A   1      -7.409   9.485  69.936  1.00  0.00     0.000 HD 
BRANCH  10  12
ATOM     12  CA  GLU A   1      -6.977   7.462  69.326  1.00  0.00    -0.065 C  
ATOM     13  C   GLU A   1      -8.257   7.024  68.592  1.00  0.00    -0.122 C  
ATOM     14  O   GLU A   1      -9.223   7.975  68.560  1.00  0.00    -0.137 OA 
ATOM     15  OXT GLU A   1      -8.462   5.883  68.199  1.00  0.00    -0.114 OA 
BRANCH  12  16
ATOM     16  CB  GLU A   1      -7.009   6.993  70.786  1.00  0.00    -0.065 C  
BRANCH  16  17
ATOM     17  CG  GLU A   1      -5.946   5.937  71.089  1.00  0.00    -0.029 C  
ATOM     18  CD  GLU A   1      -5.589   5.896  72.552  1.00  0.00    -0.031 C  
ATOM     19  OE2 GLU A   1      -5.648   6.851  73.304  1.00  0.00    -0.045 OA 
ATOM     20  OE1 GLU A   1      -5.152   4.679  72.948  1.00  0.00    -0.007 OA 
ENDBRANCH  16  17
ENDBRANCH  12  16
ENDBRANCH  10  12
ENDBRANCH   7   8
ENDBRANCH   2   3
BRANCH   2  21
HETATM   21  C   UNK A   0      -8.018  15.234  68.064  1.00  0.00    -0.131 C  
BRANCH  21  22
HETATM   22  C   UNK A   0      -9.006  14.433  67.245  1.00  0.00    -0.221 A  
HETATM   23  C   UNK A   0     -10.634  14.284  65.446  1.00  0.00    -0.367 A  
HETATM   24  C   UNK A   0     -10.821  12.925  65.695  1.00  0.00    -0.273 A  
HETATM   25  C   UNK A   0      -9.739  15.038  66.211  1.00  0.00    -0.316 A  
HETATM   26  H   UNK A   0     -12.746  14.493  62.774  1.00  0.00     0.000 HD 
HETATM   27  C   UNK A   0     -10.117  12.323  66.738  1.00  0.00    -0.224 A  
HETATM   28  C   UNK A   0     -13.246  12.005  62.981  1.00  0.00     0.557 C  
HETATM   29  N   UNK A   0     -11.729  12.215  64.910  1.00  0.00    -0.337 NA 
HETATM   30  N   UNK A   0     -12.238  14.099  63.566  1.00  0.00    -1.090 N  
HETATM   31  C   UNK A   0      -9.213  13.071  67.500  1.00  0.00    -0.195 A  
HETATM   32  C   UNK A   0     -11.415  14.896  64.338  1.00  0.00    -0.247 C  
HETATM   33  O   UNK A   0     -11.299  16.103  64.148  1.00  0.00    -0.657 OA 
HETATM   34  C   UNK A   0     -12.352  12.844  63.865  1.00  0.00    -0.396 C  
ENDBRANCH  21  22
ENDBRANCH   2  21
TORSDOF 7
ENDMDL
MODEL      323
REMARK 921   NORMALIZED FREE ENERGY PREDICTED BY IDOCK:   -2.66 KCAL/MOL
REMARK 922        TOTAL FREE ENERGY PREDICTED BY IDOCK:   -4.88 KCAL/MOL
REMARK 923 INTER-LIGAND FREE ENERGY PREDICTED BY IDOCK:   -5.20 KCAL/MOL
REMARK 924 INTRA-LIGAND FREE ENERGY PREDICTED BY IDOCK:    0.32 KCAL/MOL
REMARK 927      BINDING AFFINITY PREDICTED BY RF-SCORE:    0.00 PKD
ROOT
HETATM    1  C   UNK A   0     -10.160   4.433  70.652  1.00  0.00    -0.121 C  
HETATM    2  N   UNK A   0      -9.950   5.426  69.603  1.00  0.00    -0.205 NA 
ENDROOT
BRANCH   2   3
HETATM    3  C   UNK A   0      -9.879   6.747  69.961  1.00  0.00    -0.169 A  
HETATM    4  C   UNK A   0     -10.060   8.753  71.156  1.00  0.00    -0.317 A  
HETATM    5  C   UNK A   0      -9.965   7.326  71.214  1.00  0.00    -0.191 A  
HETATM    6  S   UNK A   0      -9.627   7.962  68.777  1.00  0.00    -0.153 SA 
HETATM    7  C   UNK A   0      -9.981   9.227  69.861  1.00  0.00    -0.205 A  
BRANCH   7   8
HETATM    8  C   UNK A   0     -10.193  10.580  69.379  1.00  0.00    -0.221 C  
HETATM    9  O   UNK A   0     -10.664  11.478  70.069  1.00  0.00     0.183 OA 
ATOM     10  N   GLU A   1      -9.868  10.786  68.047  1.00  0.00    -0.162 N  
ATOM     11  H   GLU A   1      -9.512  10.006  67.494  1.00  0.00     0.000 HD 
BRANCH  10  12
ATOM     12  CA  GLU A   1     -10.025  12.099  67.416  1.00  0.00    -0.199 C  
ATOM     13  C   GLU A   1     -11.499  12.540  67.491  1.00  0.00    -0.336 C  
ATOM     14  O   GLU A   1     -12.375  11.509  67.586  1.00  0.00    -0.273 OA 
ATOM     15  OXT GLU A   1     -11.874  13.694  67.331  1.00  0.00    -0.359 OA 
BRANCH  12  16
ATOM     16  CB  GLU A   1      -9.564  12.021  65.956  1.00  0.00    -0.247 C  
BRANCH  16  17
ATOM     17  CG  GLU A   1     -10.478  12.795  65.006  1.00  0.00    -0.334 C  
ATOM     18  CD  GLU A   1     -10.523  12.178  63.633  1.00  0.00    -0.460 C  
ATOM     19  OE2 GLU A   1      -9.612  11.547  63.129  1.00  0.00    -0.355 OA 
ATOM     20  OE1 GLU A   1     -11.684  12.428  62.986  1.00  0.00    -0.295 OA 
ENDBRANCH  16  17
ENDBRANCH  12  16
ENDBRANCH  10  12
ENDBRANCH   7   8
ENDBRANCH   2   3
BRANCH   2  21
HETATM   21  C   UNK A   0     -10.615   5.138  68.317  1.00  0.00     0.076 C  
BRANCH  21  22
HETATM   22  C   UNK A   0      -9.677   4.446  67.352  1.00  0.00    -0.217 A  
HETATM   23  C   UNK A   0      -7.943   4.542  65.652  1.00  0.00    -0.095 A  
HETATM   24  C   UNK A   0      -7.902   3.149  65.582  1.00  0.00    -0.085 A  
HETATM   25  C   UNK A   0      -8.821   5.190  66.525  1.00  0.00    -0.117 A  
HETATM   26  H   UNK A   0      -5.449   5.127  63.399  1.00  0.00     0.000 HD 
HETATM   27  C   UNK A   0      -8.768   2.404  66.381  1.00  0.00    -0.125 A  
HETATM   28  C   UNK A   0      -5.135   2.619  63.100  1.00  0.00    -0.007 C  
HETATM   29  N   UNK A   0      -7.013   2.546  64.692  1.00  0.00    -0.047 NA 
HETATM   30  N   UNK A   0      -6.121   4.621  63.975  1.00  0.00    -0.021 N  
HETATM   31  C   UNK A   0      -9.642   3.049  67.264  1.00  0.00    -0.022 A  
HETATM   32  C   UNK A   0      -7.018   5.304  64.772  1.00  0.00    -0.050 C  
HETATM   33  O   UNK A   0      -7.086   6.529  64.787  1.00  0.00    -0.049 OA 
HETATM   34  C   UNK A   0      -6.148   3.325  63.971  1.00  0.00    -0.018 C  
ENDBRANCH  21  22
ENDBRANCH   2  21
TORSDOF 7
ENDMDL
MODEL      324
REMARK 921   NORMALIZED FREE ENERGY PREDICTED BY IDOCK:   -2.61 KCAL/MOL
REMARK 922        TOTAL FREE ENERGY PREDICTED BY IDOCK:   -4.82 KCAL/MOL
REMARK 923 INTER-LIGAND FREE ENERGY PREDICTED BY IDOCK:   -4.46 KCAL/MOL
REMARK 924 INTRA-LIGAND FREE ENERGY PREDICTED BY IDOCK:   -0.36 KCAL/MOL
REMARK 927      BINDING AFFINITY PREDICTED BY RF-SCORE:    0.00 PKD
ROOT
HETATM    1  C   UNK A   0      -7.707  13.020  67.700  1.00  0.00    -0.161 C  
HETATM    2  N   UNK A   0      -7.528  11.586  67.496  1.00  0.00    -0.109 NA 
ENDROOT
BRANCH   2   3
HETATM    3  C   UNK A   0      -7.559  10.763  68.591  1.00  0.00    -0.106 A  
HETATM    4  C   UNK A   0      -6.917   9.452  70.423  1.00  0.00    -0.100 A  
HETATM    5  C   UNK A   0      -6.594  10.546  69.558  1.00  0.00    -0.080 A  
HETATM    6  S   UNK A   0      -8.951   9.823  68.940  1.00  0.00    -0.151 SA 
HETATM    7  C   UNK A   0      -8.149   8.903  70.129  1.00  0.00    -0.122 A  
BRANCH   7   8
HETATM    8  C   UNK A   0      -8.753   7.697  70.666  1.00  0.00    -0.140 C  
HETATM    9  O   UNK A   0      -8.142   6.879  71.345  1.00  0.00    -0.107 OA 
ATOM     10  N   GLU A   1     -10.081   7.499  70.315  1.00  0.00    -0.193 N  
ATOM     11  H   GLU A   1     -10.547   8.184  69.720  1.00  0.00     0.000 HD 
BRANCH  10  12
ATOM     12  CA  GLU A   1     -10.828   6.328  70.782  1.00  0.00    -0.281 C  
ATOM     13  C   GLU A   1     -11.662   6.702  72.021  1.00  0.00    -0.313 C  
ATOM     14  O   GLU A   1     -11.165   7.753  72.719  1.00  0.00    -0.354 OA 
ATOM     15  OXT GLU A   1     -12.602   6.037  72.437  1.00  0.00    -0.126 OA 
BRANCH  12  16
ATOM     16  CB  GLU A   1      -9.847   5.199  71.119  1.00  0.00    -0.250 C  
BRANCH  16  17
ATOM     17  CG  GLU A   1     -10.017   3.981  70.211  1.00  0.00    -0.102 C  
ATOM     18  CD  GLU A   1      -8.942   3.905  69.157  1.00  0.00    -0.114 C  
ATOM     19  OE2 GLU A   1      -8.369   4.870  68.684  1.00  0.00    -0.084 OA 
ATOM     20  OE1 GLU A   1      -8.698   2.638  68.752  1.00  0.00    -0.069 OA 
ENDBRANCH  16  17
ENDBRANCH  12  16
ENDBRANCH  10  12
ENDBRANCH   7   8
ENDBRANCH   2   3
BRANCH   2  21
HETATM   21  C   UNK A   0      -6.575  11.212  66.432  1.00  0.00    -0.108 C  
BRANCH  21  22
HETATM   22  C   UNK A   0      -7.073  10.023  65.639  1.00  0.00    -0.119 A  
HETATM   23  C   UNK A   0      -7.187   7.623  65.271  1.00  0.00    -0.065 A  
HETATM   24  C   UNK A   0      -8.034   7.807  64.178  1.00  0.00    -0.113 A  
HETATM   25  C   UNK A   0      -6.706   8.716  65.997  1.00  0.00    -0.061 A  
HETATM   26  H   UNK A   0      -7.173   4.212  65.195  1.00  0.00     0.000 HD 
HETATM   27  C   UNK A   0      -8.381   9.103  63.799  1.00  0.00    -0.183 A  
HETATM   28  C   UNK A   0      -8.754   4.254  63.200  1.00  0.00    -0.116 C  
HETATM   29  N   UNK A   0      -8.485   6.687  63.480  1.00  0.00    -0.328 NA 
HETATM   30  N   UNK A   0      -7.376   5.176  64.931  1.00  0.00    -0.066 N  
HETATM   31  C   UNK A   0      -7.910  10.200  64.529  1.00  0.00    -0.141 A  
HETATM   32  C   UNK A   0      -6.823   6.228  65.634  1.00  0.00    -0.052 C  
HETATM   33  O   UNK A   0      -6.035   6.060  66.560  1.00  0.00    -0.023 OA 
HETATM   34  C   UNK A   0      -8.156   5.435  63.929  1.00  0.00    -0.119 C  
ENDBRANCH  21  22
ENDBRANCH   2  21
TORSDOF 7
ENDMDL
MODEL      325
REMARK 921   NORMALIZED FREE ENERGY PREDICTED BY IDOCK:   -2.55 KCAL/MOL
REMARK 922        TOTAL FREE ENERGY PREDICTED BY IDOCK:   -4.72 KCAL/MOL
REMARK 923 INTER-LIGAND FREE ENERGY PREDICTED BY IDOCK:   -4.91 KCAL/MOL
REMARK 924 INTRA-LIGAND FREE ENERGY PREDICTED BY IDOCK:    0.19 KCAL/MOL
REMARK 927      BINDING AFFINITY PREDICTED BY RF-SCORE:    0.00 PKD
ROOT
HETATM    1  C   UNK A   0     -11.092  12.924  69.277  1.00  0.00    -0.133 C  
HETATM    2  N   UNK A   0     -10.826  11.503  69.072  1.00  0.00    -0.216 NA 
ENDROOT
BRANCH   2   3
HETATM    3  C   UNK A   0      -9.863  11.146  68.165  1.00  0.00    -0.180 A  
HETATM    4  C   UNK A   0      -8.660  10.864  66.175  1.00  0.00    -0.170 A  
HETATM    5  C   UNK A   0      -9.620  11.643  66.897  1.00  0.00    -0.199 A  
HETATM    6  S   UNK A   0      -8.715   9.929  68.541  1.00  0.00    -0.125 SA 
HETATM    7  C   UNK A   0      -8.152   9.830  66.936  1.00  0.00    -0.113 A  
BRANCH   7   8
HETATM    8  C   UNK A   0      -7.288   8.740  66.519  1.00  0.00    -0.081 C  
HETATM    9  O   UNK A   0      -6.148   8.903  66.097  1.00  0.00    -0.054 OA 
ATOM     10  N   GLU A   1      -7.862   7.479  66.582  1.00  0.00    -0.104 N  
ATOM     11  H   GLU A   1      -8.826   7.385  66.905  1.00  0.00     0.000 HD 
BRANCH  10  12
ATOM     12  CA  GLU A   1      -7.116   6.278  66.196  1.00  0.00    -0.067 C  
ATOM     13  C   GLU A   1      -6.319   5.749  67.403  1.00  0.00    -0.042 C  
ATOM     14  O   GLU A   1      -6.024   6.700  68.323  1.00  0.00    -0.019 OA 
ATOM     15  OXT GLU A   1      -5.859   4.617  67.473  1.00  0.00    -0.021 OA 
BRANCH  12  16
ATOM     16  CB  GLU A   1      -6.170   6.618  65.038  1.00  0.00    -0.038 C  
BRANCH  16  17
ATOM     17  CG  GLU A   1      -6.573   5.939  63.729  1.00  0.00    -0.036 C  
ATOM     18  CD  GLU A   1      -6.117   4.504  63.671  1.00  0.00    -0.018 C  
ATOM     19  OE2 GLU A   1      -5.130   4.070  64.238  1.00  0.00    -0.008 OA 
ATOM     20  OE1 GLU A   1      -6.904   3.737  62.883  1.00  0.00    -0.033 OA 
ENDBRANCH  16  17
ENDBRANCH  12  16
ENDBRANCH  10  12
ENDBRANCH   7   8
ENDBRANCH   2   3
BRANCH   2  21
HETATM   21  C   UNK A   0     -12.007  10.620  69.146  1.00  0.00    -0.158 C  
BRANCH  21  22
HETATM   22  C   UNK A   0     -11.847   9.575  70.229  1.00  0.00    -0.109 A  
HETATM   23  C   UNK A   0     -11.292   7.312  70.919  1.00  0.00    -0.308 A  
HETATM   24  C   UNK A   0     -11.516   7.639  72.256  1.00  0.00    -0.317 A  
HETATM   25  C   UNK A   0     -11.456   8.265  69.910  1.00  0.00     0.174 A  
HETATM   26  H   UNK A   0     -10.318   4.086  71.457  1.00  0.00     0.000 HD 
HETATM   27  C   UNK A   0     -11.931   8.931  72.578  1.00  0.00    -0.219 A  
HETATM   28  C   UNK A   0     -10.615   4.419  73.963  1.00  0.00    -0.332 C  
HETATM   29  N   UNK A   0     -11.344   6.654  73.228  1.00  0.00    -0.470 NA 
HETATM   30  N   UNK A   0     -10.653   5.031  71.646  1.00  0.00    -0.163 N  
HETATM   31  C   UNK A   0     -12.088   9.891  71.572  1.00  0.00    -0.496 A  
HETATM   32  C   UNK A   0     -10.868   5.920  70.612  1.00  0.00    -0.292 C  
HETATM   33  O   UNK A   0     -10.722   5.609  69.433  1.00  0.00    -0.297 OA 
HETATM   34  C   UNK A   0     -10.883   5.418  72.861  1.00  0.00    -0.270 C  
ENDBRANCH  21  22
ENDBRANCH   2  21
TORSDOF 7
ENDMDL
MODEL      326
REMARK 921   NORMALIZED FREE ENERGY PREDICTED BY IDOCK:   -2.41 KCAL/MOL
REMARK 922        TOTAL FREE ENERGY PREDICTED BY IDOCK:   -4.53 KCAL/MOL
REMARK 923 INTER-LIGAND FREE ENERGY PREDICTED BY IDOCK:   -5.08 KCAL/MOL
REMARK 924 INTRA-LIGAND FREE ENERGY PREDICTED BY IDOCK:    0.55 KCAL/MOL
REMARK 927      BINDING AFFINITY PREDICTED BY RF-SCORE:    0.00 PKD
ROOT
HETATM    1  C   UNK A   0     -10.280  12.950  68.191  1.00  0.00    -0.239 C  
HETATM    2  N   UNK A   0      -9.435  11.798  67.891  1.00  0.00    -0.184 NA 
ENDROOT
BRANCH   2   3
HETATM    3  C   UNK A   0      -9.059  10.980  68.925  1.00  0.00    -0.123 A  
HETATM    4  C   UNK A   0      -7.779   9.719  70.427  1.00  0.00    -0.159 A  
HETATM    5  C   UNK A   0      -7.820  10.826  69.520  1.00  0.00    -0.045 A  
HETATM    6  S   UNK A   0     -10.204   9.963  69.697  1.00  0.00    -0.253 SA 
HETATM    7  C   UNK A   0      -9.006   9.098  70.545  1.00  0.00    -0.232 A  
BRANCH   7   8
HETATM    8  C   UNK A   0      -9.331   7.861  71.233  1.00  0.00    -0.146 C  
HETATM    9  O   UNK A   0     -10.247   7.758  72.042  1.00  0.00    -0.186 OA 
ATOM     10  N   GLU A   1      -8.492   6.794  70.949  1.00  0.00    -0.135 N  
ATOM     11  H   GLU A   1      -7.718   6.927  70.298  1.00  0.00     0.000 HD 
BRANCH  10  12
ATOM     12  CA  GLU A   1      -8.693   5.479  71.565  1.00  0.00    -0.136 C  
ATOM     13  C   GLU A   1      -9.645   4.637  70.695  1.00  0.00    -0.191 C  
ATOM     14  O   GLU A   1     -10.483   5.376  69.927  1.00  0.00    -0.283 OA 
ATOM     15  OXT GLU A   1      -9.754   3.421  70.784  1.00  0.00    -0.177 OA 
BRANCH  12  16
ATOM     16  CB  GLU A   1      -9.273   5.659  72.972  1.00  0.00    -0.137 C  
BRANCH  16  17
ATOM     17  CG  GLU A   1      -9.388   4.340  73.736  1.00  0.00    -0.109 C  
ATOM     18  CD  GLU A   1     -10.792   3.792  73.713  1.00  0.00    -0.237 C  
ATOM     19  OE2 GLU A   1     -11.797   4.474  73.633  1.00  0.00    -0.122 OA 
ATOM     20  OE1 GLU A   1     -10.828   2.445  73.828  1.00  0.00    -0.154 OA 
ENDBRANCH  16  17
ENDBRANCH  12  16
ENDBRANCH  10  12
ENDBRANCH   7   8
ENDBRANCH   2   3
BRANCH   2  21
HETATM   21  C   UNK A   0      -8.429  12.008  66.833  1.00  0.00    -0.172 C  
BRANCH  21  22
HETATM   22  C   UNK A   0      -8.426  10.867  65.839  1.00  0.00    -0.158 A  
HETATM   23  C   UNK A   0      -7.649   8.672  65.140  1.00  0.00    -0.093 A  
HETATM   24  C   UNK A   0      -8.453   8.724  64.002  1.00  0.00    -0.107 A  
HETATM   25  C   UNK A   0      -7.629   9.731  66.053  1.00  0.00    -0.102 A  
HETATM   26  H   UNK A   0      -6.402   5.542  64.605  1.00  0.00     0.000 HD 
HETATM   27  C   UNK A   0      -9.226   9.861  63.768  1.00  0.00    -0.289 A  
HETATM   28  C   UNK A   0      -7.796   5.354  62.483  1.00  0.00    -0.079 C  
HETATM   29  N   UNK A   0      -8.436   7.647  63.116  1.00  0.00    -0.373 NA 
HETATM   30  N   UNK A   0      -6.926   6.404  64.454  1.00  0.00    -0.046 N  
HETATM   31  C   UNK A   0      -9.217  10.919  64.684  1.00  0.00    -0.223 A  
HETATM   32  C   UNK A   0      -6.824   7.453  65.347  1.00  0.00    -0.048 C  
HETATM   33  O   UNK A   0      -6.073   7.422  66.317  1.00  0.00    -0.036 OA 
HETATM   34  C   UNK A   0      -7.699   6.534  63.423  1.00  0.00    -0.106 C  
ENDBRANCH  21  22
ENDBRANCH   2  21
TORSDOF 7
ENDMDL
MODEL      327
REMARK 921   NORMALIZED FREE ENERGY PREDICTED BY IDOCK:   -2.23 KCAL/MOL
REMARK 922        TOTAL FREE ENERGY PREDICTED BY IDOCK:   -4.27 KCAL/MOL
REMARK 923 INTER-LIGAND FREE ENERGY PREDICTED BY IDOCK:   -5.88 KCAL/MOL
REMARK 924 INTRA-LIGAND FREE ENERGY PREDICTED BY IDOCK:    1.61 KCAL/MOL
REMARK 927      BINDING AFFINITY PREDICTED BY RF-SCORE:    0.00 PKD
ROOT
HETATM    1  C   UNK A   0     -11.953  13.354  70.183  1.00  0.00    -0.326 C  
HETATM    2  N   UNK A   0     -11.476  12.048  69.736  1.00  0.00    -0.476 NA 
ENDROOT
BRANCH   2   3
HETATM    3  C   UNK A   0     -10.442  12.005  68.837  1.00  0.00    -0.125 A  
HETATM    4  C   UNK A   0      -9.121  12.328  66.931  1.00  0.00    -0.208 A  
HETATM    5  C   UNK A   0     -10.182  12.825  67.754  1.00  0.00    -0.223 A  
HETATM    6  S   UNK A   0      -9.210  10.821  68.978  1.00  0.00    -0.101 SA 
HETATM    7  C   UNK A   0      -8.562  11.175  67.443  1.00  0.00    -0.137 A  
BRANCH   7   8
HETATM    8  C   UNK A   0      -7.585  10.294  66.829  1.00  0.00    -0.107 C  
HETATM    9  O   UNK A   0      -6.435  10.633  66.570  1.00  0.00    -0.088 OA 
ATOM     10  N   GLU A   1      -8.057   9.031  66.501  1.00  0.00    -0.110 N  
ATOM     11  H   GLU A   1      -9.030   8.796  66.699  1.00  0.00     0.000 HD 
BRANCH  10  12
ATOM     12  CA  GLU A   1      -7.190   8.028  65.877  1.00  0.00    -0.065 C  
ATOM     13  C   GLU A   1      -6.213   7.461  66.923  1.00  0.00    -0.047 C  
ATOM     14  O   GLU A   1      -5.965   8.305  67.955  1.00  0.00    -0.041 OA 
ATOM     15  OXT GLU A   1      -5.593   6.416  66.780  1.00  0.00    -0.012 OA 
BRANCH  12  16
ATOM     16  CB  GLU A   1      -6.420   8.673  64.718  1.00  0.00    -0.065 C  
BRANCH  16  17
ATOM     17  CG  GLU A   1      -7.268   9.668  63.928  1.00  0.00    -0.115 C  
ATOM     18  CD  GLU A   1      -8.140   8.985  62.906  1.00  0.00    -0.166 C  
ATOM     19  OE2 GLU A   1      -7.863   7.935  62.354  1.00  0.00    -0.123 OA 
ATOM     20  OE1 GLU A   1      -9.264   9.684  62.628  1.00  0.00    -0.278 OA 
ENDBRANCH  16  17
ENDBRANCH  12  16
ENDBRANCH  10  12
ENDBRANCH   7   8
ENDBRANCH   2   3
BRANCH   2  21
HETATM   21  C   UNK A   0     -12.518  11.015  69.574  1.00  0.00    -0.080 C  
BRANCH  21  22
HETATM   22  C   UNK A   0     -12.252   9.819  70.462  1.00  0.00    -0.205 A  
HETATM   23  C   UNK A   0     -11.397   7.565  70.775  1.00  0.00    -0.300 A  
HETATM   24  C   UNK A   0     -11.723   7.605  72.131  1.00  0.00    -0.311 A  
HETATM   25  C   UNK A   0     -11.659   8.658  69.943  1.00  0.00     0.260 A  
HETATM   26  H   UNK A   0      -9.982   4.461  70.796  1.00  0.00     0.000 HD 
HETATM   27  C   UNK A   0     -12.337   8.745  72.648  1.00  0.00    -0.254 A  
HETATM   28  C   UNK A   0     -10.429   4.279  73.296  1.00  0.00    -0.257 C  
HETATM   29  N   UNK A   0     -11.449   6.489  72.922  1.00  0.00    -0.474 NA 
HETATM   30  N   UNK A   0     -10.460   5.299  71.127  1.00  0.00    -0.225 N  
HETATM   31  C   UNK A   0     -12.592   9.844  71.821  1.00  0.00    -0.506 A  
HETATM   32  C   UNK A   0     -10.760   6.327  70.255  1.00  0.00    -0.280 C  
HETATM   33  O   UNK A   0     -10.521   6.262  69.053  1.00  0.00    -0.190 OA 
HETATM   34  C   UNK A   0     -10.795   5.418  72.373  1.00  0.00    -0.241 C  
ENDBRANCH  21  22
ENDBRANCH   2  21
TORSDOF 7
ENDMDL
MODEL      328
REMARK 921   NORMALIZED FREE ENERGY PREDICTED BY IDOCK:   -2.06 KCAL/MOL
REMARK 922        TOTAL FREE ENERGY PREDICTED BY IDOCK:   -4.03 KCAL/MOL
REMARK 923 INTER-LIGAND FREE ENERGY PREDICTED BY IDOCK:   -6.10 KCAL/MOL
REMARK 924 INTRA-LIGAND FREE ENERGY PREDICTED BY IDOCK:    2.06 KCAL/MOL
REMARK 927      BINDING AFFINITY PREDICTED BY RF-SCORE:    0.00 PKD
ROOT
HETATM    1  C   UNK A   0      -9.597   7.117  69.855  1.00  0.00    -0.163 C  
HETATM    2  N   UNK A   0      -8.929   8.266  69.252  1.00  0.00    -0.146 NA 
ENDROOT
BRANCH   2   3
HETATM    3  C   UNK A   0      -9.702   9.249  68.692  1.00  0.00    -0.150 A  
HETATM    4  C   UNK A   0     -11.279  10.378  67.379  1.00  0.00    -0.205 A  
HETATM    5  C   UNK A   0     -10.888   9.143  67.988  1.00  0.00    -0.135 A  
HETATM    6  S   UNK A   0      -9.256  10.899  68.831  1.00  0.00    -0.120 SA 
HETATM    7  C   UNK A   0     -10.413  11.407  67.688  1.00  0.00    -0.194 A  
BRANCH   7   8
HETATM    8  C   UNK A   0     -10.377  12.753  67.145  1.00  0.00    -0.233 C  
HETATM    9  O   UNK A   0      -9.348  13.305  66.771  1.00  0.00    -0.243 OA 
ATOM     10  N   GLU A   1     -11.600  13.408  67.119  1.00  0.00    -0.338 N  
ATOM     11  H   GLU A   1     -12.430  12.930  67.471  1.00  0.00     0.000 HD 
BRANCH  10  12
ATOM     12  CA  GLU A   1     -11.726  14.772  66.597  1.00  0.00    -0.283 C  
ATOM     13  C   GLU A   1     -11.393  14.787  65.094  1.00  0.00    -0.379 C  
ATOM     14  O   GLU A   1     -10.576  13.778  64.704  1.00  0.00    -0.406 OA 
ATOM     15  OXT GLU A   1     -11.702  15.697  64.336  1.00  0.00    -0.382 OA 
BRANCH  12  16
ATOM     16  CB  GLU A   1     -10.778  15.700  67.366  1.00  0.00    -0.309 C  
BRANCH  16  17
ATOM     17  CG  GLU A   1     -10.615  15.295  68.830  1.00  0.00    -0.242 C  
ATOM     18  CD  GLU A   1     -10.801  16.461  69.766  1.00  0.00    -0.343 C  
ATOM     19  OE2 GLU A   1     -10.554  17.619  69.483  1.00  0.00    -0.099 OA 
ATOM     20  OE1 GLU A   1     -11.243  16.084  70.987  1.00  0.00    -0.361 OA 
ENDBRANCH  16  17
ENDBRANCH  12  16
ENDBRANCH  10  12
ENDBRANCH   7   8
ENDBRANCH   2   3
BRANCH   2  21
HETATM   21  C   UNK A   0      -7.658   7.969  68.561  1.00  0.00    -0.104 C  
BRANCH  21  22
HETATM   22  C   UNK A   0      -7.895   7.225  67.265  1.00  0.00    -0.111 A  
HETATM   23  C   UNK A   0      -8.142   5.143  66.036  1.00  0.00    -0.109 A  
HETATM   24  C   UNK A   0      -8.376   5.842  64.852  1.00  0.00    -0.115 A  
HETATM   25  C   UNK A   0      -7.901   5.822  67.234  1.00  0.00    -0.102 A  
HETATM   26  H   UNK A   0      -8.537   2.014  64.735  1.00  0.00     0.000 HD 
HETATM   27  C   UNK A   0      -8.345   7.236  64.869  1.00  0.00    -0.022 A  
HETATM   28  C   UNK A   0      -9.033   3.029  62.454  1.00  0.00    -0.081 C  
HETATM   29  N   UNK A   0      -8.606   5.123  63.679  1.00  0.00    -0.241 NA 
HETATM   30  N   UNK A   0      -8.472   3.030  64.785  1.00  0.00    -0.094 N  
HETATM   31  C   UNK A   0      -8.114   7.920  66.069  1.00  0.00    -0.112 A  
HETATM   32  C   UNK A   0      -8.164   3.658  65.975  1.00  0.00    -0.101 C  
HETATM   33  O   UNK A   0      -7.904   3.034  67.001  1.00  0.00    -0.074 OA 
HETATM   34  C   UNK A   0      -8.678   3.756  63.731  1.00  0.00    -0.098 C  
ENDBRANCH  21  22
ENDBRANCH   2  21
TORSDOF 7
ENDMDL
MODEL      329
REMARK 921   NORMALIZED FREE ENERGY PREDICTED BY IDOCK:   -2.05 KCAL/MOL
REMARK 922        TOTAL FREE ENERGY PREDICTED BY IDOCK:   -4.02 KCAL/MOL
REMARK 923 INTER-LIGAND FREE ENERGY PREDICTED BY IDOCK:   -3.83 KCAL/MOL
REMARK 924 INTRA-LIGAND FREE ENERGY PREDICTED BY IDOCK:   -0.19 KCAL/MOL
REMARK 927      BINDING AFFINITY PREDICTED BY RF-SCORE:    0.00 PKD
ROOT
HETATM    1  C   UNK A   0     -11.619  15.705  69.645  1.00  0.00    -0.356 C  
HETATM    2  N   UNK A   0     -10.934  14.803  68.725  1.00  0.00    -0.248 NA 
ENDROOT
BRANCH   2   3
HETATM    3  C   UNK A   0     -11.337  13.494  68.675  1.00  0.00    -0.288 A  
HETATM    4  C   UNK A   0     -12.402  11.504  68.051  1.00  0.00     0.656 A  
HETATM    5  C   UNK A   0     -11.938  12.795  67.644  1.00  0.00    -0.331 A  
HETATM    6  S   UNK A   0     -11.101  12.454  70.019  1.00  0.00     0.695 SA 
HETATM    7  C   UNK A   0     -12.088  11.229  69.367  1.00  0.00    -0.315 A  
BRANCH   7   8
HETATM    8  C   UNK A   0     -12.518  10.108  70.184  1.00  0.00    -0.036 C  
HETATM    9  O   UNK A   0     -13.563  10.100  70.825  1.00  0.00    -0.233 OA 
ATOM     10  N   GLU A   1     -11.629   9.044  70.234  1.00  0.00    -0.455 N  
ATOM     11  H   GLU A   1     -10.753   9.101  69.715  1.00  0.00     0.000 HD 
BRANCH  10  12
ATOM     12  CA  GLU A   1     -11.923   7.839  71.015  1.00  0.00    -0.262 C  
ATOM     13  C   GLU A   1     -11.060   7.822  72.291  1.00  0.00    -0.301 C  
ATOM     14  O   GLU A   1      -9.909   8.531  72.182  1.00  0.00    -0.268 OA 
ATOM     15  OXT GLU A   1     -11.298   7.123  73.266  1.00  0.00    -0.194 OA 
BRANCH  12  16
ATOM     16  CB  GLU A   1     -11.641   6.597  70.162  1.00  0.00    -0.446 C  
BRANCH  16  17
ATOM     17  CG  GLU A   1     -11.535   6.919  68.671  1.00  0.00     0.154 C  
ATOM     18  CD  GLU A   1     -10.233   6.443  68.079  1.00  0.00    -0.164 C  
ATOM     19  OE2 GLU A   1      -9.189   6.343  68.698  1.00  0.00    -0.127 OA 
ATOM     20  OE1 GLU A   1     -10.330   6.168  66.759  1.00  0.00    -0.203 OA 
ENDBRANCH  16  17
ENDBRANCH  12  16
ENDBRANCH  10  12
ENDBRANCH   7   8
ENDBRANCH   2   3
BRANCH   2  21
HETATM   21  C   UNK A   0      -9.486  15.041  68.564  1.00  0.00    -0.203 C  
BRANCH  21  22
HETATM   22  C   UNK A   0      -8.781  13.814  68.026  1.00  0.00    -0.181 A  
HETATM   23  C   UNK A   0      -8.448  12.164  66.273  1.00  0.00     0.140 A  
HETATM   24  C   UNK A   0      -7.437  11.548  67.013  1.00  0.00    -0.151 A  
HETATM   25  C   UNK A   0      -9.119  13.285  66.771  1.00  0.00    -0.216 A  
HETATM   26  H   UNK A   0      -8.224  10.143  63.533  1.00  0.00     0.000 HD 
HETATM   27  C   UNK A   0      -7.116  12.052  68.272  1.00  0.00    -0.086 A  
HETATM   28  C   UNK A   0      -6.327   8.858  64.641  1.00  0.00    -0.066 C  
HETATM   29  N   UNK A   0      -6.800  10.429  66.479  1.00  0.00    -0.100 NA 
HETATM   30  N   UNK A   0      -8.043  10.522  64.463  1.00  0.00    -0.320 N  
HETATM   31  C   UNK A   0      -7.778  13.180  68.770  1.00  0.00    -0.006 A  
HETATM   32  C   UNK A   0      -8.777  11.589  64.943  1.00  0.00     0.403 C  
HETATM   33  O   UNK A   0      -9.701  12.090  64.310  1.00  0.00    -0.186 OA 
HETATM   34  C   UNK A   0      -7.119  10.010  65.214  1.00  0.00    -0.137 C  
ENDBRANCH  21  22
ENDBRANCH   2  21
TORSDOF 7
ENDMDL
MODEL      330
REMARK 921   NORMALIZED FREE ENERGY PREDICTED BY IDOCK:   -2.03 KCAL/MOL
REMARK 922        TOTAL FREE ENERGY PREDICTED BY IDOCK:   -4.00 KCAL/MOL
REMARK 923 INTER-LIGAND FREE ENERGY PREDICTED BY IDOCK:   -3.86 KCAL/MOL
REMARK 924 INTRA-LIGAND FREE ENERGY PREDICTED BY IDOCK:   -0.13 KCAL/MOL
REMARK 927      BINDING AFFINITY PREDICTED BY RF-SCORE:    0.00 PKD
ROOT
HETATM    1  C   UNK A   0      -7.892  13.036  66.724  1.00  0.00     0.320 C  
HETATM    2  N   UNK A   0      -7.328  12.357  67.887  1.00  0.00    -0.100 NA 
ENDROOT
BRANCH   2   3
HETATM    3  C   UNK A   0      -7.222  10.991  67.855  1.00  0.00    -0.086 A  
HETATM    4  C   UNK A   0      -7.452   8.744  67.237  1.00  0.00    -0.089 A  
HETATM    5  C   UNK A   0      -7.470  10.112  66.817  1.00  0.00    -0.104 A  
HETATM    6  S   UNK A   0      -6.696  10.122  69.238  1.00  0.00    -0.066 SA 
HETATM    7  C   UNK A   0      -7.131   8.615  68.573  1.00  0.00    -0.073 A  
BRANCH   7   8
HETATM    8  C   UNK A   0      -7.166   7.422  69.400  1.00  0.00    -0.083 C  
HETATM    9  O   UNK A   0      -6.269   6.586  69.420  1.00  0.00    -0.031 OA 
ATOM     10  N   GLU A   1      -8.324   7.258  70.147  1.00  0.00    -0.135 N  
ATOM     11  H   GLU A   1      -9.064   7.956  70.078  1.00  0.00     0.000 HD 
BRANCH  10  12
ATOM     12  CA  GLU A   1      -8.507   6.104  71.031  1.00  0.00    -0.128 C  
ATOM     13  C   GLU A   1      -8.656   4.822  70.191  1.00  0.00    -0.082 C  
ATOM     14  O   GLU A   1      -9.123   5.041  68.937  1.00  0.00    -0.103 OA 
ATOM     15  OXT GLU A   1      -8.515   3.693  70.640  1.00  0.00    -0.067 OA 
BRANCH  12  16
ATOM     16  CB  GLU A   1      -9.750   6.322  71.901  1.00  0.00    -0.166 C  
BRANCH  16  17
ATOM     17  CG  GLU A   1      -9.556   5.838  73.338  1.00  0.00    -0.143 C  
ATOM     18  CD  GLU A   1     -10.106   4.451  73.549  1.00  0.00    -0.150 C  
ATOM     19  OE2 GLU A   1     -11.040   3.978  72.929  1.00  0.00    -0.116 OA 
ATOM     20  OE1 GLU A   1      -9.471   3.784  74.540  1.00  0.00    -0.101 OA 
ENDBRANCH  16  17
ENDBRANCH  12  16
ENDBRANCH  10  12
ENDBRANCH   7   8
ENDBRANCH   2   3
BRANCH   2  21
HETATM   21  C   UNK A   0      -7.670  12.950  69.195  1.00  0.00     0.326 C  
BRANCH  21  22
HETATM   22  C   UNK A   0      -7.069  14.330  69.350  1.00  0.00    -0.086 A  
HETATM   23  C   UNK A   0      -7.161  16.731  68.986  1.00  0.00    -0.225 A  
HETATM   24  C   UNK A   0      -5.960  16.905  69.674  1.00  0.00    -0.221 A  
HETATM   25  C   UNK A   0      -7.714  15.458  68.820  1.00  0.00    -0.150 A  
HETATM   26  H   UNK A   0      -7.749  20.035  68.367  1.00  0.00     0.000 HD 
HETATM   27  C   UNK A   0      -5.299  15.787  70.179  1.00  0.00    -0.142 A  
HETATM   28  C   UNK A   0      -5.609  20.643  69.605  1.00  0.00    -0.400 C  
HETATM   29  N   UNK A   0      -5.443  18.194  69.810  1.00  0.00    -0.205 NA 
HETATM   30  N   UNK A   0      -7.281  19.189  68.691  1.00  0.00    -0.307 N  
HETATM   31  C   UNK A   0      -5.854  14.511  70.023  1.00  0.00    -0.131 A  
HETATM   32  C   UNK A   0      -7.829  17.945  68.446  1.00  0.00    -0.286 C  
HETATM   33  O   UNK A   0      -8.857  17.795  67.792  1.00  0.00    -0.242 OA 
HETATM   34  C   UNK A   0      -6.162  19.261  69.341  1.00  0.00    -0.290 C  
ENDBRANCH  21  22
ENDBRANCH   2  21
TORSDOF 7
ENDMDL
MODEL      331
REMARK 921   NORMALIZED FREE ENERGY PREDICTED BY IDOCK:   -1.99 KCAL/MOL
REMARK 922        TOTAL FREE ENERGY PREDICTED BY IDOCK:   -3.93 KCAL/MOL
REMARK 923 INTER-LIGAND FREE ENERGY PREDICTED BY IDOCK:   -3.62 KCAL/MOL
REMARK 924 INTRA-LIGAND FREE ENERGY PREDICTED BY IDOCK:   -0.32 KCAL/MOL
REMARK 927      BINDING AFFINITY PREDICTED BY RF-SCORE:    0.00 PKD
ROOT
HETATM    1  C   UNK A   0      -7.044   5.199  69.515  1.00  0.00    -0.056 C  
HETATM    2  N   UNK A   0      -5.995   6.154  69.169  1.00  0.00    -0.023 NA 
ENDROOT
BRANCH   2   3
HETATM    3  C   UNK A   0      -6.013   7.386  69.769  1.00  0.00    -0.024 A  
HETATM    4  C   UNK A   0      -6.354   9.120  71.306  1.00  0.00    -0.078 A  
HETATM    5  C   UNK A   0      -6.179   7.714  71.103  1.00  0.00    -0.035 A  
HETATM    6  S   UNK A   0      -5.789   8.813  68.844  1.00  0.00    -0.041 SA 
HETATM    7  C   UNK A   0      -6.255   9.832  70.127  1.00  0.00    -0.070 A  
BRANCH   7   8
HETATM    8  C   UNK A   0      -6.527  11.239  69.895  1.00  0.00    -0.132 C  
HETATM    9  O   UNK A   0      -5.922  12.147  70.456  1.00  0.00    -0.207 OA 
ATOM     10  N   GLU A   1      -7.570  11.499  69.017  1.00  0.00    -0.272 N  
ATOM     11  H   GLU A   1      -8.074  10.718  68.596  1.00  0.00     0.000 HD 
BRANCH  10  12
ATOM     12  CA  GLU A   1      -7.962  12.870  68.680  1.00  0.00    -0.024 C  
ATOM     13  C   GLU A   1      -9.369  12.870  68.053  1.00  0.00    -0.213 C  
ATOM     14  O   GLU A   1      -9.703  11.698  67.459  1.00  0.00    -0.175 OA 
ATOM     15  OXT GLU A   1     -10.073  13.866  67.957  1.00  0.00    -0.231 OA 
BRANCH  12  16
ATOM     16  CB  GLU A   1      -6.941  13.467  67.705  1.00  0.00    -0.164 C  
BRANCH  16  17
ATOM     17  CG  GLU A   1      -7.192  14.948  67.423  1.00  0.00    -0.213 C  
ATOM     18  CD  GLU A   1      -6.279  15.841  68.223  1.00  0.00    -0.114 C  
ATOM     19  OE2 GLU A   1      -5.818  15.557  69.314  1.00  0.00    -0.101 OA 
ATOM     20  OE1 GLU A   1      -6.046  17.027  67.617  1.00  0.00    -0.126 OA 
ENDBRANCH  16  17
ENDBRANCH  12  16
ENDBRANCH  10  12
ENDBRANCH   7   8
ENDBRANCH   2   3
BRANCH   2  21
HETATM   21  C   UNK A   0      -5.550   6.125  67.762  1.00  0.00    -0.008 C  
BRANCH  21  22
HETATM   22  C   UNK A   0      -6.690   5.775  66.830  1.00  0.00    -0.058 A  
HETATM   23  C   UNK A   0      -7.793   4.213  65.330  1.00  0.00    -0.086 A  
HETATM   24  C   UNK A   0      -8.838   5.113  65.123  1.00  0.00    -0.146 A  
HETATM   25  C   UNK A   0      -6.726   4.535  66.173  1.00  0.00    -0.053 A  
HETATM   26  H   UNK A   0      -9.054   1.690  63.409  1.00  0.00     0.000 HD 
HETATM   27  C   UNK A   0      -8.797   6.358  65.750  1.00  0.00    -0.111 A  
HETATM   28  C   UNK A   0     -11.098   3.115  62.887  1.00  0.00    -0.022 C  
HETATM   29  N   UNK A   0      -9.880   4.751  64.269  1.00  0.00    -0.346 NA 
HETATM   30  N   UNK A   0      -8.968   2.601  63.860  1.00  0.00    -0.097 N  
HETATM   31  C   UNK A   0      -7.734   6.681  66.602  1.00  0.00    -0.102 A  
HETATM   32  C   UNK A   0      -7.862   2.903  64.630  1.00  0.00    -0.078 C  
HETATM   33  O   UNK A   0      -6.921   2.127  64.763  1.00  0.00    -0.044 OA 
HETATM   34  C   UNK A   0      -9.896   3.495  63.721  1.00  0.00    -0.166 C  
ENDBRANCH  21  22
ENDBRANCH   2  21
TORSDOF 7
ENDMDL
MODEL      332
REMARK 921   NORMALIZED FREE ENERGY PREDICTED BY IDOCK:   -1.72 KCAL/MOL
REMARK 922        TOTAL FREE ENERGY PREDICTED BY IDOCK:   -3.55 KCAL/MOL
REMARK 923 INTER-LIGAND FREE ENERGY PREDICTED BY IDOCK:   -2.55 KCAL/MOL
REMARK 924 INTRA-LIGAND FREE ENERGY PREDICTED BY IDOCK:   -0.99 KCAL/MOL
REMARK 927      BINDING AFFINITY PREDICTED BY RF-SCORE:    0.00 PKD
ROOT
HETATM    1  C   UNK A   0      -5.812  16.568  66.749  1.00  0.00     0.066 C  
HETATM    2  N   UNK A   0      -6.228  15.265  67.260  1.00  0.00    -0.305 NA 
ENDROOT
BRANCH   2   3
HETATM    3  C   UNK A   0      -7.311  15.210  68.097  1.00  0.00    -0.112 A  
HETATM    4  C   UNK A   0      -8.695  15.383  69.979  1.00  0.00     0.355 A  
HETATM    5  C   UNK A   0      -7.534  15.866  69.294  1.00  0.00    -0.219 A  
HETATM    6  S   UNK A   0      -8.668  14.235  67.709  1.00  0.00    -0.192 SA 
HETATM    7  C   UNK A   0      -9.359  14.413  69.256  1.00  0.00     0.170 A  
BRANCH   7   8
HETATM    8  C   UNK A   0     -10.472  13.578  69.672  1.00  0.00     0.545 C  
HETATM    9  O   UNK A   0     -11.382  13.973  70.393  1.00  0.00    -0.114 OA 
ATOM     10  N   GLU A   1     -10.413  12.262  69.235  1.00  0.00    -0.426 N  
ATOM     11  H   GLU A   1      -9.622  11.960  68.666  1.00  0.00     0.000 HD 
BRANCH  10  12
ATOM     12  CA  GLU A   1     -11.464  11.298  69.572  1.00  0.00    -0.307 C  
ATOM     13  C   GLU A   1     -10.866  10.145  70.400  1.00  0.00    -0.301 C  
ATOM     14  O   GLU A   1      -9.540   9.952  70.193  1.00  0.00    -0.245 OA 
ATOM     15  OXT GLU A   1     -11.534   9.371  71.073  1.00  0.00    -0.281 OA 
BRANCH  12  16
ATOM     16  CB  GLU A   1     -12.093  10.759  68.281  1.00  0.00     0.291 C  
BRANCH  16  17
ATOM     17  CG  GLU A   1     -11.887  11.694  67.090  1.00  0.00    -0.090 C  
ATOM     18  CD  GLU A   1     -10.777  11.224  66.185  1.00  0.00    -0.250 C  
ATOM     19  OE2 GLU A   1      -9.813  10.579  66.554  1.00  0.00    -0.191 OA 
ATOM     20  OE1 GLU A   1     -10.941  11.629  64.905  1.00  0.00    -0.303 OA 
ENDBRANCH  16  17
ENDBRANCH  12  16
ENDBRANCH  10  12
ENDBRANCH   7   8
ENDBRANCH   2   3
BRANCH   2  21
HETATM   21  C   UNK A   0      -5.132  14.321  67.556  1.00  0.00     0.253 C  
BRANCH  21  22
HETATM   22  C   UNK A   0      -5.661  12.933  67.844  1.00  0.00    -0.121 A  
HETATM   23  C   UNK A   0      -6.663  10.852  67.087  1.00  0.00    -0.088 A  
HETATM   24  C   UNK A   0      -6.613  10.331  68.379  1.00  0.00    -0.056 A  
HETATM   25  C   UNK A   0      -6.195  12.141  66.815  1.00  0.00     0.125 A  
HETATM   26  H   UNK A   0      -7.956   8.074  65.586  1.00  0.00     0.000 HD 
HETATM   27  C   UNK A   0      -6.109  11.121  69.411  1.00  0.00    -0.071 A  
HETATM   28  C   UNK A   0      -7.946   6.865  67.826  1.00  0.00    -0.114 C  
HETATM   29  N   UNK A   0      -7.096   9.042  68.604  1.00  0.00    -0.070 NA 
HETATM   30  N   UNK A   0      -7.612   8.697  66.317  1.00  0.00    -0.093 N  
HETATM   31  C   UNK A   0      -5.631  12.409  69.142  1.00  0.00    -0.071 A  
HETATM   32  C   UNK A   0      -7.223   9.987  66.015  1.00  0.00    -0.112 C  
HETATM   33  O   UNK A   0      -7.322  10.458  64.886  1.00  0.00    -0.134 OA 
HETATM   34  C   UNK A   0      -7.530   8.290  67.544  1.00  0.00    -0.094 C  
ENDBRANCH  21  22
ENDBRANCH   2  21
TORSDOF 7
ENDMDL
MODEL      333
REMARK 921   NORMALIZED FREE ENERGY PREDICTED BY IDOCK:   -1.71 KCAL/MOL
REMARK 922        TOTAL FREE ENERGY PREDICTED BY IDOCK:   -3.55 KCAL/MOL
REMARK 923 INTER-LIGAND FREE ENERGY PREDICTED BY IDOCK:   -3.18 KCAL/MOL
REMARK 924 INTRA-LIGAND FREE ENERGY PREDICTED BY IDOCK:   -0.37 KCAL/MOL
REMARK 927      BINDING AFFINITY PREDICTED BY RF-SCORE:    0.00 PKD
ROOT
HETATM    1  C   UNK A   0     -11.121   8.742  67.030  1.00  0.00     0.564 C  
HETATM    2  N   UNK A   0     -10.508   9.517  68.105  1.00  0.00    -0.213 NA 
ENDROOT
BRANCH   2   3
HETATM    3  C   UNK A   0      -9.677  10.554  67.767  1.00  0.00    -0.160 A  
HETATM    4  C   UNK A   0      -7.870  11.794  66.943  1.00  0.00    -0.141 A  
HETATM    5  C   UNK A   0      -8.636  10.589  66.857  1.00  0.00    -0.125 A  
HETATM    6  S   UNK A   0      -9.864  12.097  68.493  1.00  0.00    -0.112 SA 
HETATM    7  C   UNK A   0      -8.385  12.673  67.875  1.00  0.00    -0.172 A  
BRANCH   7   8
HETATM    8  C   UNK A   0      -7.811  13.914  68.361  1.00  0.00    -0.138 C  
HETATM    9  O   UNK A   0      -7.349  14.050  69.489  1.00  0.00     0.001 OA 
ATOM     10  N   GLU A   1      -7.863  14.975  67.468  1.00  0.00    -0.166 N  
ATOM     11  H   GLU A   1      -8.287  14.834  66.551  1.00  0.00     0.000 HD 
BRANCH  10  12
ATOM     12  CA  GLU A   1      -7.322  16.292  67.813  1.00  0.00    -0.132 C  
ATOM     13  C   GLU A   1      -8.452  17.200  68.331  1.00  0.00    -0.241 C  
ATOM     14  O   GLU A   1      -9.683  16.856  67.876  1.00  0.00    -0.245 OA 
ATOM     15  OXT GLU A   1      -8.264  18.227  68.970  1.00  0.00    -0.198 OA 
BRANCH  12  16
ATOM     16  CB  GLU A   1      -6.662  16.912  66.576  1.00  0.00    -0.236 C  
BRANCH  16  17
ATOM     17  CG  GLU A   1      -6.041  18.279  66.861  1.00  0.00    -0.180 C  
ATOM     18  CD  GLU A   1      -6.347  19.279  65.776  1.00  0.00    -0.223 C  
ATOM     19  OE2 GLU A   1      -6.539  18.992  64.608  1.00  0.00    -0.462 OA 
ATOM     20  OE1 GLU A   1      -6.352  20.554  66.227  1.00  0.00    -0.201 OA 
ENDBRANCH  16  17
ENDBRANCH  12  16
ENDBRANCH  10  12
ENDBRANCH   7   8
ENDBRANCH   2   3
BRANCH   2  21
HETATM   21  C   UNK A   0     -10.126   8.746  69.304  1.00  0.00    -0.204 C  
BRANCH  21  22
HETATM   22  C   UNK A   0      -9.218   7.589  68.951  1.00  0.00    -0.142 A  
HETATM   23  C   UNK A   0      -8.898   5.326  68.124  1.00  0.00    -0.107 A  
HETATM   24  C   UNK A   0      -7.515   5.447  68.258  1.00  0.00    -0.073 A  
HETATM   25  C   UNK A   0      -9.747   6.382  68.468  1.00  0.00    -0.134 A  
HETATM   26  H   UNK A   0      -8.897   2.179  66.807  1.00  0.00     0.000 HD 
HETATM   27  C   UNK A   0      -6.983   6.633  68.763  1.00  0.00    -0.080 A  
HETATM   28  C   UNK A   0      -6.354   2.142  66.908  1.00  0.00    -0.027 C  
HETATM   29  N   UNK A   0      -6.708   4.365  67.908  1.00  0.00    -0.050 NA 
HETATM   30  N   UNK A   0      -8.551   3.049  67.210  1.00  0.00    -0.098 N  
HETATM   31  C   UNK A   0      -7.829   7.697  69.099  1.00  0.00    -0.118 A  
HETATM   32  C   UNK A   0      -9.430   4.041  67.600  1.00  0.00    -0.183 C  
HETATM   33  O   UNK A   0     -10.648   3.906  67.531  1.00  0.00     0.876 OA 
HETATM   34  C   UNK A   0      -7.280   3.244  67.367  1.00  0.00    -0.058 C  
ENDBRANCH  21  22
ENDBRANCH   2  21
TORSDOF 7
ENDMDL
MODEL      334
REMARK 921   NORMALIZED FREE ENERGY PREDICTED BY IDOCK:   -1.46 KCAL/MOL
REMARK 922        TOTAL FREE ENERGY PREDICTED BY IDOCK:   -3.19 KCAL/MOL
REMARK 923 INTER-LIGAND FREE ENERGY PREDICTED BY IDOCK:   -5.69 KCAL/MOL
REMARK 924 INTRA-LIGAND FREE ENERGY PREDICTED BY IDOCK:    2.50 KCAL/MOL
REMARK 927      BINDING AFFINITY PREDICTED BY RF-SCORE:    0.00 PKD
ROOT
HETATM    1  C   UNK A   0      -9.741  16.398  66.931  1.00  0.00    -0.251 C  
HETATM    2  N   UNK A   0     -10.161  15.199  67.649  1.00  0.00    -0.230 NA 
ENDROOT
BRANCH   2   3
HETATM    3  C   UNK A   0      -9.375  14.079  67.562  1.00  0.00    -0.209 A  
HETATM    4  C   UNK A   0      -8.329  12.137  66.774  1.00  0.00    -0.111 A  
HETATM    5  C   UNK A   0      -8.965  13.376  66.443  1.00  0.00     0.015 A  
HETATM    6  S   UNK A   0      -8.722  13.356  68.973  1.00  0.00     0.557 SA 
HETATM    7  C   UNK A   0      -8.216  11.960  68.139  1.00  0.00    -0.158 A  
BRANCH   7   8
HETATM    8  C   UNK A   0      -7.781  10.779  68.864  1.00  0.00    -0.129 C  
HETATM    9  O   UNK A   0      -6.828  10.772  69.636  1.00  0.00    -0.104 OA 
ATOM     10  N   GLU A   1      -8.494   9.622  68.585  1.00  0.00    -0.117 N  
ATOM     11  H   GLU A   1      -9.258   9.658  67.910  1.00  0.00     0.000 HD 
BRANCH  10  12
ATOM     12  CA  GLU A   1      -8.175   8.351  69.239  1.00  0.00    -0.116 C  
ATOM     13  C   GLU A   1      -8.826   8.304  70.633  1.00  0.00    -0.143 C  
ATOM     14  O   GLU A   1      -9.054   9.527  71.172  1.00  0.00    -0.239 OA 
ATOM     15  OXT GLU A   1      -8.993   7.275  71.274  1.00  0.00    -0.139 OA 
BRANCH  12  16
ATOM     16  CB  GLU A   1      -6.653   8.206  69.354  1.00  0.00    -0.035 C  
BRANCH  16  17
ATOM     17  CG  GLU A   1      -6.224   7.499  70.639  1.00  0.00    -0.035 C  
ATOM     18  CD  GLU A   1      -5.981   8.469  71.767  1.00  0.00    -0.051 C  
ATOM     19  OE2 GLU A   1      -5.611   9.619  71.620  1.00  0.00    -0.075 OA 
ATOM     20  OE1 GLU A   1      -6.183   7.915  72.984  1.00  0.00    -0.060 OA 
ENDBRANCH  16  17
ENDBRANCH  12  16
ENDBRANCH  10  12
ENDBRANCH   7   8
ENDBRANCH   2   3
BRANCH   2  21
HETATM   21  C   UNK A   0     -11.617  14.966  67.698  1.00  0.00    -0.339 C  
BRANCH  21  22
HETATM   22  C   UNK A   0     -11.946  13.674  68.415  1.00  0.00    -0.391 A  
HETATM   23  C   UNK A   0     -12.743  12.490  70.382  1.00  0.00     0.024 A  
HETATM   24  C   UNK A   0     -12.593  11.264  69.734  1.00  0.00    -0.025 A  
HETATM   25  C   UNK A   0     -12.423  13.687  69.735  1.00  0.00    -0.193 A  
HETATM   26  H   UNK A   0     -14.026  11.250  73.290  1.00  0.00     0.000 HD 
HETATM   27  C   UNK A   0     -12.094  11.241  68.432  1.00  0.00    -0.110 A  
HETATM   28  C   UNK A   0     -13.891   8.892  72.339  1.00  0.00    -0.518 C  
HETATM   29  N   UNK A   0     -12.920  10.095  70.421  1.00  0.00    -0.585 NA 
HETATM   30  N   UNK A   0     -13.627  11.275  72.352  1.00  0.00    -0.392 N  
HETATM   31  C   UNK A   0     -11.781  12.438  67.777  1.00  0.00    -0.413 A  
HETATM   32  C   UNK A   0     -13.260  12.475  71.776  1.00  0.00    -0.344 C  
HETATM   33  O   UNK A   0     -13.344  13.545  72.372  1.00  0.00    -0.493 OA 
HETATM   34  C   UNK A   0     -13.456  10.181  71.679  1.00  0.00    -0.284 C  
ENDBRANCH  21  22
ENDBRANCH   2  21
TORSDOF 7
ENDMDL
MODEL      335
REMARK 921   NORMALIZED FREE ENERGY PREDICTED BY IDOCK:   -1.13 KCAL/MOL
REMARK 922        TOTAL FREE ENERGY PREDICTED BY IDOCK:   -2.72 KCAL/MOL
REMARK 923 INTER-LIGAND FREE ENERGY PREDICTED BY IDOCK:   -6.81 KCAL/MOL
REMARK 924 INTRA-LIGAND FREE ENERGY PREDICTED BY IDOCK:    4.09 KCAL/MOL
REMARK 927      BINDING AFFINITY PREDICTED BY RF-SCORE:    0.00 PKD
ROOT
HETATM    1  C   UNK A   0      -9.799  16.515  66.983  1.00  0.00    -0.257 C  
HETATM    2  N   UNK A   0     -10.205  15.386  67.815  1.00  0.00    -0.238 NA 
ENDROOT
BRANCH   2   3
HETATM    3  C   UNK A   0      -9.415  14.266  67.824  1.00  0.00    -0.216 A  
HETATM    4  C   UNK A   0      -7.635  12.787  68.186  1.00  0.00    -0.134 A  
HETATM    5  C   UNK A   0      -8.330  13.959  68.626  1.00  0.00    -0.088 A  
HETATM    6  S   UNK A   0      -9.723  12.970  66.743  1.00  0.00    -0.253 SA 
HETATM    7  C   UNK A   0      -8.246  12.198  67.097  1.00  0.00    -0.182 A  
BRANCH   7   8
HETATM    8  C   UNK A   0      -7.766  11.102  66.275  1.00  0.00    -0.097 C  
HETATM    9  O   UNK A   0      -8.390  10.060  66.105  1.00  0.00    -0.117 OA 
ATOM     10  N   GLU A   1      -6.509  11.291  65.720  1.00  0.00    -0.361 N  
ATOM     11  H   GLU A   1      -6.004  12.156  65.913  1.00  0.00     0.000 HD 
BRANCH  10  12
ATOM     12  CA  GLU A   1      -5.890  10.274  64.865  1.00  0.00    -0.135 C  
ATOM     13  C   GLU A   1      -6.560  10.283  63.478  1.00  0.00    -0.095 C  
ATOM     14  O   GLU A   1      -7.829  10.758  63.487  1.00  0.00     0.013 OA 
ATOM     15  OXT GLU A   1      -6.066   9.775  62.480  1.00  0.00    -0.097 OA 
BRANCH  12  16
ATOM     16  CB  GLU A   1      -6.038   8.897  65.523  1.00  0.00    -0.055 C  
BRANCH  16  17
ATOM     17  CG  GLU A   1      -6.524   7.827  64.546  1.00  0.00    -0.048 C  
ATOM     18  CD  GLU A   1      -7.410   6.808  65.216  1.00  0.00    -0.084 C  
ATOM     19  OE2 GLU A   1      -7.332   6.491  66.389  1.00  0.00    -0.071 OA 
ATOM     20  OE1 GLU A   1      -8.293   6.243  64.362  1.00  0.00    -0.086 OA 
ENDBRANCH  16  17
ENDBRANCH  12  16
ENDBRANCH  10  12
ENDBRANCH   7   8
ENDBRANCH   2   3
BRANCH   2  21
HETATM   21  C   UNK A   0     -11.660  15.153  67.901  1.00  0.00    -0.311 C  
BRANCH  21  22
HETATM   22  C   UNK A   0     -11.969  13.843  68.592  1.00  0.00    -0.401 A  
HETATM   23  C   UNK A   0     -12.718  12.606  70.546  1.00  0.00    -0.066 A  
HETATM   24  C   UNK A   0     -12.580  11.398  69.863  1.00  0.00    -0.027 A  
HETATM   25  C   UNK A   0     -12.415  13.821  69.922  1.00  0.00    -0.259 A  
HETATM   26  H   UNK A   0     -13.932  11.287  73.449  1.00  0.00     0.000 HD 
HETATM   27  C   UNK A   0     -12.110  11.410  68.550  1.00  0.00    -0.168 A  
HETATM   28  C   UNK A   0     -13.812   8.956  72.434  1.00  0.00    -0.518 C  
HETATM   29  N   UNK A   0     -12.888  10.211  70.527  1.00  0.00    -0.555 NA 
HETATM   30  N   UNK A   0     -13.554  11.338  72.503  1.00  0.00    -0.268 N  
HETATM   31  C   UNK A   0     -11.815  12.624  67.919  1.00  0.00    -0.388 A  
HETATM   32  C   UNK A   0     -13.203  12.553  71.950  1.00  0.00    -0.392 C  
HETATM   33  O   UNK A   0     -13.275  13.607  72.575  1.00  0.00    -0.482 OA 
HETATM   34  C   UNK A   0     -13.396  10.262  71.798  1.00  0.00    -0.375 C  
ENDBRANCH  21  22
ENDBRANCH   2  21
TORSDOF 7
ENDMDL
MODEL      336
REMARK 921   NORMALIZED FREE ENERGY PREDICTED BY IDOCK:   -1.05 KCAL/MOL
REMARK 922        TOTAL FREE ENERGY PREDICTED BY IDOCK:   -2.60 KCAL/MOL
REMARK 923 INTER-LIGAND FREE ENERGY PREDICTED BY IDOCK:   -4.14 KCAL/MOL
REMARK 924 INTRA-LIGAND FREE ENERGY PREDICTED BY IDOCK:    1.54 KCAL/MOL
REMARK 927      BINDING AFFINITY PREDICTED BY RF-SCORE:    0.00 PKD
ROOT
HETATM    1  C   UNK A   0     -10.168   2.495  72.364  1.00  0.00    -0.148 C  
HETATM    2  N   UNK A   0     -10.466   3.824  71.840  1.00  0.00     0.039 NA 
ENDROOT
BRANCH   2   3
HETATM    3  C   UNK A   0      -9.832   4.229  70.694  1.00  0.00    -0.195 A  
HETATM    4  C   UNK A   0      -8.196   4.643  69.070  1.00  0.00    -0.081 A  
HETATM    5  C   UNK A   0      -8.611   3.835  70.176  1.00  0.00    -0.107 A  
HETATM    6  S   UNK A   0     -10.564   5.374  69.648  1.00  0.00    -0.176 SA 
HETATM    7  C   UNK A   0      -9.141   5.593  68.736  1.00  0.00    -0.118 A  
BRANCH   7   8
HETATM    8  C   UNK A   0      -9.027   6.688  67.789  1.00  0.00    -0.112 C  
HETATM    9  O   UNK A   0      -9.387   6.611  66.620  1.00  0.00    -0.154 OA 
ATOM     10  N   GLU A   1      -8.428   7.835  68.289  1.00  0.00    -0.124 N  
ATOM     11  H   GLU A   1      -8.109   7.850  69.258  1.00  0.00     0.000 HD 
BRANCH  10  12
ATOM     12  CA  GLU A   1      -8.244   9.026  67.455  1.00  0.00    -0.108 C  
ATOM     13  C   GLU A   1      -9.558   9.827  67.393  1.00  0.00    -0.155 C  
ATOM     14  O   GLU A   1     -10.667   9.077  67.607  1.00  0.00    -0.248 OA 
ATOM     15  OXT GLU A   1      -9.628  10.996  67.039  1.00  0.00    -0.174 OA 
BRANCH  12  16
ATOM     16  CB  GLU A   1      -7.810   8.600  66.048  1.00  0.00    -0.102 C  
BRANCH  16  17
ATOM     17  CG  GLU A   1      -7.097   9.718  65.287  1.00  0.00    -0.119 C  
ATOM     18  CD  GLU A   1      -6.285   9.190  64.132  1.00  0.00    -0.076 C  
ATOM     19  OE2 GLU A   1      -5.776   8.085  64.095  1.00  0.00    -0.051 OA 
ATOM     20  OE1 GLU A   1      -6.144  10.095  63.137  1.00  0.00    -0.124 OA 
ENDBRANCH  16  17
ENDBRANCH  12  16
ENDBRANCH  10  12
ENDBRANCH   7   8
ENDBRANCH   2   3
BRANCH   2  21
HETATM   21  C   UNK A   0     -10.695   4.870  72.857  1.00  0.00    -0.235 C  
BRANCH  21  22
HETATM   22  C   UNK A   0      -9.814   6.077  72.616  1.00  0.00    -0.180 A  
HETATM   23  C   UNK A   0      -7.624   7.051  72.212  1.00  0.00    -0.090 A  
HETATM   24  C   UNK A   0      -8.182   8.327  72.129  1.00  0.00    -0.157 A  
HETATM   25  C   UNK A   0      -8.427   5.933  72.455  1.00  0.00    -0.116 A  
HETATM   26  H   UNK A   0      -4.408   7.977  71.548  1.00  0.00     0.000 HD 
HETATM   27  C   UNK A   0      -9.555   8.482  72.314  1.00  0.00    -0.377 A  
HETATM   28  C   UNK A   0      -5.159  10.397  71.306  1.00  0.00    -0.085 C  
HETATM   29  N   UNK A   0      -7.341   9.415  71.890  1.00  0.00    -0.133 NA 
HETATM   30  N   UNK A   0      -5.410   8.050  71.723  1.00  0.00    -0.034 N  
HETATM   31  C   UNK A   0     -10.364   7.363  72.549  1.00  0.00    -0.272 A  
HETATM   32  C   UNK A   0      -6.155   6.927  72.027  1.00  0.00    -0.038 C  
HETATM   33  O   UNK A   0      -5.649   5.816  72.154  1.00  0.00    -0.021 OA 
HETATM   34  C   UNK A   0      -6.008   9.198  71.662  1.00  0.00    -0.072 C  
ENDBRANCH  21  22
ENDBRANCH   2  21
TORSDOF 7
ENDMDL
MODEL      337
REMARK 921   NORMALIZED FREE ENERGY PREDICTED BY IDOCK:   -0.83 KCAL/MOL
REMARK 922        TOTAL FREE ENERGY PREDICTED BY IDOCK:   -2.30 KCAL/MOL
REMARK 923 INTER-LIGAND FREE ENERGY PREDICTED BY IDOCK:   -4.86 KCAL/MOL
REMARK 924 INTRA-LIGAND FREE ENERGY PREDICTED BY IDOCK:    2.56 KCAL/MOL
REMARK 927      BINDING AFFINITY PREDICTED BY RF-SCORE:    0.00 PKD
ROOT
HETATM    1  C   UNK A   0     -10.451   7.991  69.309  1.00  0.00    -0.215 C  
HETATM    2  N   UNK A   0     -10.807   9.111  68.443  1.00  0.00    -0.447 NA 
ENDROOT
BRANCH   2   3
HETATM    3  C   UNK A   0      -9.797   9.799  67.822  1.00  0.00    -0.160 A  
HETATM    4  C   UNK A   0      -8.025  10.371  66.401  1.00  0.00    -0.130 A  
HETATM    5  C   UNK A   0      -9.184   9.556  66.606  1.00  0.00    -0.190 A  
HETATM    6  S   UNK A   0      -9.119  11.199  68.544  1.00  0.00    -0.168 SA 
HETATM    7  C   UNK A   0      -7.822  11.256  67.440  1.00  0.00    -0.128 A  
BRANCH   7   8
HETATM    8  C   UNK A   0      -6.684  12.126  67.677  1.00  0.00    -0.118 C  
HETATM    9  O   UNK A   0      -5.518  11.751  67.605  1.00  0.00    -0.051 OA 
ATOM     10  N   GLU A   1      -7.005  13.424  68.047  1.00  0.00    -0.109 N  
ATOM     11  H   GLU A   1      -7.986  13.691  68.132  1.00  0.00     0.000 HD 
BRANCH  10  12
ATOM     12  CA  GLU A   1      -5.965  14.421  68.318  1.00  0.00    -0.120 C  
ATOM     13  C   GLU A   1      -6.330  15.225  69.580  1.00  0.00    -0.145 C  
ATOM     14  O   GLU A   1      -7.660  15.261  69.840  1.00  0.00    -0.169 OA 
ATOM     15  OXT GLU A   1      -5.529  15.897  70.216  1.00  0.00    -0.148 OA 
BRANCH  12  16
ATOM     16  CB  GLU A   1      -5.827  15.355  67.110  1.00  0.00     0.419 C  
BRANCH  16  17
ATOM     17  CG  GLU A   1      -5.286  16.733  67.489  1.00  0.00    -0.154 C  
ATOM     18  CD  GLU A   1      -6.145  17.848  66.951  1.00  0.00    -0.153 C  
ATOM     19  OE2 GLU A   1      -6.811  17.777  65.934  1.00  0.00    -0.279 OA 
ATOM     20  OE1 GLU A   1      -6.075  18.970  67.703  1.00  0.00    -0.205 OA 
ENDBRANCH  16  17
ENDBRANCH  12  16
ENDBRANCH  10  12
ENDBRANCH   7   8
ENDBRANCH   2   3
BRANCH   2  21
HETATM   21  C   UNK A   0     -11.959   9.917  68.891  1.00  0.00     0.702 C  
BRANCH  21  22
HETATM   22  C   UNK A   0     -11.801  11.371  68.500  1.00  0.00    -0.364 A  
HETATM   23  C   UNK A   0     -11.469  13.083  66.808  1.00  0.00    -0.392 A  
HETATM   24  C   UNK A   0     -11.544  14.086  67.774  1.00  0.00    -0.345 A  
HETATM   25  C   UNK A   0     -11.594  11.736  67.161  1.00  0.00    -0.342 A  
HETATM   26  H   UNK A   0     -11.113  15.149  64.116  1.00  0.00     0.000 HD 
HETATM   27  C   UNK A   0     -11.721  13.729  69.110  1.00  0.00    -0.379 A  
HETATM   28  C   UNK A   0     -11.250  17.171  65.655  1.00  0.00     0.488 C  
HETATM   29  N   UNK A   0     -11.408  15.416  67.376  1.00  0.00    -0.290 NA 
HETATM   30  N   UNK A   0     -11.210  14.844  65.084  1.00  0.00    -0.369 N  
HETATM   31  C   UNK A   0     -11.856  12.383  69.468  1.00  0.00    -0.368 A  
HETATM   32  C   UNK A   0     -11.261  13.499  65.396  1.00  0.00    -0.289 C  
HETATM   33  O   UNK A   0     -11.139  12.621  64.547  1.00  0.00    -0.298 OA 
HETATM   34  C   UNK A   0     -11.289  15.711  66.043  1.00  0.00     0.053 C  
ENDBRANCH  21  22
ENDBRANCH   2  21
TORSDOF 7
ENDMDL
MODEL      338
REMARK 921   NORMALIZED FREE ENERGY PREDICTED BY IDOCK:   -0.41 KCAL/MOL
REMARK 922        TOTAL FREE ENERGY PREDICTED BY IDOCK:   -1.71 KCAL/MOL
REMARK 923 INTER-LIGAND FREE ENERGY PREDICTED BY IDOCK:   -4.28 KCAL/MOL
REMARK 924 INTRA-LIGAND FREE ENERGY PREDICTED BY IDOCK:    2.57 KCAL/MOL
REMARK 927      BINDING AFFINITY PREDICTED BY RF-SCORE:    0.00 PKD
ROOT
HETATM    1  C   UNK A   0     -13.922  13.808  70.795  1.00  0.00     0.840 C  
HETATM    2  N   UNK A   0     -12.572  13.252  70.823  1.00  0.00    -0.315 NA 
ENDROOT
BRANCH   2   3
HETATM    3  C   UNK A   0     -11.567  13.954  70.209  1.00  0.00    -0.147 A  
HETATM    4  C   UNK A   0      -9.786  15.420  69.806  1.00  0.00    -0.236 A  
HETATM    5  C   UNK A   0     -10.499  14.632  70.766  1.00  0.00     0.688 A  
HETATM    6  S   UNK A   0     -11.498  14.067  68.499  1.00  0.00    -0.325 SA 
HETATM    7  C   UNK A   0     -10.294  15.272  68.532  1.00  0.00    -0.231 A  
BRANCH   7   8
HETATM    8  C   UNK A   0      -9.953  16.013  67.330  1.00  0.00    -0.241 C  
HETATM    9  O   UNK A   0     -10.717  16.150  66.380  1.00  0.00    -0.294 OA 
ATOM     10  N   GLU A   1      -8.665  16.526  67.303  1.00  0.00    -0.184 N  
ATOM     11  H   GLU A   1      -8.045  16.362  68.097  1.00  0.00     0.000 HD 
BRANCH  10  12
ATOM     12  CA  GLU A   1      -8.174  17.299  66.159  1.00  0.00    -0.223 C  
ATOM     13  C   GLU A   1      -6.741  17.790  66.438  1.00  0.00    -0.246 C  
ATOM     14  O   GLU A   1      -6.449  17.906  67.758  1.00  0.00    -0.182 OA 
ATOM     15  OXT GLU A   1      -5.974  18.184  65.570  1.00  0.00    -0.211 OA 
BRANCH  12  16
ATOM     16  CB  GLU A   1      -9.108  18.489  65.911  1.00  0.00     0.213 C  
BRANCH  16  17
ATOM     17  CG  GLU A   1      -9.601  19.132  67.207  1.00  0.00    -0.375 C  
ATOM     18  CD  GLU A   1      -8.972  20.480  67.447  1.00  0.00    -0.297 C  
ATOM     19  OE2 GLU A   1      -7.865  20.804  67.057  1.00  0.00    -0.287 OA 
ATOM     20  OE1 GLU A   1      -9.756  21.297  68.185  1.00  0.00     0.299 OA 
ENDBRANCH  16  17
ENDBRANCH  12  16
ENDBRANCH  10  12
ENDBRANCH   7   8
ENDBRANCH   2   3
BRANCH   2  21
HETATM   21  C   UNK A   0     -12.489  11.782  70.724  1.00  0.00    -0.312 C  
BRANCH  21  22
HETATM   22  C   UNK A   0     -11.585  11.355  69.588  1.00  0.00    -0.399 A  
HETATM   23  C   UNK A   0     -11.100  11.203  67.211  1.00  0.00    -0.366 A  
HETATM   24  C   UNK A   0      -9.875  10.591  67.476  1.00  0.00    -0.168 A  
HETATM   25  C   UNK A   0     -11.952  11.582  68.253  1.00  0.00    -0.239 A  
HETATM   26  H   UNK A   0     -10.768  11.309  63.818  1.00  0.00     0.000 HD 
HETATM   27  C   UNK A   0      -9.515  10.337  68.799  1.00  0.00    -0.176 A  
HETATM   28  C   UNK A   0      -8.474  10.222  64.013  1.00  0.00    -0.177 C  
HETATM   29  N   UNK A   0      -9.061  10.225  66.405  1.00  0.00    -0.151 NA 
HETATM   30  N   UNK A   0     -10.558  11.112  64.796  1.00  0.00    -0.319 N  
HETATM   31  C   UNK A   0     -10.361  10.723  69.845  1.00  0.00     0.025 A  
HETATM   32  C   UNK A   0     -11.459  11.442  65.789  1.00  0.00     0.107 C  
HETATM   33  O   UNK A   0     -12.558  11.929  65.545  1.00  0.00    -0.121 OA 
HETATM   34  C   UNK A   0      -9.440  10.547  65.129  1.00  0.00    -0.233 C  
ENDBRANCH  21  22
ENDBRANCH   2  21
TORSDOF 7
ENDMDL
MODEL      339
REMARK 921   NORMALIZED FREE ENERGY PREDICTED BY IDOCK:    0.19 KCAL/MOL
REMARK 922        TOTAL FREE ENERGY PREDICTED BY IDOCK:   -0.86 KCAL/MOL
REMARK 923 INTER-LIGAND FREE ENERGY PREDICTED BY IDOCK:   -6.02 KCAL/MOL
REMARK 924 INTRA-LIGAND FREE ENERGY PREDICTED BY IDOCK:    5.16 KCAL/MOL
REMARK 927      BINDING AFFINITY PREDICTED BY RF-SCORE:    0.00 PKD
ROOT
HETATM    1  C   UNK A   0     -14.036   7.853  71.937  1.00  0.00    -0.378 C  
HETATM    2  N   UNK A   0     -13.307   8.953  71.314  1.00  0.00    -0.529 NA 
ENDROOT
BRANCH   2   3
HETATM    3  C   UNK A   0     -12.191   8.659  70.575  1.00  0.00     0.209 A  
HETATM    4  C   UNK A   0     -10.599   7.528  69.282  1.00  0.00    -0.215 A  
HETATM    5  C   UNK A   0     -11.967   7.616  69.695  1.00  0.00     0.818 A  
HETATM    6  S   UNK A   0     -10.805   9.666  70.646  1.00  0.00    -0.342 SA 
HETATM    7  C   UNK A   0      -9.831   8.546  69.811  1.00  0.00    -0.186 A  
BRANCH   7   8
HETATM    8  C   UNK A   0      -8.389   8.711  69.757  1.00  0.00    -0.123 C  
HETATM    9  O   UNK A   0      -7.642   8.450  70.695  1.00  0.00    -0.062 OA 
ATOM     10  N   GLU A   1      -7.902   9.240  68.570  1.00  0.00    -0.089 N  
ATOM     11  H   GLU A   1      -8.557   9.478  67.825  1.00  0.00     0.000 HD 
BRANCH  10  12
ATOM     12  CA  GLU A   1      -6.469   9.463  68.364  1.00  0.00    -0.053 C  
ATOM     13  C   GLU A   1      -6.221  10.934  67.980  1.00  0.00    -0.053 C  
ATOM     14  O   GLU A   1      -7.289  11.535  67.400  1.00  0.00    -0.107 OA 
ATOM     15  OXT GLU A   1      -5.129  11.481  68.047  1.00  0.00    -0.043 OA 
BRANCH  12  16
ATOM     16  CB  GLU A   1      -5.962   8.529  67.260  1.00  0.00    -0.051 C  
BRANCH  16  17
ATOM     17  CG  GLU A   1      -7.098   7.878  66.471  1.00  0.00    -0.075 C  
ATOM     18  CD  GLU A   1      -7.787   8.858  65.556  1.00  0.00    -0.100 C  
ATOM     19  OE2 GLU A   1      -7.875  10.054  65.766  1.00  0.00    -0.117 OA 
ATOM     20  OE1 GLU A   1      -8.341   8.262  64.476  1.00  0.00    -0.154 OA 
ENDBRANCH  16  17
ENDBRANCH  12  16
ENDBRANCH  10  12
ENDBRANCH   7   8
ENDBRANCH   2   3
BRANCH   2  21
HETATM   21  C   UNK A   0     -13.254  10.203  72.099  1.00  0.00    -0.362 C  
BRANCH  21  22
HETATM   22  C   UNK A   0     -12.838  11.377  71.239  1.00  0.00    -0.481 A  
HETATM   23  C   UNK A   0     -12.435  13.758  70.962  1.00  0.00    -0.458 A  
HETATM   24  C   UNK A   0     -12.027  13.558  69.643  1.00  0.00    -0.337 A  
HETATM   25  C   UNK A   0     -12.840  12.681  71.757  1.00  0.00    -0.343 A  
HETATM   26  H   UNK A   0     -11.881  17.123  71.046  1.00  0.00     0.000 HD 
HETATM   27  C   UNK A   0     -12.049  12.269  69.113  1.00  0.00    -0.214 A  
HETATM   28  C   UNK A   0     -11.055  17.043  68.640  1.00  0.00    -0.128 C  
HETATM   29  N   UNK A   0     -11.637  14.663  68.885  1.00  0.00    -0.294 NA 
HETATM   30  N   UNK A   0     -11.944  16.171  70.688  1.00  0.00    -0.481 N  
HETATM   31  C   UNK A   0     -12.445  11.187  69.908  1.00  0.00    -0.257 A  
HETATM   32  C   UNK A   0     -12.415  15.148  71.487  1.00  0.00    -0.350 C  
HETATM   33  O   UNK A   0     -12.825  15.339  72.629  1.00  0.00    -0.329 OA 
HETATM   34  C   UNK A   0     -11.583  15.898  69.473  1.00  0.00    -0.335 C  
ENDBRANCH  21  22
ENDBRANCH   2  21
TORSDOF 7
ENDMDL
MODEL      340
REMARK 921   NORMALIZED FREE ENERGY PREDICTED BY IDOCK:    1.05 KCAL/MOL
REMARK 922        TOTAL FREE ENERGY PREDICTED BY IDOCK:    0.35 KCAL/MOL
REMARK 923 INTER-LIGAND FREE ENERGY PREDICTED BY IDOCK:   -3.32 KCAL/MOL
REMARK 924 INTRA-LIGAND FREE ENERGY PREDICTED BY IDOCK:    3.67 KCAL/MOL
REMARK 927      BINDING AFFINITY PREDICTED BY RF-SCORE:    0.00 PKD
ROOT
HETATM    1  C   UNK A   0     -11.477  15.755  71.233  1.00  0.00    -0.422 C  
HETATM    2  N   UNK A   0     -10.644  16.021  70.064  1.00  0.00    -0.308 NA 
ENDROOT
BRANCH   2   3
HETATM    3  C   UNK A   0     -11.008  15.464  68.865  1.00  0.00    -0.261 A  
HETATM    4  C   UNK A   0     -12.159  14.970  66.886  1.00  0.00     0.121 A  
HETATM    5  C   UNK A   0     -11.876  15.941  67.900  1.00  0.00     0.155 A  
HETATM    6  S   UNK A   0     -10.345  13.965  68.360  1.00  0.00    -0.251 SA 
HETATM    7  C   UNK A   0     -11.451  13.801  67.075  1.00  0.00    -0.346 A  
BRANCH   7   8
HETATM    8  C   UNK A   0     -11.581  12.541  66.364  1.00  0.00    -0.391 C  
HETATM    9  O   UNK A   0     -12.458  12.318  65.537  1.00  0.00    -0.597 OA 
ATOM     10  N   GLU A   1     -10.660  11.567  66.723  1.00  0.00    -0.239 N  
ATOM     11  H   GLU A   1      -9.966  11.777  67.441  1.00  0.00     0.000 HD 
BRANCH  10  12
ATOM     12  CA  GLU A   1     -10.662  10.244  66.092  1.00  0.00     0.028 C  
ATOM     13  C   GLU A   1      -9.845   9.258  66.948  1.00  0.00    -0.214 C  
ATOM     14  O   GLU A   1      -8.902   9.854  67.719  1.00  0.00    -0.128 OA 
ATOM     15  OXT GLU A   1      -9.920   8.041  66.846  1.00  0.00    -0.217 OA 
BRANCH  12  16
ATOM     16  CB  GLU A   1     -10.068  10.351  64.683  1.00  0.00    -0.378 C  
BRANCH  16  17
ATOM     17  CG  GLU A   1      -8.902   9.387  64.461  1.00  0.00    -0.235 C  
ATOM     18  CD  GLU A   1      -7.922   9.908  63.442  1.00  0.00    -0.153 C  
ATOM     19  OE2 GLU A   1      -8.214  10.644  62.517  1.00  0.00    -0.167 OA 
ATOM     20  OE1 GLU A   1      -6.668   9.439  63.636  1.00  0.00    -0.091 OA 
ENDBRANCH  16  17
ENDBRANCH  12  16
ENDBRANCH  10  12
ENDBRANCH   7   8
ENDBRANCH   2   3
BRANCH   2  21
HETATM   21  C   UNK A   0      -9.194  16.105  70.325  1.00  0.00     1.253 C  
BRANCH  21  22
HETATM   22  C   UNK A   0      -8.407  15.259  69.347  1.00  0.00    -0.232 A  
HETATM   23  C   UNK A   0      -7.191  13.223  68.813  1.00  0.00    -0.088 A  
HETATM   24  C   UNK A   0      -6.973  13.669  67.509  1.00  0.00    -0.143 A  
HETATM   25  C   UNK A   0      -7.899  14.007  69.729  1.00  0.00     0.702 A  
HETATM   26  H   UNK A   0      -5.680  10.185  68.455  1.00  0.00     0.000 HD 
HETATM   27  C   UNK A   0      -7.450  14.923  67.131  1.00  0.00    -0.111 A  
HETATM   28  C   UNK A   0      -5.176  10.728  66.019  1.00  0.00    -0.107 C  
HETATM   29  N   UNK A   0      -6.256  12.855  66.631  1.00  0.00    -0.087 NA 
HETATM   30  N   UNK A   0      -6.017  11.121  68.229  1.00  0.00    -0.046 N  
HETATM   31  C   UNK A   0      -8.167  15.707  68.042  1.00  0.00    -0.146 A  
HETATM   32  C   UNK A   0      -6.651  11.889  69.185  1.00  0.00    -0.103 C  
HETATM   33  O   UNK A   0      -6.791  11.514  70.346  1.00  0.00     0.015 OA 
HETATM   34  C   UNK A   0      -5.857  11.610  67.040  1.00  0.00    -0.135 C  
ENDBRANCH  21  22
ENDBRANCH   2  21
TORSDOF 7
ENDMDL
MODEL      341
REMARK 921   NORMALIZED FREE ENERGY PREDICTED BY IDOCK:    1.37 KCAL/MOL
REMARK 922        TOTAL FREE ENERGY PREDICTED BY IDOCK:    0.81 KCAL/MOL
REMARK 923 INTER-LIGAND FREE ENERGY PREDICTED BY IDOCK:   -3.26 KCAL/MOL
REMARK 924 INTRA-LIGAND FREE ENERGY PREDICTED BY IDOCK:    4.06 KCAL/MOL
REMARK 927      BINDING AFFINITY PREDICTED BY RF-SCORE:    0.00 PKD
ROOT
HETATM    1  C   UNK A   0     -13.663   8.038  72.144  1.00  0.00    -0.174 C  
HETATM    2  N   UNK A   0     -13.076   9.239  71.559  1.00  0.00    -0.352 NA 
ENDROOT
BRANCH   2   3
HETATM    3  C   UNK A   0     -11.953   9.105  70.786  1.00  0.00    -0.191 A  
HETATM    4  C   UNK A   0     -10.516   8.859  68.953  1.00  0.00    -0.225 A  
HETATM    5  C   UNK A   0     -11.788   9.312  69.428  1.00  0.00     0.706 A  
HETATM    6  S   UNK A   0     -10.459   8.635  71.487  1.00  0.00    -0.302 SA 
HETATM    7  C   UNK A   0      -9.722   8.375  69.973  1.00  0.00    -0.176 A  
BRANCH   7   8
HETATM    8  C   UNK A   0      -8.445   7.690  69.878  1.00  0.00    -0.137 C  
HETATM    9  O   UNK A   0      -7.997   7.236  68.831  1.00  0.00    -0.118 OA 
ATOM     10  N   GLU A   1      -7.771   7.535  71.081  1.00  0.00    -0.088 N  
ATOM     11  H   GLU A   1      -8.191   7.895  71.938  1.00  0.00     0.000 HD 
BRANCH  10  12
ATOM     12  CA  GLU A   1      -6.469   6.865  71.147  1.00  0.00    -0.041 C  
ATOM     13  C   GLU A   1      -6.386   5.780  70.057  1.00  0.00    -0.031 C  
ATOM     14  O   GLU A   1      -7.593   5.300  69.669  1.00  0.00    -0.067 OA 
ATOM     15  OXT GLU A   1      -5.338   5.279  69.673  1.00  0.00    -0.003 OA 
BRANCH  12  16
ATOM     16  CB  GLU A   1      -6.286   6.244  72.536  1.00  0.00    -0.058 C  
BRANCH  16  17
ATOM     17  CG  GLU A   1      -7.562   6.293  73.376  1.00  0.00    -0.095 C  
ATOM     18  CD  GLU A   1      -8.309   4.983  73.351  1.00  0.00    -0.110 C  
ATOM     19  OE2 GLU A   1      -8.288   4.195  72.424  1.00  0.00    -0.096 OA 
ATOM     20  OE1 GLU A   1      -9.047   4.783  74.466  1.00  0.00    -0.110 OA 
ENDBRANCH  16  17
ENDBRANCH  12  16
ENDBRANCH  10  12
ENDBRANCH   7   8
ENDBRANCH   2   3
BRANCH   2  21
HETATM   21  C   UNK A   0     -13.142  10.451  72.400  1.00  0.00     0.021 C  
BRANCH  21  22
HETATM   22  C   UNK A   0     -12.744  11.685  71.621  1.00  0.00    -0.375 A  
HETATM   23  C   UNK A   0     -11.997  13.998  71.558  1.00  0.00    -0.038 A  
HETATM   24  C   UNK A   0     -11.966  13.974  70.164  1.00  0.00    -0.330 A  
HETATM   25  C   UNK A   0     -12.384  12.868  72.286  1.00  0.00     0.747 A  
HETATM   26  H   UNK A   0     -10.843  17.187  71.929  1.00  0.00     0.000 HD 
HETATM   27  C   UNK A   0     -12.349  12.812  69.496  1.00  0.00    -0.016 A  
HETATM   28  C   UNK A   0     -10.654  17.408  69.400  1.00  0.00     0.005 C  
HETATM   29  N   UNK A   0     -11.579  15.126  69.480  1.00  0.00    -0.298 NA 
HETATM   30  N   UNK A   0     -11.162  16.329  71.479  1.00  0.00    -0.107 N  
HETATM   31  C   UNK A   0     -12.727  11.675  70.221  1.00  0.00    -0.043 A  
HETATM   32  C   UNK A   0     -11.600  15.260  72.236  1.00  0.00    -0.435 C  
HETATM   33  O   UNK A   0     -11.678  15.307  73.460  1.00  0.00    -0.389 OA 
HETATM   34  C   UNK A   0     -11.162  16.222  70.188  1.00  0.00    -0.333 C  
ENDBRANCH  21  22
ENDBRANCH   2  21
TORSDOF 7
ENDMDL
MODEL      342
REMARK 921   NORMALIZED FREE ENERGY PREDICTED BY IDOCK:    1.79 KCAL/MOL
REMARK 922        TOTAL FREE ENERGY PREDICTED BY IDOCK:    1.40 KCAL/MOL
REMARK 923 INTER-LIGAND FREE ENERGY PREDICTED BY IDOCK:   -2.84 KCAL/MOL
REMARK 924 INTRA-LIGAND FREE ENERGY PREDICTED BY IDOCK:    4.24 KCAL/MOL
REMARK 927      BINDING AFFINITY PREDICTED BY RF-SCORE:    0.00 PKD
ROOT
HETATM    1  C   UNK A   0     -12.568  16.020  73.181  1.00  0.00    -0.520 C  
HETATM    2  N   UNK A   0     -12.324  15.173  72.018  1.00  0.00    -0.333 NA 
ENDROOT
BRANCH   2   3
HETATM    3  C   UNK A   0     -11.591  15.687  70.980  1.00  0.00    -0.392 A  
HETATM    4  C   UNK A   0     -10.216  15.882  69.094  1.00  0.00    -0.234 A  
HETATM    5  C   UNK A   0     -11.127  15.064  69.836  1.00  0.00    -0.298 A  
HETATM    6  S   UNK A   0     -11.134  17.340  70.967  1.00  0.00     1.833 SA 
HETATM    7  C   UNK A   0     -10.059  17.131  69.663  1.00  0.00     0.098 A  
BRANCH   7   8
HETATM    8  C   UNK A   0      -9.114  18.174  69.305  1.00  0.00     0.240 C  
HETATM    9  O   UNK A   0      -9.042  19.251  69.888  1.00  0.00     0.449 OA 
ATOM     10  N   GLU A   1      -8.315  17.891  68.207  1.00  0.00    -0.276 N  
ATOM     11  H   GLU A   1      -8.427  16.999  67.725  1.00  0.00     0.000 HD 
BRANCH  10  12
ATOM     12  CA  GLU A   1      -7.312  18.844  67.725  1.00  0.00    -0.234 C  
ATOM     13  C   GLU A   1      -7.902  20.267  67.727  1.00  0.00    -0.245 C  
ATOM     14  O   GLU A   1      -9.254  20.298  67.625  1.00  0.00    -0.350 OA 
ATOM     15  OXT GLU A   1      -7.227  21.286  67.674  1.00  0.00    -0.407 OA 
BRANCH  12  16
ATOM     16  CB  GLU A   1      -6.872  18.449  66.311  1.00  0.00    -0.268 C  
BRANCH  16  17
ATOM     17  CG  GLU A   1      -8.012  18.527  65.296  1.00  0.00     1.310 C  
ATOM     18  CD  GLU A   1      -9.143  17.592  65.639  1.00  0.00     0.567 C  
ATOM     19  OE2 GLU A   1      -9.011  16.543  66.243  1.00  0.00    -0.280 OA 
ATOM     20  OE1 GLU A   1     -10.336  18.023  65.172  1.00  0.00    -0.232 OA 
ENDBRANCH  16  17
ENDBRANCH  12  16
ENDBRANCH  10  12
ENDBRANCH   7   8
ENDBRANCH   2   3
BRANCH   2  21
HETATM   21  C   UNK A   0     -13.434  14.274  71.644  1.00  0.00    -0.376 C  
BRANCH  21  22
HETATM   22  C   UNK A   0     -12.923  13.008  70.991  1.00  0.00    -0.196 A  
HETATM   23  C   UNK A   0     -12.118  11.815  69.032  1.00  0.00    -0.276 A  
HETATM   24  C   UNK A   0     -11.935  10.655  69.785  1.00  0.00    -0.291 A  
HETATM   25  C   UNK A   0     -12.609  12.983  69.623  1.00  0.00     0.240 A  
HETATM   26  H   UNK A   0     -10.934  10.568  66.085  1.00  0.00     0.000 HD 
HETATM   27  C   UNK A   0     -12.271  10.664  71.138  1.00  0.00    -0.479 A  
HETATM   28  C   UNK A   0     -10.466   8.339  67.222  1.00  0.00    -0.373 C  
HETATM   29  N   UNK A   0     -11.448   9.512  69.152  1.00  0.00    -0.439 NA 
HETATM   30  N   UNK A   0     -11.223  10.608  67.063  1.00  0.00    -0.148 N  
HETATM   31  C   UNK A   0     -12.754  11.834  71.736  1.00  0.00    -0.299 A  
HETATM   32  C   UNK A   0     -11.768  11.762  67.589  1.00  0.00    -0.250 C  
HETATM   33  O   UNK A   0     -11.978  12.762  66.907  1.00  0.00    -0.398 OA 
HETATM   34  C   UNK A   0     -11.085   9.575  67.833  1.00  0.00     0.011 C  
ENDBRANCH  21  22
ENDBRANCH   2  21
TORSDOF 7
ENDMDL
MODEL      343
REMARK 921   NORMALIZED FREE ENERGY PREDICTED BY IDOCK:    4.41 KCAL/MOL
REMARK 922        TOTAL FREE ENERGY PREDICTED BY IDOCK:    5.08 KCAL/MOL
REMARK 923 INTER-LIGAND FREE ENERGY PREDICTED BY IDOCK:   -1.18 KCAL/MOL
REMARK 924 INTRA-LIGAND FREE ENERGY PREDICTED BY IDOCK:    6.26 KCAL/MOL
REMARK 927      BINDING AFFINITY PREDICTED BY RF-SCORE:    0.00 PKD
ROOT
HETATM    1  C   UNK A   0     -10.269   6.466  69.016  1.00  0.00    -0.183 C  
HETATM    2  N   UNK A   0     -11.156   7.624  69.061  1.00  0.00    -0.424 NA 
ENDROOT
BRANCH   2   3
HETATM    3  C   UNK A   0     -10.890   8.680  68.229  1.00  0.00     0.053 A  
HETATM    4  C   UNK A   0     -10.689  10.036  66.330  1.00  0.00    -0.018 A  
HETATM    5  C   UNK A   0     -11.366   8.941  66.957  1.00  0.00     1.348 A  
HETATM    6  S   UNK A   0      -9.843   9.944  68.728  1.00  0.00    -0.179 SA 
HETATM    7  C   UNK A   0      -9.757  10.618  67.165  1.00  0.00    -0.171 A  
BRANCH   7   8
HETATM    8  C   UNK A   0      -8.771  11.636  66.849  1.00  0.00    -0.185 C  
HETATM    9  O   UNK A   0      -8.230  11.737  65.753  1.00  0.00     0.213 OA 
ATOM     10  N   GLU A   1      -8.435  12.474  67.903  1.00  0.00    -0.161 N  
ATOM     11  H   GLU A   1      -8.879  12.338  68.811  1.00  0.00     0.000 HD 
BRANCH  10  12
ATOM     12  CA  GLU A   1      -7.455  13.552  67.739  1.00  0.00    -0.166 C  
ATOM     13  C   GLU A   1      -6.346  13.413  68.798  1.00  0.00    -0.094 C  
ATOM     14  O   GLU A   1      -6.737  12.754  69.917  1.00  0.00     0.053 OA 
ATOM     15  OXT GLU A   1      -5.257  13.966  68.721  1.00  0.00    -0.077 OA 
BRANCH  12  16
ATOM     16  CB  GLU A   1      -8.161  14.906  67.877  1.00  0.00    -0.148 C  
BRANCH  16  17
ATOM     17  CG  GLU A   1      -7.766  15.891  66.776  1.00  0.00    -0.245 C  
ATOM     18  CD  GLU A   1      -6.751  16.898  67.252  1.00  0.00    -0.169 C  
ATOM     19  OE2 GLU A   1      -6.651  17.286  68.402  1.00  0.00    -0.164 OA 
ATOM     20  OE1 GLU A   1      -5.971  17.365  66.251  1.00  0.00    -0.198 OA 
ENDBRANCH  16  17
ENDBRANCH  12  16
ENDBRANCH  10  12
ENDBRANCH   7   8
ENDBRANCH   2   3
BRANCH   2  21
HETATM   21  C   UNK A   0     -11.681   7.968  70.397  1.00  0.00     0.007 C  
BRANCH  21  22
HETATM   22  C   UNK A   0     -11.878   9.461  70.545  1.00  0.00    -0.207 A  
HETATM   23  C   UNK A   0     -12.212  11.659  69.561  1.00  0.00    -0.257 A  
HETATM   24  C   UNK A   0     -12.283  12.240  70.827  1.00  0.00    -0.260 A  
HETATM   25  C   UNK A   0     -12.010  10.283  69.415  1.00  0.00    -0.054 A  
HETATM   26  H   UNK A   0     -12.784  14.512  67.780  1.00  0.00     0.000 HD 
HETATM   27  C   UNK A   0     -12.126  11.435  71.954  1.00  0.00     0.941 A  
HETATM   28  C   UNK A   0     -12.995  15.821  69.952  1.00  0.00     0.457 C  
HETATM   29  N   UNK A   0     -12.480  13.618  70.925  1.00  0.00    -0.364 NA 
HETATM   30  N   UNK A   0     -12.631  13.893  68.576  1.00  0.00    -0.187 N  
HETATM   31  C   UNK A   0     -11.932  10.056  71.812  1.00  0.00    -0.254 A  
HETATM   32  C   UNK A   0     -12.366  12.552  68.383  1.00  0.00     0.397 C  
HETATM   33  O   UNK A   0     -12.250  12.057  67.265  1.00  0.00    -0.496 OA 
HETATM   34  C   UNK A   0     -12.682  14.352  69.786  1.00  0.00     0.017 C  
ENDBRANCH  21  22
ENDBRANCH   2  21
TORSDOF 7
ENDMDL
MODEL      344
REMARK 921   NORMALIZED FREE ENERGY PREDICTED BY IDOCK:    7.54 KCAL/MOL
REMARK 922        TOTAL FREE ENERGY PREDICTED BY IDOCK:    9.49 KCAL/MOL
REMARK 923 INTER-LIGAND FREE ENERGY PREDICTED BY IDOCK:    0.42 KCAL/MOL
REMARK 924 INTRA-LIGAND FREE ENERGY PREDICTED BY IDOCK:    9.07 KCAL/MOL
REMARK 927      BINDING AFFINITY PREDICTED BY RF-SCORE:    0.00 PKD
ROOT
HETATM    1  C   UNK A   0     -14.411  12.994  71.656  1.00  0.00     1.160 C  
HETATM    2  N   UNK A   0     -13.041  12.561  71.915  1.00  0.00    -0.407 NA 
ENDROOT
BRANCH   2   3
HETATM    3  C   UNK A   0     -12.014  13.318  71.414  1.00  0.00     0.571 A  
HETATM    4  C   UNK A   0     -10.493  15.060  71.045  1.00  0.00     0.410 A  
HETATM    5  C   UNK A   0     -11.372  14.410  71.969  1.00  0.00     0.902 A  
HETATM    6  S   UNK A   0     -11.317  12.948  69.891  1.00  0.00     0.155 SA 
HETATM    7  C   UNK A   0     -10.443  14.408  69.829  1.00  0.00     0.153 A  
BRANCH   7   8
HETATM    8  C   UNK A   0      -9.801  14.837  68.599  1.00  0.00    -0.225 C  
HETATM    9  O   UNK A   0     -10.001  14.308  67.511  1.00  0.00    -0.231 OA 
ATOM     10  N   GLU A   1      -8.891  15.875  68.743  1.00  0.00    -0.199 N  
ATOM     11  H   GLU A   1      -8.724  16.267  69.669  1.00  0.00     0.000 HD 
BRANCH  10  12
ATOM     12  CA  GLU A   1      -8.164  16.419  67.592  1.00  0.00    -0.153 C  
ATOM     13  C   GLU A   1      -7.675  17.843  67.912  1.00  0.00    -0.224 C  
ATOM     14  O   GLU A   1      -8.415  18.478  68.854  1.00  0.00    -0.269 OA 
ATOM     15  OXT GLU A   1      -6.798  18.420  67.283  1.00  0.00    -0.195 OA 
BRANCH  12  16
ATOM     16  CB  GLU A   1      -9.087  16.432  66.368  1.00  0.00    -0.341 C  
BRANCH  16  17
ATOM     17  CG  GLU A   1     -10.182  17.493  66.467  1.00  0.00    -0.342 C  
ATOM     18  CD  GLU A   1     -11.363  17.017  67.272  1.00  0.00     0.438 C  
ATOM     19  OE2 GLU A   1     -11.711  15.853  67.364  1.00  0.00     0.048 OA 
ATOM     20  OE1 GLU A   1     -12.034  18.030  67.865  1.00  0.00     1.541 OA 
ENDBRANCH  16  17
ENDBRANCH  12  16
ENDBRANCH  10  12
ENDBRANCH   7   8
ENDBRANCH   2   3
BRANCH   2  21
HETATM   21  C   UNK A   0     -12.828  11.101  71.919  1.00  0.00    -0.294 C  
BRANCH  21  22
HETATM   22  C   UNK A   0     -11.807  10.689  70.881  1.00  0.00    -0.433 A  
HETATM   23  C   UNK A   0     -11.049  10.616  68.573  1.00  0.00    -0.318 A  
HETATM   24  C   UNK A   0      -9.882   9.952  68.953  1.00  0.00    -0.176 A  
HETATM   25  C   UNK A   0     -12.007  10.981  69.523  1.00  0.00    -0.413 A  
HETATM   26  H   UNK A   0     -10.313  10.845  65.249  1.00  0.00     0.000 HD 
HETATM   27  C   UNK A   0      -9.689   9.634  70.296  1.00  0.00    -0.314 A  
HETATM   28  C   UNK A   0      -8.091   9.674  65.665  1.00  0.00    -0.117 C  
HETATM   29  N   UNK A   0      -8.956   9.602  67.970  1.00  0.00    -0.123 NA 
HETATM   30  N   UNK A   0     -10.226  10.601  66.236  1.00  0.00    -0.240 N  
HETATM   31  C   UNK A   0     -10.641  10.007  71.252  1.00  0.00     0.291 A  
HETATM   32  C   UNK A   0     -11.229  10.922  67.129  1.00  0.00    -0.184 C  
HETATM   33  O   UNK A   0     -12.277  11.456  66.779  1.00  0.00     0.103 OA 
HETATM   34  C   UNK A   0      -9.172   9.987  66.673  1.00  0.00    -0.149 C  
ENDBRANCH  21  22
ENDBRANCH   2  21
TORSDOF 7
ENDMDL
MODEL      345
REMARK 921   NORMALIZED FREE ENERGY PREDICTED BY IDOCK:    7.95 KCAL/MOL
REMARK 922        TOTAL FREE ENERGY PREDICTED BY IDOCK:   10.07 KCAL/MOL
REMARK 923 INTER-LIGAND FREE ENERGY PREDICTED BY IDOCK:    2.32 KCAL/MOL
REMARK 924 INTRA-LIGAND FREE ENERGY PREDICTED BY IDOCK:    7.75 KCAL/MOL
REMARK 927      BINDING AFFINITY PREDICTED BY RF-SCORE:    0.00 PKD
ROOT
HETATM    1  C   UNK A   0      -8.929  10.610  63.309  1.00  0.00    -0.224 C  
HETATM    2  N   UNK A   0      -9.056  11.000  64.710  1.00  0.00    -0.313 NA 
ENDROOT
BRANCH   2   3
HETATM    3  C   UNK A   0      -9.415  12.292  64.995  1.00  0.00     0.152 A  
HETATM    4  C   UNK A   0     -10.101  14.521  64.784  1.00  0.00    -0.109 A  
HETATM    5  C   UNK A   0     -10.109  13.205  64.221  1.00  0.00    -0.166 A  
HETATM    6  S   UNK A   0      -9.026  12.994  66.511  1.00  0.00     0.017 SA 
HETATM    7  C   UNK A   0      -9.454  14.562  66.002  1.00  0.00    -0.229 A  
BRANCH   7   8
HETATM    8  C   UNK A   0      -9.101  15.723  66.800  1.00  0.00    -0.249 C  
HETATM    9  O   UNK A   0      -8.361  15.674  67.777  1.00  0.00    -0.143 OA 
ATOM     10  N   GLU A   1      -9.705  16.909  66.409  1.00  0.00    -0.270 N  
ATOM     11  H   GLU A   1     -10.343  16.906  65.613  1.00  0.00     0.000 HD 
BRANCH  10  12
ATOM     12  CA  GLU A   1      -9.447  18.168  67.115  1.00  0.00    -0.264 C  
ATOM     13  C   GLU A   1      -9.001  19.246  66.111  1.00  0.00    -0.255 C  
ATOM     14  O   GLU A   1      -8.431  18.746  64.987  1.00  0.00     1.278 OA 
ATOM     15  OXT GLU A   1      -9.013  20.447  66.349  1.00  0.00    -0.220 OA 
BRANCH  12  16
ATOM     16  CB  GLU A   1      -8.363  17.943  68.176  1.00  0.00    -0.267 C  
BRANCH  16  17
ATOM     17  CG  GLU A   1      -8.936  17.483  69.516  1.00  0.00     0.636 C  
ATOM     18  CD  GLU A   1      -8.399  16.138  69.932  1.00  0.00     0.692 C  
ATOM     19  OE2 GLU A   1      -8.039  15.269  69.158  1.00  0.00    -0.193 OA 
ATOM     20  OE1 GLU A   1      -8.389  15.973  71.274  1.00  0.00     3.987 OA 
ENDBRANCH  16  17
ENDBRANCH  12  16
ENDBRANCH  10  12
ENDBRANCH   7   8
ENDBRANCH   2   3
BRANCH   2  21
HETATM   21  C   UNK A   0      -8.084  10.380  65.631  1.00  0.00    -0.156 C  
BRANCH  21  22
HETATM   22  C   UNK A   0      -8.767   9.442  66.604  1.00  0.00    -0.143 A  
HETATM   23  C   UNK A   0      -8.931   7.275  67.692  1.00  0.00    -0.126 A  
HETATM   24  C   UNK A   0     -10.021   7.710  68.446  1.00  0.00    -0.176 A  
HETATM   25  C   UNK A   0      -8.307   8.128  66.776  1.00  0.00    -0.115 A  
HETATM   26  H   UNK A   0      -8.723   4.155  69.056  1.00  0.00     0.000 HD 
HETATM   27  C   UNK A   0     -10.501   9.006  68.260  1.00  0.00    -0.247 A  
HETATM   28  C   UNK A   0     -10.687   4.695  70.582  1.00  0.00     0.392 C  
HETATM   29  N   UNK A   0     -10.616   6.823  69.343  1.00  0.00    -0.219 NA 
HETATM   30  N   UNK A   0      -9.063   5.097  68.866  1.00  0.00    -0.104 N  
HETATM   31  C   UNK A   0      -9.873   9.866  67.351  1.00  0.00    -0.223 A  
HETATM   32  C   UNK A   0      -8.459   5.882  67.903  1.00  0.00    -0.107 C  
HETATM   33  O   UNK A   0      -7.536   5.473  67.204  1.00  0.00    -0.082 OA 
HETATM   34  C   UNK A   0     -10.069   5.580  69.523  1.00  0.00    -0.234 C  
ENDBRANCH  21  22
ENDBRANCH   2  21
TORSDOF 7
ENDMDL
MODEL      346
REMARK 921   NORMALIZED FREE ENERGY PREDICTED BY IDOCK:    9.65 KCAL/MOL
REMARK 922        TOTAL FREE ENERGY PREDICTED BY IDOCK:   12.47 KCAL/MOL
REMARK 923 INTER-LIGAND FREE ENERGY PREDICTED BY IDOCK:   -2.43 KCAL/MOL
REMARK 924 INTRA-LIGAND FREE ENERGY PREDICTED BY IDOCK:   14.90 KCAL/MOL
REMARK 927      BINDING AFFINITY PREDICTED BY RF-SCORE:    0.00 PKD
ROOT
HETATM    1  C   UNK A   0     -14.411  12.957  71.623  1.00  0.00     1.345 C  
HETATM    2  N   UNK A   0     -12.981  12.722  71.447  1.00  0.00    -0.329 NA 
ENDROOT
BRANCH   2   3
HETATM    3  C   UNK A   0     -12.289  13.531  70.583  1.00  0.00    -0.358 A  
HETATM    4  C   UNK A   0     -11.284  14.403  68.656  1.00  0.00    -0.280 A  
HETATM    5  C   UNK A   0     -12.305  13.560  69.201  1.00  0.00    -0.080 A  
HETATM    6  S   UNK A   0     -11.230  14.742  71.177  1.00  0.00     0.099 SA 
HETATM    7  C   UNK A   0     -10.557  15.041  69.641  1.00  0.00    -0.238 A  
BRANCH   7   8
HETATM    8  C   UNK A   0      -9.353  15.841  69.502  1.00  0.00    -0.238 C  
HETATM    9  O   UNK A   0      -8.708  16.265  70.455  1.00  0.00     1.453 OA 
ATOM     10  N   GLU A   1      -8.998  16.144  68.195  1.00  0.00    -0.183 N  
ATOM     11  H   GLU A   1      -9.579  15.804  67.429  1.00  0.00     0.000 HD 
BRANCH  10  12
ATOM     12  CA  GLU A   1      -7.807  16.943  67.892  1.00  0.00    -0.175 C  
ATOM     13  C   GLU A   1      -7.255  16.550  66.509  1.00  0.00    -0.152 C  
ATOM     14  O   GLU A   1      -7.579  15.290  66.128  1.00  0.00     0.702 OA 
ATOM     15  OXT GLU A   1      -6.474  17.239  65.867  1.00  0.00    -0.127 OA 
BRANCH  12  16
ATOM     16  CB  GLU A   1      -6.749  16.710  68.977  1.00  0.00    -0.202 C  
BRANCH  16  17
ATOM     17  CG  GLU A   1      -6.132  15.313  68.908  1.00  0.00    -0.093 C  
ATOM     18  CD  GLU A   1      -7.007  14.342  68.157  1.00  0.00    -0.124 C  
ATOM     19  OE2 GLU A   1      -8.221  14.413  68.095  1.00  0.00    -0.133 OA 
ATOM     20  OE1 GLU A   1      -6.302  13.344  67.578  1.00  0.00    -0.196 OA 
ENDBRANCH  16  17
ENDBRANCH  12  16
ENDBRANCH  10  12
ENDBRANCH   7   8
ENDBRANCH   2   3
BRANCH   2  21
HETATM   21  C   UNK A   0     -12.562  11.307  71.485  1.00  0.00    -0.312 C  
BRANCH  21  22
HETATM   22  C   UNK A   0     -11.644  10.972  70.329  1.00  0.00    -0.414 A  
HETATM   23  C   UNK A   0     -11.080  11.105  67.968  1.00  0.00    -0.334 A  
HETATM   24  C   UNK A   0      -9.910  10.377  68.183  1.00  0.00    -0.151 A  
HETATM   25  C   UNK A   0     -11.944  11.401  69.027  1.00  0.00    -0.387 A  
HETATM   26  H   UNK A   0     -10.610  11.639  64.632  1.00  0.00     0.000 HD 
HETATM   27  C   UNK A   0      -9.619   9.923  69.469  1.00  0.00    -0.242 A  
HETATM   28  C   UNK A   0      -8.403  10.375  64.744  1.00  0.00    -0.157 C  
HETATM   29  N   UNK A   0      -9.080  10.100  67.097  1.00  0.00    -0.135 NA 
HETATM   30  N   UNK A   0     -10.452  11.298  65.580  1.00  0.00    -0.264 N  
HETATM   31  C   UNK A   0     -10.476  10.226  70.533  1.00  0.00    -0.053 A  
HETATM   32  C   UNK A   0     -11.367  11.556  66.581  1.00  0.00    -0.214 C  
HETATM   33  O   UNK A   0     -12.421  12.149  66.374  1.00  0.00    -0.270 OA 
HETATM   34  C   UNK A   0      -9.388  10.616  65.866  1.00  0.00    -0.190 C  
ENDBRANCH  21  22
ENDBRANCH   2  21
TORSDOF 7
ENDMDL
MODEL      347
REMARK 921   NORMALIZED FREE ENERGY PREDICTED BY IDOCK:   10.32 KCAL/MOL
REMARK 922        TOTAL FREE ENERGY PREDICTED BY IDOCK:   13.42 KCAL/MOL
REMARK 923 INTER-LIGAND FREE ENERGY PREDICTED BY IDOCK:   12.51 KCAL/MOL
REMARK 924 INTRA-LIGAND FREE ENERGY PREDICTED BY IDOCK:    0.90 KCAL/MOL
REMARK 927      BINDING AFFINITY PREDICTED BY RF-SCORE:    0.00 PKD
ROOT
HETATM    1  C   UNK A   0     -12.698   8.112  67.005  1.00  0.00    11.883 C  
HETATM    2  N   UNK A   0     -12.257   9.116  67.969  1.00  0.00     2.831 NA 
ENDROOT
BRANCH   2   3
HETATM    3  C   UNK A   0     -11.625  10.237  67.498  1.00  0.00     0.614 A  
HETATM    4  C   UNK A   0     -10.337  11.698  66.198  1.00  0.00    -0.280 A  
HETATM    5  C   UNK A   0     -11.114  10.497  66.239  1.00  0.00     0.145 A  
HETATM    6  S   UNK A   0     -11.385  11.598  68.514  1.00  0.00    -0.305 SA 
HETATM    7  C   UNK A   0     -10.327  12.353  67.414  1.00  0.00    -0.207 A  
BRANCH   7   8
HETATM    8  C   UNK A   0      -9.535  13.502  67.815  1.00  0.00    -0.216 C  
HETATM    9  O   UNK A   0      -8.549  13.425  68.540  1.00  0.00    -0.154 OA 
ATOM     10  N   GLU A   1     -10.002  14.726  67.357  1.00  0.00    -0.223 N  
ATOM     11  H   GLU A   1     -10.846  14.755  66.785  1.00  0.00     0.000 HD 
BRANCH  10  12
ATOM     12  CA  GLU A   1      -9.309  15.977  67.677  1.00  0.00    -0.214 C  
ATOM     13  C   GLU A   1      -9.913  16.596  68.951  1.00  0.00    -0.271 C  
ATOM     14  O   GLU A   1     -11.198  16.228  69.182  1.00  0.00    -0.315 OA 
ATOM     15  OXT GLU A   1      -9.357  17.455  69.622  1.00  0.00     0.330 OA 
BRANCH  12  16
ATOM     16  CB  GLU A   1      -9.440  16.947  66.497  1.00  0.00    -0.296 C  
BRANCH  16  17
ATOM     17  CG  GLU A   1      -9.190  18.400  66.898  1.00  0.00    -0.287 C  
ATOM     18  CD  GLU A   1     -10.461  19.108  67.290  1.00  0.00    -0.456 C  
ATOM     19  OE2 GLU A   1     -11.564  18.838  66.851  1.00  0.00     0.735 OA 
ATOM     20  OE1 GLU A   1     -10.249  20.115  68.167  1.00  0.00    -0.410 OA 
ENDBRANCH  16  17
ENDBRANCH  12  16
ENDBRANCH  10  12
ENDBRANCH   7   8
ENDBRANCH   2   3
BRANCH   2  21
HETATM   21  C   UNK A   0     -11.763   8.585  69.255  1.00  0.00     1.089 C  
BRANCH  21  22
HETATM   22  C   UNK A   0     -10.548   7.704  69.058  1.00  0.00    -0.186 A  
HETATM   23  C   UNK A   0      -9.292   6.098  67.735  1.00  0.00    -0.109 A  
HETATM   24  C   UNK A   0      -8.264   6.090  68.678  1.00  0.00    -0.107 A  
HETATM   25  C   UNK A   0     -10.427   6.893  67.919  1.00  0.00    -0.262 A  
HETATM   26  H   UNK A   0      -7.818   3.961  65.521  1.00  0.00     0.000 HD 
HETATM   27  C   UNK A   0      -8.390   6.872  69.825  1.00  0.00    -0.132 A  
HETATM   28  C   UNK A   0      -5.788   3.787  67.046  1.00  0.00    -0.023 C  
HETATM   29  N   UNK A   0      -7.153   5.277  68.455  1.00  0.00    -0.061 NA 
HETATM   30  N   UNK A   0      -7.964   4.521  66.361  1.00  0.00    -0.102 N  
HETATM   31  C   UNK A   0      -9.520   7.677  70.009  1.00  0.00    -0.161 A  
HETATM   32  C   UNK A   0      -9.132   5.238  66.533  1.00  0.00    -0.129 C  
HETATM   33  O   UNK A   0     -10.056   5.197  65.726  1.00  0.00    -0.141 OA 
HETATM   34  C   UNK A   0      -7.058   4.571  67.285  1.00  0.00    -0.068 C  
ENDBRANCH  21  22
ENDBRANCH   2  21
TORSDOF 7
ENDMDL
MODEL      348
REMARK 921   NORMALIZED FREE ENERGY PREDICTED BY IDOCK:   13.66 KCAL/MOL
REMARK 922        TOTAL FREE ENERGY PREDICTED BY IDOCK:   18.12 KCAL/MOL
REMARK 923 INTER-LIGAND FREE ENERGY PREDICTED BY IDOCK:   17.74 KCAL/MOL
REMARK 924 INTRA-LIGAND FREE ENERGY PREDICTED BY IDOCK:    0.38 KCAL/MOL
REMARK 927      BINDING AFFINITY PREDICTED BY RF-SCORE:    0.00 PKD
ROOT
HETATM    1  C   UNK A   0      -8.825  14.311  68.997  1.00  0.00     0.063 C  
HETATM    2  N   UNK A   0      -9.724  13.902  67.922  1.00  0.00    -0.224 NA 
ENDROOT
BRANCH   2   3
HETATM    3  C   UNK A   0      -9.364  12.832  67.145  1.00  0.00    -0.216 A  
HETATM    4  C   UNK A   0      -9.088  11.379  65.329  1.00  0.00    -0.087 A  
HETATM    5  C   UNK A   0      -9.301  12.725  65.768  1.00  0.00     0.075 A  
HETATM    6  S   UNK A   0      -8.880  11.352  67.864  1.00  0.00    -0.155 SA 
HETATM    7  C   UNK A   0      -8.934  10.506  66.387  1.00  0.00    -0.159 A  
BRANCH   7   8
HETATM    8  C   UNK A   0      -8.860   9.056  66.358  1.00  0.00    -0.146 C  
HETATM    9  O   UNK A   0      -8.368   8.421  65.431  1.00  0.00    -0.141 OA 
ATOM     10  N   GLU A   1      -9.436   8.417  67.447  1.00  0.00    -0.143 N  
ATOM     11  H   GLU A   1      -9.868   8.977  68.183  1.00  0.00     0.000 HD 
BRANCH  10  12
ATOM     12  CA  GLU A   1      -9.439   6.957  67.563  1.00  0.00    -0.128 C  
ATOM     13  C   GLU A   1     -10.854   6.415  67.287  1.00  0.00    -0.385 C  
ATOM     14  O   GLU A   1     -11.841   7.310  67.537  1.00  0.00     1.027 OA 
ATOM     15  OXT GLU A   1     -11.096   5.247  67.013  1.00  0.00     0.082 OA 
BRANCH  12  16
ATOM     16  CB  GLU A   1      -8.978   6.557  68.969  1.00  0.00    -0.129 C  
BRANCH  16  17
ATOM     17  CG  GLU A   1      -8.722   7.764  69.871  1.00  0.00    -0.142 C  
ATOM     18  CD  GLU A   1      -9.958   8.180  70.627  1.00  0.00    -0.189 C  
ATOM     19  OE2 GLU A   1     -11.097   8.019  70.229  1.00  0.00    -0.257 OA 
ATOM     20  OE1 GLU A   1      -9.671   8.793  71.798  1.00  0.00    -0.265 OA 
ENDBRANCH  16  17
ENDBRANCH  12  16
ENDBRANCH  10  12
ENDBRANCH   7   8
ENDBRANCH   2   3
BRANCH   2  21
HETATM   21  C   UNK A   0     -10.423  15.001  67.228  1.00  0.00    -0.265 C  
BRANCH  21  22
HETATM   22  C   UNK A   0     -10.546  16.223  68.112  1.00  0.00    -0.307 A  
HETATM   23  C   UNK A   0     -10.788  17.225  70.313  1.00  0.00     0.749 A  
HETATM   24  C   UNK A   0     -10.738  18.505  69.761  1.00  0.00     1.524 A  
HETATM   25  C   UNK A   0     -10.696  16.091  69.502  1.00  0.00    -0.298 A  
HETATM   26  H   UNK A   0     -11.011  18.206  73.573  1.00  0.00     0.000 HD 
HETATM   27  C   UNK A   0     -10.618  18.644  68.379  1.00  0.00    -0.132 A  
HETATM   28  C   UNK A   0     -10.907  20.642  72.844  1.00  0.00     8.953 C  
HETATM   29  N   UNK A   0     -10.840  19.608  70.609  1.00  0.00     1.087 NA 
HETATM   30  N   UNK A   0     -10.956  18.263  72.557  1.00  0.00     1.593 N  
HETATM   31  C   UNK A   0     -10.515  17.511  67.564  1.00  0.00    -0.355 A  
HETATM   32  C   UNK A   0     -10.936  17.116  71.788  1.00  0.00     1.689 C  
HETATM   33  O   UNK A   0     -11.036  15.994  72.276  1.00  0.00     0.343 OA 
HETATM   34  C   UNK A   0     -10.903  19.414  71.963  1.00  0.00     4.676 C  
ENDBRANCH  21  22
ENDBRANCH   2  21
TORSDOF 7
ENDMDL
MODEL      349
REMARK 921   NORMALIZED FREE ENERGY PREDICTED BY IDOCK:   17.32 KCAL/MOL
REMARK 922        TOTAL FREE ENERGY PREDICTED BY IDOCK:   23.27 KCAL/MOL
REMARK 923 INTER-LIGAND FREE ENERGY PREDICTED BY IDOCK:   17.29 KCAL/MOL
REMARK 924 INTRA-LIGAND FREE ENERGY PREDICTED BY IDOCK:    5.98 KCAL/MOL
REMARK 927      BINDING AFFINITY PREDICTED BY RF-SCORE:    0.00 PKD
ROOT
HETATM    1  C   UNK A   0     -10.199  10.388  67.754  1.00  0.00    -0.193 C  
HETATM    2  N   UNK A   0     -10.711  11.749  67.638  1.00  0.00    -0.206 NA 
ENDROOT
BRANCH   2   3
HETATM    3  C   UNK A   0      -9.837  12.791  67.812  1.00  0.00    -0.220 A  
HETATM    4  C   UNK A   0      -8.316  14.300  68.757  1.00  0.00    -0.095 A  
HETATM    5  C   UNK A   0      -8.884  12.987  68.795  1.00  0.00     0.174 A  
HETATM    6  S   UNK A   0      -9.805  14.099  66.703  1.00  0.00    -0.291 SA 
HETATM    7  C   UNK A   0      -8.808  15.049  67.707  1.00  0.00    -0.171 A  
BRANCH   7   8
HETATM    8  C   UNK A   0      -8.602  16.459  67.427  1.00  0.00    -0.178 C  
HETATM    9  O   UNK A   0      -7.936  16.871  66.483  1.00  0.00    -0.234 OA 
ATOM     10  N   GLU A   1      -9.176  17.329  68.343  1.00  0.00    -0.261 N  
ATOM     11  H   GLU A   1      -9.693  16.949  69.136  1.00  0.00     0.000 HD 
BRANCH  10  12
ATOM     12  CA  GLU A   1      -9.056  18.782  68.195  1.00  0.00    -0.307 C  
ATOM     13  C   GLU A   1     -10.262  19.474  68.858  1.00  0.00    -0.306 C  
ATOM     14  O   GLU A   1     -11.369  18.694  68.931  1.00  0.00     1.539 OA 
ATOM     15  OXT GLU A   1     -10.286  20.659  69.161  1.00  0.00     0.092 OA 
BRANCH  12  16
ATOM     16  CB  GLU A   1      -8.988  19.138  66.705  1.00  0.00    -0.335 C  
BRANCH  16  17
ATOM     17  CG  GLU A   1     -10.027  20.183  66.301  1.00  0.00    -0.557 C  
ATOM     18  CD  GLU A   1     -11.209  19.566  65.598  1.00  0.00     0.371 C  
ATOM     19  OE2 GLU A   1     -11.161  18.548  64.932  1.00  0.00    -0.370 OA 
ATOM     20  OE1 GLU A   1     -12.343  20.287  65.753  1.00  0.00     2.709 OA 
ENDBRANCH  16  17
ENDBRANCH  12  16
ENDBRANCH  10  12
ENDBRANCH   7   8
ENDBRANCH   2   3
BRANCH   2  21
HETATM   21  C   UNK A   0     -12.078  11.958  68.156  1.00  0.00     0.035 C  
BRANCH  21  22
HETATM   22  C   UNK A   0     -12.166  13.215  68.993  1.00  0.00    -0.114 A  
HETATM   23  C   UNK A   0     -11.127  14.872  70.437  1.00  0.00    -0.212 A  
HETATM   24  C   UNK A   0     -12.325  15.582  70.523  1.00  0.00    -0.418 A  
HETATM   25  C   UNK A   0     -11.042  13.698  69.683  1.00  0.00    -0.067 A  
HETATM   26  H   UNK A   0      -9.256  17.019  72.316  1.00  0.00     0.000 HD 
HETATM   27  C   UNK A   0     -13.452  15.094  69.863  1.00  0.00     0.790 A  
HETATM   28  C   UNK A   0     -11.286  18.526  72.609  1.00  0.00     3.582 C  
HETATM   29  N   UNK A   0     -12.364  16.745  71.292  1.00  0.00     0.489 NA 
HETATM   30  N   UNK A   0     -10.064  16.610  71.846  1.00  0.00     4.320 N  
HETATM   31  C   UNK A   0     -13.369  13.924  69.099  1.00  0.00     2.778 A  
HETATM   32  C   UNK A   0      -9.951  15.412  71.169  1.00  0.00     1.358 C  
HETATM   33  O   UNK A   0      -8.909  14.764  71.144  1.00  0.00     2.352 OA 
HETATM   34  C   UNK A   0     -11.214  17.207  71.874  1.00  0.00     1.239 C  
ENDBRANCH  21  22
ENDBRANCH   2  21
TORSDOF 7
ENDMDL
MODEL      350
REMARK 921   NORMALIZED FREE ENERGY PREDICTED BY IDOCK:   18.46 KCAL/MOL
REMARK 922        TOTAL FREE ENERGY PREDICTED BY IDOCK:   24.89 KCAL/MOL
REMARK 923 INTER-LIGAND FREE ENERGY PREDICTED BY IDOCK:   13.41 KCAL/MOL
REMARK 924 INTRA-LIGAND FREE ENERGY PREDICTED BY IDOCK:   11.48 KCAL/MOL
REMARK 927      BINDING AFFINITY PREDICTED BY RF-SCORE:    0.00 PKD
ROOT
HETATM    1  C   UNK A   0     -13.561  16.176  73.016  1.00  0.00    -0.301 C  
HETATM    2  N   UNK A   0     -13.061  15.154  72.103  1.00  0.00    -0.335 NA 
ENDROOT
BRANCH   2   3
HETATM    3  C   UNK A   0     -11.724  15.151  71.799  1.00  0.00    -0.413 A  
HETATM    4  C   UNK A   0      -9.480  15.782  71.575  1.00  0.00     3.869 A  
HETATM    5  C   UNK A   0     -10.705  15.942  72.298  1.00  0.00     1.451 A  
HETATM    6  S   UNK A   0     -11.089  14.035  70.661  1.00  0.00     0.866 SA 
HETATM    7  C   UNK A   0      -9.583  14.827  70.583  1.00  0.00     1.513 A  
BRANCH   7   8
HETATM    8  C   UNK A   0      -8.622  14.494  69.546  1.00  0.00     0.312 C  
HETATM    9  O   UNK A   0      -8.847  14.625  68.347  1.00  0.00    -0.168 OA 
ATOM     10  N   GLU A   1      -7.425  13.961  70.003  1.00  0.00     0.029 N  
ATOM     11  H   GLU A   1      -7.287  13.834  71.006  1.00  0.00     0.000 HD 
BRANCH  10  12
ATOM     12  CA  GLU A   1      -6.356  13.577  69.078  1.00  0.00    -0.099 C  
ATOM     13  C   GLU A   1      -6.967  13.070  67.758  1.00  0.00    -0.143 C  
ATOM     14  O   GLU A   1      -8.223  12.577  67.890  1.00  0.00    -0.142 OA 
ATOM     15  OXT GLU A   1      -6.342  12.974  66.710  1.00  0.00     0.122 OA 
BRANCH  12  16
ATOM     16  CB  GLU A   1      -5.493  12.487  69.722  1.00  0.00    -0.092 C  
BRANCH  16  17
ATOM     17  CG  GLU A   1      -5.142  11.361  68.749  1.00  0.00    -0.040 C  
ATOM     18  CD  GLU A   1      -6.359  10.583  68.320  1.00  0.00    -0.054 C  
ATOM     19  OE2 GLU A   1      -7.358  10.434  68.999  1.00  0.00    -0.080 OA 
ATOM     20  OE1 GLU A   1      -6.216  10.024  67.096  1.00  0.00    -0.064 OA 
ENDBRANCH  16  17
ENDBRANCH  12  16
ENDBRANCH  10  12
ENDBRANCH   7   8
ENDBRANCH   2   3
BRANCH   2  21
HETATM   21  C   UNK A   0     -13.975  14.781  71.006  1.00  0.00    -0.166 C  
BRANCH  21  22
HETATM   22  C   UNK A   0     -13.268  14.798  69.668  1.00  0.00     0.849 A  
HETATM   23  C   UNK A   0     -11.670  15.794  68.132  1.00  0.00    -0.175 A  
HETATM   24  C   UNK A   0     -11.925  14.802  67.186  1.00  0.00    -0.200 A  
HETATM   25  C   UNK A   0     -12.333  15.799  69.362  1.00  0.00    -0.034 A  
HETATM   26  H   UNK A   0      -9.264  17.432  66.352  1.00  0.00     0.000 HD 
HETATM   27  C   UNK A   0     -12.873  13.820  67.471  1.00  0.00     1.183 A  
HETATM   28  C   UNK A   0      -9.502  15.732  64.473  1.00  0.00     3.068 C  
HETATM   29  N   UNK A   0     -11.243  14.840  65.969  1.00  0.00    -0.341 NA 
HETATM   30  N   UNK A   0      -9.987  16.753  66.587  1.00  0.00    -0.280 N  
HETATM   31  C   UNK A   0     -13.533  13.815  68.705  1.00  0.00     4.316 A  
HETATM   32  C   UNK A   0     -10.667  16.835  67.786  1.00  0.00    -0.321 C  
HETATM   33  O   UNK A   0     -10.476  17.743  68.590  1.00  0.00    -0.354 OA 
HETATM   34  C   UNK A   0     -10.284  15.797  65.764  1.00  0.00    -0.370 C  
ENDBRANCH  21  22
ENDBRANCH   2  21
TORSDOF 7
ENDMDL
MODEL      351
REMARK 921   NORMALIZED FREE ENERGY PREDICTED BY IDOCK:   21.77 KCAL/MOL
REMARK 922        TOTAL FREE ENERGY PREDICTED BY IDOCK:   29.54 KCAL/MOL
REMARK 923 INTER-LIGAND FREE ENERGY PREDICTED BY IDOCK:   14.70 KCAL/MOL
REMARK 924 INTRA-LIGAND FREE ENERGY PREDICTED BY IDOCK:   14.85 KCAL/MOL
REMARK 927      BINDING AFFINITY PREDICTED BY RF-SCORE:    0.00 PKD
ROOT
HETATM    1  C   UNK A   0      -8.954  10.597  63.312  1.00  0.00    -0.224 C  
HETATM    2  N   UNK A   0      -9.287  10.835  64.713  1.00  0.00    -0.213 NA 
ENDROOT
BRANCH   2   3
HETATM    3  C   UNK A   0      -9.492  12.127  65.123  1.00  0.00     0.067 A  
HETATM    4  C   UNK A   0      -9.769  14.452  65.134  1.00  0.00     0.024 A  
HETATM    5  C   UNK A   0      -9.869  13.235  64.387  1.00  0.00     0.149 A  
HETATM    6  S   UNK A   0      -9.305  12.561  66.772  1.00  0.00    -0.232 SA 
HETATM    7  C   UNK A   0      -9.377  14.230  66.439  1.00  0.00    -0.245 A  
BRANCH   7   8
HETATM    8  C   UNK A   0      -9.014  15.205  67.452  1.00  0.00    -0.183 C  
HETATM    9  O   UNK A   0      -8.498  14.907  68.524  1.00  0.00    -0.149 OA 
ATOM     10  N   GLU A   1      -9.338  16.519  67.146  1.00  0.00    -0.229 N  
ATOM     11  H   GLU A   1      -9.799  16.725  66.259  1.00  0.00     0.000 HD 
BRANCH  10  12
ATOM     12  CA  GLU A   1      -9.034  17.616  68.068  1.00  0.00    -0.264 C  
ATOM     13  C   GLU A   1      -8.255  18.719  67.326  1.00  0.00    -0.263 C  
ATOM     14  O   GLU A   1      -7.566  18.271  66.247  1.00  0.00    -0.241 OA 
ATOM     15  OXT GLU A   1      -8.135  19.864  67.739  1.00  0.00    -0.287 OA 
BRANCH  12  16
ATOM     16  CB  GLU A   1      -8.211  17.079  69.244  1.00  0.00     0.093 C  
BRANCH  16  17
ATOM     17  CG  GLU A   1      -9.084  16.559  70.385  1.00  0.00     2.289 C  
ATOM     18  CD  GLU A   1      -8.842  15.097  70.664  1.00  0.00     1.712 C  
ATOM     19  OE2 GLU A   1      -8.481  14.286  69.831  1.00  0.00     0.650 OA 
ATOM     20  OE1 GLU A   1      -9.106  14.761  71.948  1.00  0.00     3.733 OA 
ENDBRANCH  16  17
ENDBRANCH  12  16
ENDBRANCH  10  12
ENDBRANCH   7   8
ENDBRANCH   2   3
BRANCH   2  21
HETATM   21  C   UNK A   0      -8.617   9.946  65.683  1.00  0.00    -0.145 C  
BRANCH  21  22
HETATM   22  C   UNK A   0      -7.974  10.736  66.803  1.00  0.00    -0.138 A  
HETATM   23  C   UNK A   0      -7.624  11.145  69.173  1.00  0.00    -0.098 A  
HETATM   24  C   UNK A   0      -6.743  12.188  68.886  1.00  0.00    -0.094 A  
HETATM   25  C   UNK A   0      -8.238  10.423  68.145  1.00  0.00    -0.116 A  
HETATM   26  H   UNK A   0      -7.323  11.290  72.568  1.00  0.00     0.000 HD 
HETATM   27  C   UNK A   0      -6.496  12.522  67.555  1.00  0.00    -0.153 A  
HETATM   28  C   UNK A   0      -5.654  13.198  72.335  1.00  0.00     0.448 C  
HETATM   29  N   UNK A   0      -6.157  12.884  69.944  1.00  0.00    -0.197 NA 
HETATM   30  N   UNK A   0      -7.196  11.524  71.584  1.00  0.00     5.041 N  
HETATM   31  C   UNK A   0      -7.102  11.796  66.523  1.00  0.00     0.111 A  
HETATM   32  C   UNK A   0      -7.876  10.829  70.603  1.00  0.00     2.062 C  
HETATM   33  O   UNK A   0      -8.692   9.949  70.864  1.00  0.00    -0.016 OA 
HETATM   34  C   UNK A   0      -6.393  12.478  71.231  1.00  0.00     1.808 C  
ENDBRANCH  21  22
ENDBRANCH   2  21
TORSDOF 7
ENDMDL
MODEL      352
REMARK 921   NORMALIZED FREE ENERGY PREDICTED BY IDOCK:   29.76 KCAL/MOL
REMARK 922        TOTAL FREE ENERGY PREDICTED BY IDOCK:   40.81 KCAL/MOL
REMARK 923 INTER-LIGAND FREE ENERGY PREDICTED BY IDOCK:   13.21 KCAL/MOL
REMARK 924 INTRA-LIGAND FREE ENERGY PREDICTED BY IDOCK:   27.60 KCAL/MOL
REMARK 927      BINDING AFFINITY PREDICTED BY RF-SCORE:    0.00 PKD
ROOT
HETATM    1  C   UNK A   0     -14.304  12.956  71.556  1.00  0.00     1.641 C  
HETATM    2  N   UNK A   0     -12.914  13.219  71.199  1.00  0.00    -0.263 NA 
ENDROOT
BRANCH   2   3
HETATM    3  C   UNK A   0     -12.652  14.215  70.294  1.00  0.00    -0.306 A  
HETATM    4  C   UNK A   0     -12.226  15.374  68.304  1.00  0.00     0.209 A  
HETATM    5  C   UNK A   0     -12.814  14.224  68.921  1.00  0.00     0.976 A  
HETATM    6  S   UNK A   0     -12.049  15.734  70.816  1.00  0.00    -0.382 SA 
HETATM    7  C   UNK A   0     -11.686  16.242  69.231  1.00  0.00    -0.127 A  
BRANCH   7   8
HETATM    8  C   UNK A   0     -10.874  17.423  68.998  1.00  0.00     0.057 C  
HETATM    9  O   UNK A   0     -10.375  18.090  69.899  1.00  0.00     0.299 OA 
ATOM     10  N   GLU A   1     -10.735  17.787  67.667  1.00  0.00    -0.371 N  
ATOM     11  H   GLU A   1     -11.194  17.228  66.947  1.00  0.00     0.000 HD 
BRANCH  10  12
ATOM     12  CA  GLU A   1      -9.943  18.955  67.272  1.00  0.00    -0.334 C  
ATOM     13  C   GLU A   1      -9.182  18.652  65.968  1.00  0.00     0.015 C  
ATOM     14  O   GLU A   1      -8.947  17.332  65.766  1.00  0.00    -0.521 OA 
ATOM     15  OXT GLU A   1      -8.697  19.513  65.246  1.00  0.00     0.108 OA 
BRANCH  12  16
ATOM     16  CB  GLU A   1      -8.962  19.308  68.395  1.00  0.00    -0.397 C  
BRANCH  16  17
ATOM     17  CG  GLU A   1      -7.728  18.406  68.405  1.00  0.00    -0.314 C  
ATOM     18  CD  GLU A   1      -7.767  17.380  67.302  1.00  0.00    -0.200 C  
ATOM     19  OE2 GLU A   1      -8.787  16.915  66.827  1.00  0.00    -0.210 OA 
ATOM     20  OE1 GLU A   1      -6.533  16.991  66.907  1.00  0.00    -0.174 OA 
ENDBRANCH  16  17
ENDBRANCH  12  16
ENDBRANCH  10  12
ENDBRANCH   7   8
ENDBRANCH   2   3
BRANCH   2  21
HETATM   21  C   UNK A   0     -12.043  12.030  71.122  1.00  0.00     0.161 C  
BRANCH  21  22
HETATM   22  C   UNK A   0     -10.995  12.182  70.041  1.00  0.00     0.507 A  
HETATM   23  C   UNK A   0     -10.178  13.262  68.023  1.00  0.00    -0.240 A  
HETATM   24  C   UNK A   0      -9.019  12.487  68.049  1.00  0.00    -0.192 A  
HETATM   25  C   UNK A   0     -11.162  13.114  69.005  1.00  0.00    -0.309 A  
HETATM   26  H   UNK A   0      -9.360  15.110  65.274  1.00  0.00     0.000 HD 
HETATM   27  C   UNK A   0      -8.858  11.539  69.059  1.00  0.00     0.139 A  
HETATM   28  C   UNK A   0      -7.144  13.869  65.104  1.00  0.00    11.995 C  
HETATM   29  N   UNK A   0      -8.067  12.665  67.045  1.00  0.00    -0.345 NA 
HETATM   30  N   UNK A   0      -9.297  14.407  66.010  1.00  0.00    -0.514 N  
HETATM   31  C   UNK A   0      -9.836  11.395  70.051  1.00  0.00     1.487 A  
HETATM   32  C   UNK A   0     -10.324  14.248  66.920  1.00  0.00    -0.268 C  
HETATM   33  O   UNK A   0     -11.365  14.895  66.858  1.00  0.00    -0.345 OA 
HETATM   34  C   UNK A   0      -8.252  13.647  66.108  1.00  0.00     1.427 C  
ENDBRANCH  21  22
ENDBRANCH   2  21
TORSDOF 7
ENDMDL
MODEL      353
REMARK 921   NORMALIZED FREE ENERGY PREDICTED BY IDOCK:   33.12 KCAL/MOL
REMARK 922        TOTAL FREE ENERGY PREDICTED BY IDOCK:   45.54 KCAL/MOL
REMARK 923 INTER-LIGAND FREE ENERGY PREDICTED BY IDOCK:   42.76 KCAL/MOL
REMARK 924 INTRA-LIGAND FREE ENERGY PREDICTED BY IDOCK:    2.78 KCAL/MOL
REMARK 927      BINDING AFFINITY PREDICTED BY RF-SCORE:    0.00 PKD
ROOT
HETATM    1  C   UNK A   0      -5.901  15.853  65.235  1.00  0.00     7.779 C  
HETATM    2  N   UNK A   0      -6.692  14.696  65.641  1.00  0.00     6.515 NA 
ENDROOT
BRANCH   2   3
HETATM    3  C   UNK A   0      -6.866  14.464  66.981  1.00  0.00     0.736 A  
HETATM    4  C   UNK A   0      -6.596  13.665  69.166  1.00  0.00    -0.109 A  
HETATM    5  C   UNK A   0      -5.974  13.960  67.911  1.00  0.00    -0.143 A  
HETATM    6  S   UNK A   0      -8.357  14.830  67.746  1.00  0.00    -0.172 SA 
HETATM    7  C   UNK A   0      -7.933  14.010  69.178  1.00  0.00     0.146 A  
BRANCH   7   8
HETATM    8  C   UNK A   0      -8.931  13.727  70.194  1.00  0.00     2.814 C  
HETATM    9  O   UNK A   0      -8.759  13.943  71.389  1.00  0.00     5.763 OA 
ATOM     10  N   GLU A   1     -10.096  13.140  69.724  1.00  0.00     0.591 N  
ATOM     11  H   GLU A   1     -10.189  12.943  68.728  1.00  0.00     0.000 HD 
BRANCH  10  12
ATOM     12  CA  GLU A   1     -11.197  12.796  70.629  1.00  0.00     1.468 C  
ATOM     13  C   GLU A   1     -11.536  11.300  70.493  1.00  0.00     0.017 C  
ATOM     14  O   GLU A   1     -11.197  10.769  69.292  1.00  0.00    -0.230 OA 
ATOM     15  OXT GLU A   1     -12.182  10.669  71.318  1.00  0.00    -0.352 OA 
BRANCH  12  16
ATOM     16  CB  GLU A   1     -12.421  13.655  70.289  1.00  0.00    -0.335 C  
BRANCH  16  17
ATOM     17  CG  GLU A   1     -12.045  15.070  69.852  1.00  0.00    -0.376 C  
ATOM     18  CD  GLU A   1     -11.490  15.103  68.451  1.00  0.00    -0.332 C  
ATOM     19  OE2 GLU A   1     -10.888  14.184  67.926  1.00  0.00    -0.240 OA 
ATOM     20  OE1 GLU A   1     -11.699  16.289  67.835  1.00  0.00    -0.057 OA 
ENDBRANCH  16  17
ENDBRANCH  12  16
ENDBRANCH  10  12
ENDBRANCH   7   8
ENDBRANCH   2   3
BRANCH   2  21
HETATM   21  C   UNK A   0      -6.546  13.498  64.791  1.00  0.00    15.681 C  
BRANCH  21  22
HETATM   22  C   UNK A   0      -7.145  12.275  65.452  1.00  0.00     3.645 A  
HETATM   23  C   UNK A   0      -9.036  10.805  65.863  1.00  0.00    -0.200 A  
HETATM   24  C   UNK A   0      -8.246   9.973  66.658  1.00  0.00    -0.122 A  
HETATM   25  C   UNK A   0      -8.497  11.947  65.265  1.00  0.00     0.826 A  
HETATM   26  H   UNK A   0     -11.896   8.956  66.071  1.00  0.00     0.000 HD 
HETATM   27  C   UNK A   0      -6.910  10.308  66.872  1.00  0.00    -0.086 A  
HETATM   28  C   UNK A   0     -10.684   7.252  67.523  1.00  0.00    -0.326 C  
HETATM   29  N   UNK A   0      -8.829   8.847  67.240  1.00  0.00    -0.127 NA 
HETATM   30  N   UNK A   0     -10.933   9.254  66.228  1.00  0.00     0.492 N  
HETATM   31  C   UNK A   0      -6.363  11.446  66.267  1.00  0.00     0.013 A  
HETATM   32  C   UNK A   0     -10.461  10.427  65.673  1.00  0.00    -0.115 C  
HETATM   33  O   UNK A   0     -11.176  11.182  65.021  1.00  0.00    -0.105 OA 
HETATM   34  C   UNK A   0     -10.132   8.538  66.952  1.00  0.00    -0.294 C  
ENDBRANCH  21  22
ENDBRANCH   2  21
TORSDOF 7
ENDMDL
