MODEL        1
REMARK 921   NORMALIZED FREE ENERGY PREDICTED BY IDOCK:   -9.09 KCAL/MOL
REMARK 922        TOTAL FREE ENERGY PREDICTED BY IDOCK:  -12.04 KCAL/MOL
REMARK 923 INTER-LIGAND FREE ENERGY PREDICTED BY IDOCK:  -11.22 KCAL/MOL
REMARK 924 INTRA-LIGAND FREE ENERGY PREDICTED BY IDOCK:   -0.82 KCAL/MOL
REMARK 927      BINDING AFFINITY PREDICTED BY RF-SCORE:    0.00 PKD
ROOT
HETATM    1  C   UNL     1     -11.576  11.971  65.813  1.00  0.00    -0.290 C  
HETATM    2  N   UNL     1     -11.187  13.374  65.820  1.00  0.00    -0.289 N  
HETATM    3  C   UNL     1     -11.647  14.094  64.736  1.00  0.00    -0.396 C  
HETATM    4  O   UNL     1     -12.292  13.635  63.791  1.00  0.00    -0.671 OA 
HETATM    5  C   UNL     1     -11.339  15.529  64.693  1.00  0.00    -0.357 C  
HETATM    6  O   UNL     1     -11.862  16.237  63.625  1.00  0.00    -1.404 OA 
HETATM    7  C   UNL     1     -10.576  16.022  65.676  1.00  0.00    -0.377 C  
HETATM    8  N   UNL     1     -10.071  15.252  66.715  1.00  0.00    -0.252 NA 
HETATM    9  H   UNL     1     -10.750  11.376  68.716  1.00  0.00     0.000 HD 
HETATM   10  H   UNL     1     -11.663  17.166  63.598  1.00  0.00     0.000 HD 
HETATM   11  C   UNL     1     -10.382  13.982  66.776  1.00  0.00    -0.271 C  
HETATM   12  C   UNL     1     -11.637  12.983  69.661  1.00  0.00    -0.253 C  
HETATM   13  C   UNL     1      -8.775  12.048  67.374  1.00  0.00    -0.170 C  
HETATM   14  C   UNL     1      -8.846  14.002  68.854  1.00  0.00     0.062 C  
HETATM   15  C   UNL     1      -9.738  13.110  67.958  1.00  0.00    -0.224 C  
HETATM   16  O   UNL     1     -11.823  14.196  69.681  1.00  0.00    -0.282 OA 
HETATM   17  N   UNL     1     -10.730  12.393  68.789  1.00  0.00    -0.228 N  
ENDROOT
BRANCH   7  18
HETATM   18  C   UNL     1     -10.294  17.522  65.617  1.00  0.00    -0.134 C  
HETATM   19  H   UNL     1      -8.627  17.304  66.860  1.00  0.00     0.000 HD 
HETATM   20  N   UNL     1      -9.183  17.956  66.306  1.00  0.00    -0.230 N  
HETATM   21  O   UNL     1     -10.983  18.323  64.991  1.00  0.00    -0.684 OA 
BRANCH  20  22
HETATM   22  C   UNL     1      -8.818  19.358  66.228  1.00  0.00    -0.351 C  
BRANCH  22  23
HETATM   23  C   UNL     1      -7.850  19.819  67.289  1.00  0.00    -0.309 A  
HETATM   24  C   UNL     1      -7.809  19.144  68.523  1.00  0.00    -0.380 A  
HETATM   25  C   UNL     1      -6.913  20.835  67.044  1.00  0.00    -0.386 A  
HETATM   26  C   UNL     1      -6.898  19.521  69.511  1.00  0.00    -0.331 A  
HETATM   27  C   UNL     1      -6.015  20.563  69.261  1.00  0.00    -0.348 A  
HETATM   28  C   UNL     1      -6.007  21.215  68.035  1.00  0.00    -0.393 A  
HETATM   29  F   UNL     1      -5.151  20.938  70.214  1.00  0.00    -0.295 F  
ENDBRANCH  22  23
ENDBRANCH  20  22
ENDBRANCH   7  18
BRANCH  12  30
HETATM   30  C   UNL     1     -12.327  12.031  70.522  1.00  0.00    -0.282 A  
HETATM   31  N   UNL     1     -13.113  12.340  71.538  1.00  0.00    -0.341 NA 
HETATM   32  C   UNL     1     -12.980  10.189  71.366  1.00  0.00    -0.429 A  
HETATM   33  N   UNL     1     -13.535  11.143  72.083  1.00  0.00    -0.272 NA 
HETATM   34  C   UNL     1     -13.071   8.724  71.525  1.00  0.00    -0.358 C  
HETATM   35  O   UNL     1     -12.201  10.673  70.345  1.00  0.00    -0.294 OA 
ENDBRANCH  12  30
TORSDOF 4
ENDMDL
MODEL        2
REMARK 921   NORMALIZED FREE ENERGY PREDICTED BY IDOCK:   -9.01 KCAL/MOL
REMARK 922        TOTAL FREE ENERGY PREDICTED BY IDOCK:  -11.93 KCAL/MOL
REMARK 923 INTER-LIGAND FREE ENERGY PREDICTED BY IDOCK:  -10.96 KCAL/MOL
REMARK 924 INTRA-LIGAND FREE ENERGY PREDICTED BY IDOCK:   -0.97 KCAL/MOL
REMARK 927      BINDING AFFINITY PREDICTED BY RF-SCORE:    0.00 PKD
ROOT
HETATM    1  C   UNL     1     -11.234  11.550  65.247  1.00  0.00    -0.136 C  
HETATM    2  N   UNL     1     -11.060  12.984  65.435  1.00  0.00    -0.273 N  
HETATM    3  C   UNL     1     -11.719  13.761  64.504  1.00  0.00    -0.407 C  
HETATM    4  O   UNL     1     -12.373  13.336  63.549  1.00  0.00    -0.698 OA 
HETATM    5  C   UNL     1     -11.634  15.219  64.653  1.00  0.00    -0.333 C  
HETATM    6  O   UNL     1     -12.352  15.972  63.740  1.00  0.00    -1.167 OA 
HETATM    7  C   UNL     1     -10.865  15.691  65.642  1.00  0.00    -0.327 C  
HETATM    8  N   UNL     1     -10.159  14.878  66.518  1.00  0.00    -0.262 NA 
HETATM    9  H   UNL     1     -10.067  10.709  67.966  1.00  0.00     0.000 HD 
HETATM   10  H   UNL     1     -12.297  16.916  63.836  1.00  0.00     0.000 HD 
HETATM   11  C   UNL     1     -10.270  13.579  66.412  1.00  0.00    -0.291 C  
HETATM   12  C   UNL     1     -11.093  12.010  69.198  1.00  0.00    -0.215 C  
HETATM   13  C   UNL     1      -8.345  11.864  66.605  1.00  0.00    -0.117 C  
HETATM   14  C   UNL     1      -8.571  13.563  68.358  1.00  0.00    -0.142 C  
HETATM   15  C   UNL     1      -9.398  12.669  67.405  1.00  0.00    -0.189 C  
HETATM   16  O   UNL     1     -11.454  13.164  69.410  1.00  0.00    -0.269 OA 
HETATM   17  N   UNL     1     -10.192  11.697  68.188  1.00  0.00    -0.190 N  
ENDROOT
BRANCH   7  18
HETATM   18  C   UNL     1     -10.816  17.210  65.786  1.00  0.00    -0.039 C  
HETATM   19  H   UNL     1     -10.631  17.054  67.862  1.00  0.00     0.000 HD 
HETATM   20  N   UNL     1     -10.658  17.692  67.066  1.00  0.00    -0.300 N  
HETATM   21  O   UNL     1     -10.894  17.990  64.839  1.00  0.00    -0.715 OA 
BRANCH  20  22
HETATM   22  C   UNL     1     -10.529  19.124  67.262  1.00  0.00    -0.456 C  
BRANCH  22  23
HETATM   23  C   UNL     1      -9.138  19.592  67.605  1.00  0.00    -0.403 A  
HETATM   24  C   UNL     1      -8.498  19.069  68.744  1.00  0.00    -0.359 A  
HETATM   25  C   UNL     1      -8.420  20.457  66.764  1.00  0.00    -0.275 A  
HETATM   26  C   UNL     1      -7.195  19.453  69.068  1.00  0.00    -0.397 A  
HETATM   27  C   UNL     1      -6.525  20.349  68.245  1.00  0.00    -0.309 A  
HETATM   28  C   UNL     1      -7.120  20.845  67.092  1.00  0.00    -0.413 A  
HETATM   29  F   UNL     1      -5.281  20.733  68.563  1.00  0.00    -0.237 F  
ENDBRANCH  22  23
ENDBRANCH  20  22
ENDBRANCH   7  18
BRANCH  12  30
HETATM   30  C   UNL     1     -11.551  10.852  69.954  1.00  0.00    -0.331 A  
HETATM   31  N   UNL     1     -11.052   9.631  69.871  1.00  0.00    -0.241 NA 
HETATM   32  C   UNL     1     -12.685   9.641  71.288  1.00  0.00    -0.352 A  
HETATM   33  N   UNL     1     -11.790   8.849  70.737  1.00  0.00    -0.242 NA 
HETATM   34  C   UNL     1     -13.744   9.322  72.265  1.00  0.00    -0.527 C  
HETATM   35  O   UNL     1     -12.594  10.937  70.847  1.00  0.00    -0.345 OA 
ENDBRANCH  12  30
TORSDOF 4
ENDMDL
MODEL        3
REMARK 921   NORMALIZED FREE ENERGY PREDICTED BY IDOCK:   -8.91 KCAL/MOL
REMARK 922        TOTAL FREE ENERGY PREDICTED BY IDOCK:  -11.81 KCAL/MOL
REMARK 923 INTER-LIGAND FREE ENERGY PREDICTED BY IDOCK:  -11.03 KCAL/MOL
REMARK 924 INTRA-LIGAND FREE ENERGY PREDICTED BY IDOCK:   -0.78 KCAL/MOL
REMARK 927      BINDING AFFINITY PREDICTED BY RF-SCORE:    0.00 PKD
ROOT
HETATM    1  C   UNL     1     -10.956  10.594  65.597  1.00  0.00     0.180 C  
HETATM    2  N   UNL     1     -10.882  12.047  65.527  1.00  0.00    -0.283 N  
HETATM    3  C   UNL     1     -11.550  12.596  64.452  1.00  0.00    -0.357 C  
HETATM    4  O   UNL     1     -12.134  11.962  63.570  1.00  0.00    -0.504 OA 
HETATM    5  C   UNL     1     -11.565  14.059  64.336  1.00  0.00    -0.369 C  
HETATM    6  O   UNL     1     -12.290  14.585  63.281  1.00  0.00    -1.033 OA 
HETATM    7  C   UNL     1     -10.870  14.754  65.247  1.00  0.00    -0.383 C  
HETATM    8  N   UNL     1     -10.151  14.162  66.276  1.00  0.00    -0.290 NA 
HETATM    9  H   UNL     1      -9.853  10.336  68.458  1.00  0.00     0.000 HD 
HETATM   10  H   UNL     1     -12.300  15.532  63.207  1.00  0.00     0.000 HD 
HETATM   11  C   UNL     1     -10.174  12.860  66.404  1.00  0.00    -0.267 C  
HETATM   12  C   UNL     1     -11.012  11.761  69.402  1.00  0.00    -0.125 C  
HETATM   13  C   UNL     1      -8.153  11.348  66.962  1.00  0.00    -0.157 C  
HETATM   14  C   UNL     1      -8.561  13.313  68.371  1.00  0.00    -0.130 C  
HETATM   15  C   UNL     1      -9.288  12.206  67.571  1.00  0.00    -0.181 C  
HETATM   16  O   UNL     1     -11.455  12.905  69.391  1.00  0.00    -0.273 OA 
HETATM   17  N   UNL     1     -10.051  11.337  68.493  1.00  0.00    -0.198 N  
ENDROOT
BRANCH   7  18
HETATM   18  C   UNL     1     -10.925  16.273  65.114  1.00  0.00    -0.274 C  
HETATM   19  H   UNL     1     -10.286  16.515  67.090  1.00  0.00     0.000 HD 
HETATM   20  N   UNL     1     -10.538  16.992  66.224  1.00  0.00    -0.241 N  
HETATM   21  O   UNL     1     -11.271  16.859  64.091  1.00  0.00    -1.176 OA 
BRANCH  20  22
HETATM   22  C   UNL     1     -10.497  18.440  66.139  1.00  0.00    -0.395 C  
BRANCH  22  23
HETATM   23  C   UNL     1      -9.332  19.082  66.849  1.00  0.00    -0.346 A  
HETATM   24  C   UNL     1      -9.196  18.910  68.239  1.00  0.00    -0.373 A  
HETATM   25  C   UNL     1      -8.321  19.758  66.149  1.00  0.00    -0.368 A  
HETATM   26  C   UNL     1      -8.108  19.459  68.920  1.00  0.00    -0.344 A  
HETATM   27  C   UNL     1      -7.147  20.168  68.211  1.00  0.00    -0.269 A  
HETATM   28  C   UNL     1      -7.237  20.313  66.833  1.00  0.00    -0.316 A  
HETATM   29  F   UNL     1      -6.111  20.710  68.865  1.00  0.00    -0.334 F  
ENDBRANCH  22  23
ENDBRANCH  20  22
ENDBRANCH   7  18
BRANCH  12  30
HETATM   30  C   UNL     1     -11.426  10.727  70.342  1.00  0.00    -0.307 A  
HETATM   31  N   UNL     1     -10.655   9.766  70.819  1.00  0.00    -0.314 NA 
HETATM   32  C   UNL     1     -12.649   9.549  71.626  1.00  0.00    -0.388 A  
HETATM   33  N   UNL     1     -11.451   9.004  71.651  1.00  0.00    -0.336 NA 
HETATM   34  C   UNL     1     -13.886   9.127  72.312  1.00  0.00    -0.527 C  
HETATM   35  O   UNL     1     -12.714  10.658  70.819  1.00  0.00    -0.349 OA 
ENDBRANCH  12  30
TORSDOF 4
ENDMDL
MODEL        4
REMARK 921   NORMALIZED FREE ENERGY PREDICTED BY IDOCK:   -7.78 KCAL/MOL
REMARK 922        TOTAL FREE ENERGY PREDICTED BY IDOCK:  -10.41 KCAL/MOL
REMARK 923 INTER-LIGAND FREE ENERGY PREDICTED BY IDOCK:   -9.54 KCAL/MOL
REMARK 924 INTRA-LIGAND FREE ENERGY PREDICTED BY IDOCK:   -0.87 KCAL/MOL
REMARK 927      BINDING AFFINITY PREDICTED BY RF-SCORE:    0.00 PKD
ROOT
HETATM    1  C   UNL     1     -11.907  15.791  64.786  1.00  0.00     0.018 C  
HETATM    2  N   UNL     1     -11.453  14.439  65.084  1.00  0.00    -0.347 N  
HETATM    3  C   UNL     1     -11.777  13.509  64.118  1.00  0.00    -0.411 C  
HETATM    4  O   UNL     1     -12.432  13.732  63.098  1.00  0.00    -0.786 OA 
HETATM    5  C   UNL     1     -11.312  12.130  64.320  1.00  0.00    -0.360 C  
HETATM    6  O   UNL     1     -11.601  11.231  63.308  1.00  0.00    -0.805 OA 
HETATM    7  C   UNL     1     -10.665  11.862  65.461  1.00  0.00    -0.283 C  
HETATM    8  N   UNL     1     -10.418  12.811  66.443  1.00  0.00    -0.248 NA 
HETATM    9  H   UNL     1     -10.270  17.190  66.983  1.00  0.00     0.000 HD 
HETATM   10  H   UNL     1     -11.300  10.339  63.439  1.00  0.00     0.000 HD 
HETATM   11  C   UNL     1     -10.794  14.048  66.244  1.00  0.00    -0.291 C  
HETATM   12  C   UNL     1      -8.430  16.315  66.649  1.00  0.00    -0.271 C  
HETATM   13  C   UNL     1     -11.893  15.607  67.989  1.00  0.00    -0.032 C  
HETATM   14  C   UNL     1      -9.844  14.417  68.618  1.00  0.00    -0.231 C  
HETATM   15  C   UNL     1     -10.542  15.107  67.422  1.00  0.00    -0.271 C  
HETATM   16  O   UNL     1      -7.795  15.281  66.464  1.00  0.00    -0.011 OA 
HETATM   17  N   UNL     1      -9.771  16.300  67.008  1.00  0.00    -0.234 N  
ENDROOT
BRANCH   7  18
HETATM   18  C   UNL     1     -10.173  10.427  65.630  1.00  0.00    -0.238 C  
HETATM   19  H   UNL     1     -10.952  10.339  67.568  1.00  0.00     0.000 HD 
HETATM   20  N   UNL     1     -10.474   9.821  66.830  1.00  0.00    -0.215 N  
HETATM   21  O   UNL     1      -9.556   9.808  64.765  1.00  0.00    -0.293 OA 
BRANCH  20  22
HETATM   22  C   UNL     1     -10.100   8.433  67.024  1.00  0.00    -0.284 C  
BRANCH  22  23
HETATM   23  C   UNL     1     -10.487   7.856  68.362  1.00  0.00    -0.207 A  
HETATM   24  C   UNL     1     -10.644   8.718  69.464  1.00  0.00    -0.224 A  
HETATM   25  C   UNL     1     -10.797   6.496  68.520  1.00  0.00    -0.353 A  
HETATM   26  C   UNL     1     -11.039   8.220  70.706  1.00  0.00    -0.280 A  
HETATM   27  C   UNL     1     -11.292   6.862  70.847  1.00  0.00    -0.304 A  
HETATM   28  C   UNL     1     -11.185   5.999  69.765  1.00  0.00    -0.440 A  
HETATM   29  F   UNL     1     -11.654   6.379  72.043  1.00  0.00    -0.297 F  
ENDBRANCH  22  23
ENDBRANCH  20  22
ENDBRANCH   7  18
BRANCH  12  30
HETATM   30  C   UNL     1      -7.874  17.656  66.517  1.00  0.00    -0.272 A  
HETATM   31  N   UNL     1      -7.958  18.617  67.421  1.00  0.00    -0.235 NA 
HETATM   32  C   UNL     1      -6.889  19.353  65.692  1.00  0.00    -0.291 A  
HETATM   33  N   UNL     1      -7.319  19.716  66.882  1.00  0.00    -0.219 NA 
HETATM   34  C   UNL     1      -6.164  20.142  64.676  1.00  0.00    -0.325 C  
HETATM   35  O   UNL     1      -7.196  18.051  65.388  1.00  0.00    -0.502 OA 
ENDBRANCH  12  30
TORSDOF 4
ENDMDL
MODEL        5
REMARK 921   NORMALIZED FREE ENERGY PREDICTED BY IDOCK:   -7.57 KCAL/MOL
REMARK 922        TOTAL FREE ENERGY PREDICTED BY IDOCK:  -10.16 KCAL/MOL
REMARK 923 INTER-LIGAND FREE ENERGY PREDICTED BY IDOCK:   -9.27 KCAL/MOL
REMARK 924 INTRA-LIGAND FREE ENERGY PREDICTED BY IDOCK:   -0.89 KCAL/MOL
REMARK 927      BINDING AFFINITY PREDICTED BY RF-SCORE:    0.00 PKD
ROOT
HETATM    1  C   UNL     1     -10.865  16.460  64.920  1.00  0.00    -0.250 C  
HETATM    2  N   UNL     1     -10.590  15.239  65.666  1.00  0.00    -0.337 N  
HETATM    3  C   UNL     1     -11.049  14.089  65.056  1.00  0.00    -0.363 C  
HETATM    4  O   UNL     1     -11.682  14.041  64.000  1.00  0.00    -0.350 OA 
HETATM    5  C   UNL     1     -10.769  12.810  65.721  1.00  0.00    -0.272 C  
HETATM    6  O   UNL     1     -11.189  11.670  65.059  1.00  0.00    -0.283 OA 
HETATM    7  C   UNL     1     -10.147  12.858  66.906  1.00  0.00    -0.241 C  
HETATM    8  N   UNL     1      -9.762  14.040  67.522  1.00  0.00    -0.227 NA 
HETATM    9  H   UNL     1      -9.024  18.288  66.574  1.00  0.00     0.000 HD 
HETATM   10  H   UNL     1     -11.008  10.842  65.489  1.00  0.00     0.000 HD 
HETATM   11  C   UNL     1      -9.973  15.177  66.910  1.00  0.00    -0.239 C  
HETATM   12  C   UNL     1      -7.322  17.121  66.609  1.00  0.00    -0.250 C  
HETATM   13  C   UNL     1     -10.830  17.359  67.999  1.00  0.00    -0.281 C  
HETATM   14  C   UNL     1      -8.948  16.193  69.053  1.00  0.00    -0.247 C  
HETATM   15  C   UNL     1      -9.566  16.527  67.674  1.00  0.00    -0.235 C  
HETATM   16  O   UNL     1      -6.834  16.011  66.799  1.00  0.00    -0.241 OA 
HETATM   17  N   UNL     1      -8.649  17.401  66.910  1.00  0.00    -0.239 N  
ENDROOT
BRANCH   7  18
HETATM   18  C   UNL     1      -9.848  11.511  67.560  1.00  0.00    -0.190 C  
HETATM   19  H   UNL     1     -10.563  12.194  69.401  1.00  0.00     0.000 HD 
HETATM   20  N   UNL     1     -10.186  11.396  68.890  1.00  0.00    -0.197 N  
HETATM   21  O   UNL     1      -9.352  10.557  66.965  1.00  0.00    -0.153 OA 
BRANCH  20  22
HETATM   22  C   UNL     1      -9.996  10.118  69.550  1.00  0.00    -0.235 C  
BRANCH  22  23
HETATM   23  C   UNL     1     -11.093   9.733  70.510  1.00  0.00    -0.384 A  
HETATM   24  C   UNL     1     -12.142  10.639  70.753  1.00  0.00    -0.474 A  
HETATM   25  C   UNL     1     -11.155   8.456  71.089  1.00  0.00    -0.301 A  
HETATM   26  C   UNL     1     -13.193  10.299  71.607  1.00  0.00    -0.509 A  
HETATM   27  C   UNL     1     -13.205   9.046  72.207  1.00  0.00    -0.460 A  
HETATM   28  C   UNL     1     -12.203   8.120  71.948  1.00  0.00    -0.373 A  
HETATM   29  F   UNL     1     -14.203   8.723  73.039  1.00  0.00    -0.392 F  
ENDBRANCH  22  23
ENDBRANCH  20  22
ENDBRANCH   7  18
BRANCH  12  30
HETATM   30  C   UNL     1      -6.594  18.256  66.055  1.00  0.00    -0.255 A  
HETATM   31  N   UNL     1      -5.792  19.060  66.730  1.00  0.00    -0.159 NA 
HETATM   32  C   UNL     1      -5.886  19.708  64.670  1.00  0.00    -0.246 A  
HETATM   33  N   UNL     1      -5.335  20.001  65.828  1.00  0.00    -0.161 NA 
HETATM   34  C   UNL     1      -5.763  20.400  63.372  1.00  0.00    -0.301 C  
HETATM   35  O   UNL     1      -6.698  18.603  64.729  1.00  0.00    -0.423 OA 
ENDBRANCH  12  30
TORSDOF 4
ENDMDL
MODEL        6
REMARK 921   NORMALIZED FREE ENERGY PREDICTED BY IDOCK:   -7.50 KCAL/MOL
REMARK 922        TOTAL FREE ENERGY PREDICTED BY IDOCK:  -10.08 KCAL/MOL
REMARK 923 INTER-LIGAND FREE ENERGY PREDICTED BY IDOCK:   -9.22 KCAL/MOL
REMARK 924 INTRA-LIGAND FREE ENERGY PREDICTED BY IDOCK:   -0.85 KCAL/MOL
REMARK 927      BINDING AFFINITY PREDICTED BY RF-SCORE:    0.00 PKD
ROOT
HETATM    1  C   UNL     1     -12.385  15.084  64.814  1.00  0.00    -0.156 C  
HETATM    2  N   UNL     1     -11.628  13.849  64.971  1.00  0.00    -0.331 N  
HETATM    3  C   UNL     1     -11.792  12.950  63.938  1.00  0.00    -0.473 C  
HETATM    4  O   UNL     1     -12.536  13.101  62.966  1.00  0.00    -0.598 OA 
HETATM    5  C   UNL     1     -11.023  11.700  63.996  1.00  0.00    -0.387 C  
HETATM    6  O   UNL     1     -11.163  10.843  62.919  1.00  0.00    -0.596 OA 
HETATM    7  C   UNL     1     -10.270  11.494  65.084  1.00  0.00    -0.274 C  
HETATM    8  N   UNL     1     -10.185  12.392  66.138  1.00  0.00    -0.237 NA 
HETATM    9  H   UNL     1     -10.977  16.634  67.067  1.00  0.00     0.000 HD 
HETATM   10  H   UNL     1     -10.665  10.034  62.957  1.00  0.00     0.000 HD 
HETATM   11  C   UNL     1     -10.835  13.525  66.066  1.00  0.00    -0.278 C  
HETATM   12  C   UNL     1      -9.011  16.226  66.588  1.00  0.00    -0.251 C  
HETATM   13  C   UNL     1     -12.152  14.651  67.984  1.00  0.00    -0.206 C  
HETATM   14  C   UNL     1      -9.858  13.907  68.427  1.00  0.00    -0.229 C  
HETATM   15  C   UNL     1     -10.758  14.515  67.325  1.00  0.00    -0.287 C  
HETATM   16  O   UNL     1      -8.175  15.379  66.286  1.00  0.00    -0.087 OA 
HETATM   17  N   UNL     1     -10.294  15.880  66.993  1.00  0.00    -0.292 N  
ENDROOT
BRANCH   7  18
HETATM   18  C   UNL     1      -9.465  10.197  65.104  1.00  0.00    -0.260 C  
HETATM   19  H   UNL     1     -10.557   9.490  66.740  1.00  0.00     0.000 HD 
HETATM   20  N   UNL     1      -9.827   9.275  66.061  1.00  0.00    -0.294 N  
HETATM   21  O   UNL     1      -8.551   9.946  64.321  1.00  0.00    -0.158 OA 
BRANCH  20  22
HETATM   22  C   UNL     1      -9.149   7.992  66.085  1.00  0.00    -0.176 C  
BRANCH  22  23
HETATM   23  C   UNL     1      -9.550   7.087  67.223  1.00  0.00    -0.175 A  
HETATM   24  C   UNL     1      -8.865   5.871  67.407  1.00  0.00    -0.106 A  
HETATM   25  C   UNL     1     -10.515   7.469  68.167  1.00  0.00    -0.233 A  
HETATM   26  C   UNL     1      -9.186   5.029  68.474  1.00  0.00    -0.153 A  
HETATM   27  C   UNL     1     -10.180   5.409  69.366  1.00  0.00    -0.264 A  
HETATM   28  C   UNL     1     -10.839   6.623  69.229  1.00  0.00    -0.335 A  
HETATM   29  F   UNL     1     -10.502   4.594  70.380  1.00  0.00    -0.294 F  
ENDBRANCH  22  23
ENDBRANCH  20  22
ENDBRANCH   7  18
BRANCH  12  30
HETATM   30  C   UNL     1      -8.773  17.663  66.558  1.00  0.00    -0.263 A  
HETATM   31  N   UNL     1      -7.783  18.267  65.925  1.00  0.00    -0.512 NA 
HETATM   32  C   UNL     1      -8.986  19.746  66.944  1.00  0.00    -0.339 A  
HETATM   33  N   UNL     1      -7.925  19.618  66.177  1.00  0.00    -0.336 NA 
HETATM   34  C   UNL     1      -9.577  20.965  67.531  1.00  0.00    -0.358 C  
HETATM   35  O   UNL     1      -9.589  18.545  67.226  1.00  0.00    -0.286 OA 
ENDBRANCH  12  30
TORSDOF 4
ENDMDL
MODEL        7
REMARK 921   NORMALIZED FREE ENERGY PREDICTED BY IDOCK:   -7.50 KCAL/MOL
REMARK 922        TOTAL FREE ENERGY PREDICTED BY IDOCK:  -10.07 KCAL/MOL
REMARK 923 INTER-LIGAND FREE ENERGY PREDICTED BY IDOCK:   -9.15 KCAL/MOL
REMARK 924 INTRA-LIGAND FREE ENERGY PREDICTED BY IDOCK:   -0.93 KCAL/MOL
REMARK 927      BINDING AFFINITY PREDICTED BY RF-SCORE:    0.00 PKD
ROOT
HETATM    1  C   UNL     1      -9.781   9.874  64.967  1.00  0.00    -0.288 C  
HETATM    2  N   UNL     1      -9.958  11.292  65.250  1.00  0.00    -0.239 N  
HETATM    3  C   UNL     1     -10.697  11.970  64.303  1.00  0.00    -0.336 C  
HETATM    4  O   UNL     1     -11.153  11.484  63.266  1.00  0.00    -0.341 OA 
HETATM    5  C   UNL     1     -10.962  13.395  64.540  1.00  0.00    -0.390 C  
HETATM    6  O   UNL     1     -11.755  14.035  63.603  1.00  0.00    -0.639 OA 
HETATM    7  C   UNL     1     -10.408  13.949  65.625  1.00  0.00    -0.325 C  
HETATM    8  N   UNL     1      -9.610  13.251  66.520  1.00  0.00    -0.264 NA 
HETATM    9  H   UNL     1      -8.684   9.110  67.738  1.00  0.00     0.000 HD 
HETATM   10  H   UNL     1     -11.926  14.957  63.757  1.00  0.00     0.000 HD 
HETATM   11  C   UNL     1      -9.410  11.971  66.332  1.00  0.00    -0.228 C  
HETATM   12  C   UNL     1     -10.081  10.051  68.932  1.00  0.00    -0.190 C  
HETATM   13  C   UNL     1      -7.166  10.721  66.619  1.00  0.00    -0.134 C  
HETATM   14  C   UNL     1      -7.922  12.188  68.433  1.00  0.00    -0.152 C  
HETATM   15  C   UNL     1      -8.439  11.207  67.354  1.00  0.00    -0.134 C  
HETATM   16  O   UNL     1     -10.714  11.075  69.171  1.00  0.00    -0.214 OA 
HETATM   17  N   UNL     1      -9.051  10.025  68.000  1.00  0.00    -0.131 N  
ENDROOT
BRANCH   7  18
HETATM   18  C   UNL     1     -10.722  15.425  65.857  1.00  0.00    -0.336 C  
HETATM   19  H   UNL     1     -10.663  15.161  67.929  1.00  0.00     0.000 HD 
HETATM   20  N   UNL     1     -10.776  15.834  67.171  1.00  0.00    -0.318 N  
HETATM   21  O   UNL     1     -10.905  16.236  64.951  1.00  0.00    -0.625 OA 
BRANCH  20  22
HETATM   22  C   UNL     1     -10.996  17.239  67.456  1.00  0.00    -0.102 C  
BRANCH  22  23
HETATM   23  C   UNL     1      -9.739  18.055  67.620  1.00  0.00    -0.291 A  
HETATM   24  C   UNL     1      -9.714  19.381  67.147  1.00  0.00    -0.425 A  
HETATM   25  C   UNL     1      -8.626  17.567  68.323  1.00  0.00    -0.266 A  
HETATM   26  C   UNL     1      -8.579  20.175  67.317  1.00  0.00    -0.414 A  
HETATM   27  C   UNL     1      -7.472  19.651  67.973  1.00  0.00    -0.295 A  
HETATM   28  C   UNL     1      -7.489  18.361  68.485  1.00  0.00    -0.309 A  
HETATM   29  F   UNL     1      -6.375  20.406  68.122  1.00  0.00    -0.268 F  
ENDBRANCH  22  23
ENDBRANCH  20  22
ENDBRANCH   7  18
BRANCH  12  30
HETATM   30  C   UNL     1     -10.323   8.765  69.574  1.00  0.00    -0.213 A  
HETATM   31  N   UNL     1      -9.590   7.676  69.418  1.00  0.00    -0.159 NA 
HETATM   32  C   UNL     1     -11.233   7.247  70.757  1.00  0.00    -0.274 A  
HETATM   33  N   UNL     1     -10.183   6.694  70.186  1.00  0.00    -0.184 NA 
HETATM   34  C   UNL     1     -12.235   6.646  71.658  1.00  0.00    -0.401 C  
HETATM   35  O   UNL     1     -11.386   8.569  70.423  1.00  0.00    -0.256 OA 
ENDBRANCH  12  30
TORSDOF 4
ENDMDL
MODEL        8
REMARK 921   NORMALIZED FREE ENERGY PREDICTED BY IDOCK:   -7.50 KCAL/MOL
REMARK 922        TOTAL FREE ENERGY PREDICTED BY IDOCK:  -10.07 KCAL/MOL
REMARK 923 INTER-LIGAND FREE ENERGY PREDICTED BY IDOCK:   -9.31 KCAL/MOL
REMARK 924 INTRA-LIGAND FREE ENERGY PREDICTED BY IDOCK:   -0.76 KCAL/MOL
REMARK 927      BINDING AFFINITY PREDICTED BY RF-SCORE:    0.00 PKD
ROOT
HETATM    1  C   UNL     1     -10.593  12.930  63.600  1.00  0.00    -0.135 C  
HETATM    2  N   UNL     1     -10.482  11.968  64.688  1.00  0.00    -0.283 N  
HETATM    3  C   UNL     1      -9.916  10.764  64.322  1.00  0.00    -0.341 C  
HETATM    4  O   UNL     1      -9.561  10.455  63.183  1.00  0.00    -0.306 OA 
HETATM    5  C   UNL     1      -9.723   9.756  65.373  1.00  0.00    -0.313 C  
HETATM    6  O   UNL     1      -9.101   8.581  64.989  1.00  0.00    -0.420 OA 
HETATM    7  C   UNL     1     -10.174  10.054  66.598  1.00  0.00    -0.223 C  
HETATM    8  N   UNL     1     -10.803  11.250  66.913  1.00  0.00    -0.270 NA 
HETATM    9  H   UNL     1     -11.279  15.356  65.364  1.00  0.00     0.000 HD 
HETATM   10  H   UNL     1      -8.976   7.929  65.669  1.00  0.00     0.000 HD 
HETATM   11  C   UNL     1     -10.936  12.165  65.987  1.00  0.00    -0.293 C  
HETATM   12  C   UNL     1      -9.812  15.160  66.803  1.00  0.00    -0.241 C  
HETATM   13  C   UNL     1     -13.034  13.615  65.566  1.00  0.00    -0.325 C  
HETATM   14  C   UNL     1     -12.160  13.467  67.853  1.00  0.00    -0.304 C  
HETATM   15  C   UNL     1     -11.716  13.513  66.371  1.00  0.00    -0.369 C  
HETATM   16  O   UNL     1      -9.227  14.419  67.587  1.00  0.00    -0.187 OA 
HETATM   17  N   UNL     1     -10.946  14.750  66.114  1.00  0.00    -0.327 N  
ENDROOT
BRANCH   7  18
HETATM   18  C   UNL     1      -9.937   8.997  67.673  1.00  0.00    -0.201 C  
HETATM   19  H   UNL     1      -9.259  10.448  69.016  1.00  0.00     0.000 HD 
HETATM   20  N   UNL     1      -9.475   9.459  68.886  1.00  0.00    -0.152 N  
HETATM   21  O   UNL     1     -10.150   7.797  67.512  1.00  0.00    -0.175 OA 
BRANCH  20  22
HETATM   22  C   UNL     1      -9.300   8.514  69.973  1.00  0.00    -0.163 C  
BRANCH  22  23
HETATM   23  C   UNL     1     -10.583   7.984  70.561  1.00  0.00    -0.222 A  
HETATM   24  C   UNL     1     -10.654   6.634  70.950  1.00  0.00    -0.263 A  
HETATM   25  C   UNL     1     -11.677   8.823  70.828  1.00  0.00    -0.253 A  
HETATM   26  C   UNL     1     -11.814   6.121  71.534  1.00  0.00    -0.204 A  
HETATM   27  C   UNL     1     -12.901   6.961  71.742  1.00  0.00    -0.304 A  
HETATM   28  C   UNL     1     -12.839   8.307  71.405  1.00  0.00    -0.263 A  
HETATM   29  F   UNL     1     -14.021   6.468  72.285  1.00  0.00    -0.288 F  
ENDBRANCH  22  23
ENDBRANCH  20  22
ENDBRANCH   7  18
BRANCH  12  30
HETATM   30  C   UNL     1      -9.403  16.525  66.500  1.00  0.00    -0.269 A  
HETATM   31  N   UNL     1      -8.251  16.882  65.959  1.00  0.00    -0.484 NA 
HETATM   32  C   UNL     1      -9.431  18.649  66.357  1.00  0.00    -0.311 A  
HETATM   33  N   UNL     1      -8.273  18.259  65.867  1.00  0.00    -0.508 NA 
HETATM   34  C   UNL     1      -9.967  20.014  66.524  1.00  0.00    -0.603 C  
HETATM   35  O   UNL     1     -10.213  17.601  66.774  1.00  0.00    -0.312 OA 
ENDBRANCH  12  30
TORSDOF 4
ENDMDL
MODEL        9
REMARK 921   NORMALIZED FREE ENERGY PREDICTED BY IDOCK:   -7.50 KCAL/MOL
REMARK 922        TOTAL FREE ENERGY PREDICTED BY IDOCK:  -10.07 KCAL/MOL
REMARK 923 INTER-LIGAND FREE ENERGY PREDICTED BY IDOCK:   -9.17 KCAL/MOL
REMARK 924 INTRA-LIGAND FREE ENERGY PREDICTED BY IDOCK:   -0.91 KCAL/MOL
REMARK 927      BINDING AFFINITY PREDICTED BY RF-SCORE:    0.00 PKD
ROOT
HETATM    1  C   UNL     1      -9.272   9.981  64.096  1.00  0.00    -0.271 C  
HETATM    2  N   UNL     1      -9.632  11.174  64.850  1.00  0.00    -0.231 N  
HETATM    3  C   UNL     1     -10.385  12.086  64.140  1.00  0.00    -0.347 C  
HETATM    4  O   UNL     1     -10.713  11.979  62.957  1.00  0.00    -0.294 OA 
HETATM    5  C   UNL     1     -10.831  13.295  64.844  1.00  0.00    -0.345 C  
HETATM    6  O   UNL     1     -11.632  14.164  64.125  1.00  0.00    -0.583 OA 
HETATM    7  C   UNL     1     -10.417  13.457  66.107  1.00  0.00    -0.295 C  
HETATM    8  N   UNL     1      -9.600  12.550  66.768  1.00  0.00    -0.225 NA 
HETATM    9  H   UNL     1      -8.271   8.349  66.504  1.00  0.00     0.000 HD 
HETATM   10  H   UNL     1     -11.921  14.946  64.581  1.00  0.00     0.000 HD 
HETATM   11  C   UNL     1      -9.239  11.452  66.155  1.00  0.00    -0.210 C  
HETATM   12  C   UNL     1      -9.842   8.658  67.806  1.00  0.00    -0.175 C  
HETATM   13  C   UNL     1      -6.885  10.384  66.202  1.00  0.00    -0.125 C  
HETATM   14  C   UNL     1      -7.924  11.008  68.334  1.00  0.00    -0.131 C  
HETATM   15  C   UNL     1      -8.251  10.452  66.927  1.00  0.00    -0.124 C  
HETATM   16  O   UNL     1     -10.606   9.463  68.331  1.00  0.00    -0.218 OA 
HETATM   17  N   UNL     1      -8.759   9.067  67.038  1.00  0.00    -0.116 N  
ENDROOT
BRANCH   7  18
HETATM   18  C   UNL     1     -10.917  14.710  66.821  1.00  0.00    -0.323 C  
HETATM   19  H   UNL     1     -11.549  13.581  68.462  1.00  0.00     0.000 HD 
HETATM   20  N   UNL     1     -11.453  14.520  68.075  1.00  0.00    -0.305 N  
HETATM   21  O   UNL     1     -10.848  15.842  66.345  1.00  0.00    -0.301 OA 
BRANCH  20  22
HETATM   22  C   UNL     1     -11.878  15.680  68.836  1.00  0.00    -0.352 C  
BRANCH  22  23
HETATM   23  C   UNL     1     -12.139  15.417  70.297  1.00  0.00    -0.402 A  
HETATM   24  C   UNL     1     -11.673  16.336  71.255  1.00  0.00    -0.396 A  
HETATM   25  C   UNL     1     -12.924  14.334  70.725  1.00  0.00    -0.368 A  
HETATM   26  C   UNL     1     -11.931  16.142  72.613  1.00  0.00    -0.653 A  
HETATM   27  C   UNL     1     -12.669  15.035  73.015  1.00  0.00    -0.456 A  
HETATM   28  C   UNL     1     -13.175  14.137  72.084  1.00  0.00    -0.510 A  
HETATM   29  F   UNL     1     -12.902  14.836  74.318  1.00  0.00    -0.459 F  
ENDBRANCH  22  23
ENDBRANCH  20  22
ENDBRANCH   7  18
BRANCH  12  30
HETATM   30  C   UNL     1      -9.971   7.211  67.915  1.00  0.00    -0.154 A  
HETATM   31  N   UNL     1     -10.357   6.550  68.992  1.00  0.00    -0.180 NA 
HETATM   32  C   UNL     1      -9.911   5.143  67.413  1.00  0.00    -0.166 A  
HETATM   33  N   UNL     1     -10.317   5.210  68.663  1.00  0.00    -0.123 NA 
HETATM   34  C   UNL     1      -9.668   3.957  66.569  1.00  0.00    -0.186 C  
HETATM   35  O   UNL     1      -9.676   6.377  66.862  1.00  0.00    -0.141 OA 
ENDBRANCH  12  30
TORSDOF 4
ENDMDL
MODEL       10
REMARK 921   NORMALIZED FREE ENERGY PREDICTED BY IDOCK:   -7.44 KCAL/MOL
REMARK 922        TOTAL FREE ENERGY PREDICTED BY IDOCK:  -10.00 KCAL/MOL
REMARK 923 INTER-LIGAND FREE ENERGY PREDICTED BY IDOCK:   -9.08 KCAL/MOL
REMARK 924 INTRA-LIGAND FREE ENERGY PREDICTED BY IDOCK:   -0.92 KCAL/MOL
REMARK 927      BINDING AFFINITY PREDICTED BY RF-SCORE:    0.00 PKD
ROOT
HETATM    1  C   UNL     1     -10.813  13.206  63.456  1.00  0.00     0.172 C  
HETATM    2  N   UNL     1     -10.548  12.129  64.401  1.00  0.00    -0.301 N  
HETATM    3  C   UNL     1      -9.948  11.021  63.841  1.00  0.00    -0.341 C  
HETATM    4  O   UNL     1      -9.680  10.876  62.646  1.00  0.00    -0.276 OA 
HETATM    5  C   UNL     1      -9.602   9.910  64.736  1.00  0.00    -0.271 C  
HETATM    6  O   UNL     1      -8.949   8.835  64.158  1.00  0.00    -0.421 OA 
HETATM    7  C   UNL     1      -9.956  10.026  66.022  1.00  0.00    -0.267 C  
HETATM    8  N   UNL     1     -10.623  11.129  66.537  1.00  0.00    -0.256 NA 
HETATM    9  H   UNL     1     -11.476  15.349  65.561  1.00  0.00     0.000 HD 
HETATM   10  H   UNL     1      -8.726   8.116  64.738  1.00  0.00     0.000 HD 
HETATM   11  C   UNL     1     -10.892  12.137  65.748  1.00  0.00    -0.281 C  
HETATM   12  C   UNL     1      -9.875  15.082  66.838  1.00  0.00    -0.238 C  
HETATM   13  C   UNL     1     -13.101  13.479  65.688  1.00  0.00    -0.028 C  
HETATM   14  C   UNL     1     -12.016  13.118  67.857  1.00  0.00    -0.347 C  
HETATM   15  C   UNL     1     -11.711  13.372  66.362  1.00  0.00    -0.368 C  
HETATM   16  O   UNL     1      -9.179  14.295  67.471  1.00  0.00    -0.186 OA 
HETATM   17  N   UNL     1     -11.042  14.681  66.199  1.00  0.00    -0.329 N  
ENDROOT
BRANCH   7  18
HETATM   18  C   UNL     1      -9.562   8.866  66.933  1.00  0.00    -0.190 C  
HETATM   19  H   UNL     1     -11.568   8.379  67.259  1.00  0.00     0.000 HD 
HETATM   20  N   UNL     1     -10.599   8.120  67.447  1.00  0.00    -0.279 N  
HETATM   21  O   UNL     1      -8.399   8.573  67.203  1.00  0.00    -0.110 OA 
BRANCH  20  22
HETATM   22  C   UNL     1     -10.288   6.959  68.259  1.00  0.00    -0.193 C  
BRANCH  22  23
HETATM   23  C   UNL     1     -10.513   7.144  69.739  1.00  0.00    -0.238 A  
HETATM   24  C   UNL     1     -11.601   6.498  70.355  1.00  0.00    -0.470 A  
HETATM   25  C   UNL     1      -9.609   7.858  70.541  1.00  0.00    -0.170 A  
HETATM   26  C   UNL     1     -11.814   6.618  71.729  1.00  0.00    -0.380 A  
HETATM   27  C   UNL     1     -10.932   7.372  72.493  1.00  0.00    -0.296 A  
HETATM   28  C   UNL     1      -9.828   7.983  71.914  1.00  0.00    -0.251 A  
HETATM   29  F   UNL     1     -11.145   7.503  73.809  1.00  0.00    -0.353 F  
ENDBRANCH  22  23
ENDBRANCH  20  22
ENDBRANCH   7  18
BRANCH  12  30
HETATM   30  C   UNL     1      -9.576  16.499  66.676  1.00  0.00    -0.258 A  
HETATM   31  N   UNL     1      -8.715  17.011  65.813  1.00  0.00    -0.487 NA 
HETATM   32  C   UNL     1      -9.594  18.607  66.977  1.00  0.00    -0.304 A  
HETATM   33  N   UNL     1      -8.730  18.377  66.012  1.00  0.00    -0.503 NA 
HETATM   34  C   UNL     1      -9.981  19.885  67.604  1.00  0.00    -0.553 C  
HETATM   35  O   UNL     1     -10.183  17.460  67.449  1.00  0.00    -0.305 OA 
ENDBRANCH  12  30
TORSDOF 4
ENDMDL
MODEL       11
REMARK 921   NORMALIZED FREE ENERGY PREDICTED BY IDOCK:   -7.35 KCAL/MOL
REMARK 922        TOTAL FREE ENERGY PREDICTED BY IDOCK:   -9.89 KCAL/MOL
REMARK 923 INTER-LIGAND FREE ENERGY PREDICTED BY IDOCK:   -8.99 KCAL/MOL
REMARK 924 INTRA-LIGAND FREE ENERGY PREDICTED BY IDOCK:   -0.90 KCAL/MOL
REMARK 927      BINDING AFFINITY PREDICTED BY RF-SCORE:    0.00 PKD
ROOT
HETATM    1  C   UNL     1      -9.385   9.509  65.224  1.00  0.00    -0.253 C  
HETATM    2  N   UNL     1      -9.786  10.909  65.174  1.00  0.00    -0.254 N  
HETATM    3  C   UNL     1     -10.509  11.250  64.050  1.00  0.00    -0.378 C  
HETATM    4  O   UNL     1     -10.781  10.495  63.115  1.00  0.00     0.314 OA 
HETATM    5  C   UNL     1     -10.993  12.633  63.947  1.00  0.00    -0.424 C  
HETATM    6  O   UNL     1     -11.764  12.933  62.838  1.00  0.00    -0.776 OA 
HETATM    7  C   UNL     1     -10.639  13.480  64.922  1.00  0.00    -0.397 C  
HETATM    8  N   UNL     1      -9.850  13.117  66.004  1.00  0.00    -0.279 NA 
HETATM    9  H   UNL     1      -8.490   9.517  68.167  1.00  0.00     0.000 HD 
HETATM   10  H   UNL     1     -12.077  13.828  62.772  1.00  0.00     0.000 HD 
HETATM   11  C   UNL     1      -9.455  11.875  66.118  1.00  0.00    -0.231 C  
HETATM   12  C   UNL     1     -10.122  10.450  69.020  1.00  0.00    -0.213 C  
HETATM   13  C   UNL     1      -7.102  11.083  66.835  1.00  0.00    -0.125 C  
HETATM   14  C   UNL     1      -8.241  12.753  68.222  1.00  0.00    -0.159 C  
HETATM   15  C   UNL     1      -8.500  11.501  67.351  1.00  0.00    -0.147 C  
HETATM   16  O   UNL     1     -10.914  11.388  68.981  1.00  0.00    -0.212 OA 
HETATM   17  N   UNL     1      -9.007  10.396  68.194  1.00  0.00    -0.130 N  
ENDROOT
BRANCH   7  18
HETATM   18  C   UNL     1     -11.178  14.904  64.800  1.00  0.00    -0.386 C  
HETATM   19  H   UNL     1      -9.515  15.669  65.809  1.00  0.00     0.000 HD 
HETATM   20  N   UNL     1     -10.383  15.899  65.324  1.00  0.00    -0.367 N  
HETATM   21  O   UNL     1     -12.244  15.188  64.259  1.00  0.00    -0.536 OA 
BRANCH  20  22
HETATM   22  C   UNL     1     -10.803  17.279  65.175  1.00  0.00     0.058 C  
BRANCH  22  23
HETATM   23  C   UNL     1     -10.608  18.136  66.400  1.00  0.00    -0.288 A  
HETATM   24  C   UNL     1     -10.446  17.516  67.653  1.00  0.00    -0.370 A  
HETATM   25  C   UNL     1     -10.479  19.531  66.315  1.00  0.00    -0.609 A  
HETATM   26  C   UNL     1     -10.225  18.279  68.801  1.00  0.00    -0.342 A  
HETATM   27  C   UNL     1     -10.151  19.662  68.696  1.00  0.00    -0.447 A  
HETATM   28  C   UNL     1     -10.265  20.293  67.465  1.00  0.00    -0.486 A  
HETATM   29  F   UNL     1      -9.957  20.397  69.799  1.00  0.00    -0.157 F  
ENDBRANCH  22  23
ENDBRANCH  20  22
ENDBRANCH   7  18
BRANCH  12  30
HETATM   30  C   UNL     1     -10.249   9.303  69.909  1.00  0.00    -0.214 A  
HETATM   31  N   UNL     1      -9.265   8.746  70.593  1.00  0.00    -0.179 NA 
HETATM   32  C   UNL     1     -11.099   7.667  70.974  1.00  0.00    -0.257 A  
HETATM   33  N   UNL     1      -9.820   7.686  71.282  1.00  0.00    -0.172 NA 
HETATM   34  C   UNL     1     -12.154   6.730  71.407  1.00  0.00    -0.415 C  
HETATM   35  O   UNL     1     -11.454   8.671  70.108  1.00  0.00    -0.158 OA 
ENDBRANCH  12  30
TORSDOF 4
ENDMDL
MODEL       12
REMARK 921   NORMALIZED FREE ENERGY PREDICTED BY IDOCK:   -7.23 KCAL/MOL
REMARK 922        TOTAL FREE ENERGY PREDICTED BY IDOCK:   -9.74 KCAL/MOL
REMARK 923 INTER-LIGAND FREE ENERGY PREDICTED BY IDOCK:   -8.86 KCAL/MOL
REMARK 924 INTRA-LIGAND FREE ENERGY PREDICTED BY IDOCK:   -0.88 KCAL/MOL
REMARK 927      BINDING AFFINITY PREDICTED BY RF-SCORE:    0.00 PKD
ROOT
HETATM    1  C   UNL     1     -12.898  13.908  65.214  1.00  0.00    -0.398 C  
HETATM    2  N   UNL     1     -11.761  13.012  65.050  1.00  0.00    -0.323 N  
HETATM    3  C   UNL     1     -11.811  12.240  63.907  1.00  0.00    -0.464 C  
HETATM    4  O   UNL     1     -12.730  12.231  63.086  1.00  0.00    -0.625 OA 
HETATM    5  C   UNL     1     -10.678  11.344  63.642  1.00  0.00    -0.401 C  
HETATM    6  O   UNL     1     -10.726  10.626  62.461  1.00  0.00    -0.536 OA 
HETATM    7  C   UNL     1      -9.709  11.291  64.565  1.00  0.00    -0.253 C  
HETATM    8  N   UNL     1      -9.728  12.031  65.739  1.00  0.00    -0.242 NA 
HETATM    9  H   UNL     1     -11.682  15.581  67.493  1.00  0.00     0.000 HD 
HETATM   10  H   UNL     1      -9.993  10.046  62.290  1.00  0.00     0.000 HD 
HETATM   11  C   UNL     1     -10.716  12.862  65.954  1.00  0.00    -0.271 C  
HETATM   12  C   UNL     1      -9.817  15.952  66.688  1.00  0.00    -0.254 C  
HETATM   13  C   UNL     1     -11.947  13.218  68.199  1.00  0.00    -0.340 C  
HETATM   14  C   UNL     1      -9.496  13.284  68.192  1.00  0.00    -0.222 C  
HETATM   15  C   UNL     1     -10.735  13.661  67.345  1.00  0.00    -0.267 C  
HETATM   16  O   UNL     1      -8.821  15.496  66.134  1.00  0.00    -0.320 OA 
HETATM   17  N   UNL     1     -10.816  15.130  67.196  1.00  0.00    -0.315 N  
ENDROOT
BRANCH   7  18
HETATM   18  C   UNL     1      -8.534  10.370  64.250  1.00  0.00    -0.158 C  
HETATM   19  H   UNL     1      -8.959   9.181  65.917  1.00  0.00     0.000 HD 
HETATM   20  N   UNL     1      -8.359   9.300  65.100  1.00  0.00    -0.140 N  
HETATM   21  O   UNL     1      -7.776  10.529  63.296  1.00  0.00    -0.123 OA 
BRANCH  20  22
HETATM   22  C   UNL     1      -7.305   8.345  64.812  1.00  0.00    -0.088 C  
BRANCH  22  23
HETATM   23  C   UNL     1      -7.769   6.920  64.652  1.00  0.00    -0.116 A  
HETATM   24  C   UNL     1      -8.242   6.220  65.778  1.00  0.00    -0.136 A  
HETATM   25  C   UNL     1      -7.843   6.303  63.393  1.00  0.00    -0.110 A  
HETATM   26  C   UNL     1      -8.716   4.913  65.656  1.00  0.00    -0.135 A  
HETATM   27  C   UNL     1      -8.731   4.308  64.406  1.00  0.00    -0.139 A  
HETATM   28  C   UNL     1      -8.310   4.993  63.274  1.00  0.00    -0.119 A  
HETATM   29  F   UNL     1      -9.169   3.047  64.289  1.00  0.00    -0.107 F  
ENDBRANCH  22  23
ENDBRANCH  20  22
ENDBRANCH   7  18
BRANCH  12  30
HETATM   30  C   UNL     1     -10.075  17.374  66.878  1.00  0.00    -0.314 A  
HETATM   31  N   UNL     1     -10.385  18.234  65.924  1.00  0.00    -0.596 NA 
HETATM   32  C   UNL     1     -10.287  19.272  67.818  1.00  0.00    -0.429 A  
HETATM   33  N   UNL     1     -10.521  19.464  66.538  1.00  0.00    -0.445 NA 
HETATM   34  C   UNL     1     -10.273  20.248  68.926  1.00  0.00    -0.169 C  
HETATM   35  O   UNL     1     -10.002  17.963  68.118  1.00  0.00    -0.311 OA 
ENDBRANCH  12  30
TORSDOF 4
ENDMDL
MODEL       13
REMARK 921   NORMALIZED FREE ENERGY PREDICTED BY IDOCK:   -7.23 KCAL/MOL
REMARK 922        TOTAL FREE ENERGY PREDICTED BY IDOCK:   -9.74 KCAL/MOL
REMARK 923 INTER-LIGAND FREE ENERGY PREDICTED BY IDOCK:   -8.84 KCAL/MOL
REMARK 924 INTRA-LIGAND FREE ENERGY PREDICTED BY IDOCK:   -0.90 KCAL/MOL
REMARK 927      BINDING AFFINITY PREDICTED BY RF-SCORE:    0.00 PKD
ROOT
HETATM    1  C   UNL     1      -8.568   8.851  65.345  1.00  0.00    -0.176 C  
HETATM    2  N   UNL     1      -9.127  10.196  65.353  1.00  0.00    -0.174 N  
HETATM    3  C   UNL     1      -9.595  10.621  64.127  1.00  0.00    -0.300 C  
HETATM    4  O   UNL     1      -9.530   9.984  63.074  1.00  0.00    -0.297 OA 
HETATM    5  C   UNL     1     -10.219  11.948  64.060  1.00  0.00    -0.361 C  
HETATM    6  O   UNL     1     -10.732  12.325  62.831  1.00  0.00    -0.547 OA 
HETATM    7  C   UNL     1     -10.228  12.679  65.182  1.00  0.00    -0.280 C  
HETATM    8  N   UNL     1      -9.683  12.246  66.383  1.00  0.00    -0.230 NA 
HETATM    9  H   UNL     1      -8.421   8.528  68.401  1.00  0.00     0.000 HD 
HETATM   10  H   UNL     1     -11.135  13.184  62.788  1.00  0.00     0.000 HD 
HETATM   11  C   UNL     1      -9.166  11.046  66.453  1.00  0.00    -0.175 C  
HETATM   12  C   UNL     1     -10.320   9.161  68.905  1.00  0.00    -0.214 C  
HETATM   13  C   UNL     1      -6.972  10.399  67.658  1.00  0.00    -0.083 C  
HETATM   14  C   UNL     1      -8.625  11.732  68.884  1.00  0.00     0.110 C  
HETATM   15  C   UNL     1      -8.496  10.597  67.840  1.00  0.00    -0.120 C  
HETATM   16  O   UNL     1     -11.196  10.011  68.770  1.00  0.00    -0.205 OA 
HETATM   17  N   UNL     1      -9.041   9.338  68.394  1.00  0.00    -0.129 N  
ENDROOT
BRANCH   7  18
HETATM   18  C   UNL     1     -10.905  14.044  65.087  1.00  0.00    -0.369 C  
HETATM   19  H   UNL     1      -9.148  15.009  65.683  1.00  0.00     0.000 HD 
HETATM   20  N   UNL     1     -10.113  15.134  65.375  1.00  0.00    -0.352 N  
HETATM   21  O   UNL     1     -12.079  14.204  64.762  1.00  0.00    -0.397 OA 
BRANCH  20  22
HETATM   22  C   UNL     1     -10.676  16.463  65.231  1.00  0.00    -0.295 C  
BRANCH  22  23
HETATM   23  C   UNL     1     -10.409  17.391  66.389  1.00  0.00    -0.317 A  
HETATM   24  C   UNL     1     -10.561  18.778  66.207  1.00  0.00    -0.429 A  
HETATM   25  C   UNL     1     -10.116  16.906  67.674  1.00  0.00    -0.278 A  
HETATM   26  C   UNL     1     -10.359  19.662  67.269  1.00  0.00    -0.577 A  
HETATM   27  C   UNL     1     -10.020  19.158  68.519  1.00  0.00    -0.425 A  
HETATM   28  C   UNL     1      -9.907  17.791  68.733  1.00  0.00    -0.343 A  
HETATM   29  F   UNL     1      -9.808  20.005  69.535  1.00  0.00    -0.377 F  
ENDBRANCH  22  23
ENDBRANCH  20  22
ENDBRANCH   7  18
BRANCH  12  30
HETATM   30  C   UNL     1     -10.505   7.892  69.596  1.00  0.00    -0.226 A  
HETATM   31  N   UNL     1     -10.071   6.716  69.177  1.00  0.00    -0.163 NA 
HETATM   32  C   UNL     1     -11.132   6.462  71.043  1.00  0.00    -0.294 A  
HETATM   33  N   UNL     1     -10.479   5.792  70.118  1.00  0.00    -0.253 NA 
HETATM   34  C   UNL     1     -11.802   5.968  72.262  1.00  0.00    -0.305 C  
HETATM   35  O   UNL     1     -11.185   7.810  70.788  1.00  0.00    -0.265 OA 
ENDBRANCH  12  30
TORSDOF 4
ENDMDL
MODEL       14
REMARK 921   NORMALIZED FREE ENERGY PREDICTED BY IDOCK:   -7.20 KCAL/MOL
REMARK 922        TOTAL FREE ENERGY PREDICTED BY IDOCK:   -9.70 KCAL/MOL
REMARK 923 INTER-LIGAND FREE ENERGY PREDICTED BY IDOCK:   -8.85 KCAL/MOL
REMARK 924 INTRA-LIGAND FREE ENERGY PREDICTED BY IDOCK:   -0.85 KCAL/MOL
REMARK 927      BINDING AFFINITY PREDICTED BY RF-SCORE:    0.00 PKD
ROOT
HETATM    1  C   UNL     1     -12.529  14.942  64.946  1.00  0.00    -0.098 C  
HETATM    2  N   UNL     1     -11.635  13.797  65.048  1.00  0.00    -0.329 N  
HETATM    3  C   UNL     1     -11.762  12.886  64.020  1.00  0.00    -0.434 C  
HETATM    4  O   UNL     1     -12.575  12.956  63.096  1.00  0.00    -0.636 OA 
HETATM    5  C   UNL     1     -10.860  11.727  64.023  1.00  0.00    -0.385 C  
HETATM    6  O   UNL     1     -10.971  10.861  62.950  1.00  0.00    -0.734 OA 
HETATM    7  C   UNL     1     -10.025  11.603  65.062  1.00  0.00    -0.259 C  
HETATM    8  N   UNL     1      -9.974  12.504  66.116  1.00  0.00    -0.251 NA 
HETATM    9  H   UNL     1     -11.164  16.635  67.122  1.00  0.00     0.000 HD 
HETATM   10  H   UNL     1     -10.387  10.111  62.952  1.00  0.00     0.000 HD 
HETATM   11  C   UNL     1     -10.747  13.560  66.091  1.00  0.00    -0.289 C  
HETATM   12  C   UNL     1      -9.198  16.442  66.523  1.00  0.00    -0.277 C  
HETATM   13  C   UNL     1     -12.060  14.535  68.093  1.00  0.00    -0.232 C  
HETATM   14  C   UNL     1      -9.676  14.044  68.392  1.00  0.00    -0.223 C  
HETATM   15  C   UNL     1     -10.702  14.552  67.351  1.00  0.00    -0.282 C  
HETATM   16  O   UNL     1      -8.295  15.691  66.166  1.00  0.00    -0.196 OA 
HETATM   17  N   UNL     1     -10.409  15.959  67.001  1.00  0.00    -0.292 N  
ENDROOT
BRANCH   7  18
HETATM   18  C   UNL     1      -9.084  10.401  65.025  1.00  0.00    -0.203 C  
HETATM   19  H   UNL     1      -8.925  10.402  67.109  1.00  0.00     0.000 HD 
HETATM   20  N   UNL     1      -8.658   9.928  66.246  1.00  0.00    -0.127 N  
HETATM   21  O   UNL     1      -8.719   9.850  63.989  1.00  0.00    -0.176 OA 
BRANCH  20  22
HETATM   22  C   UNL     1      -7.822   8.743  66.282  1.00  0.00    -0.102 C  
BRANCH  22  23
HETATM   23  C   UNL     1      -8.460   7.539  66.927  1.00  0.00    -0.122 A  
HETATM   24  C   UNL     1      -7.679   6.705  67.749  1.00  0.00    -0.107 A  
HETATM   25  C   UNL     1      -9.835   7.282  66.816  1.00  0.00    -0.281 A  
HETATM   26  C   UNL     1      -8.249   5.605  68.392  1.00  0.00    -0.103 A  
HETATM   27  C   UNL     1      -9.603   5.344  68.225  1.00  0.00    -0.125 A  
HETATM   28  C   UNL     1     -10.402   6.177  67.454  1.00  0.00    -0.262 A  
HETATM   29  F   UNL     1     -10.148   4.278  68.827  1.00  0.00    -0.202 F  
ENDBRANCH  22  23
ENDBRANCH  20  22
ENDBRANCH   7  18
BRANCH  12  30
HETATM   30  C   UNL     1      -9.119  17.898  66.490  1.00  0.00    -0.261 A  
HETATM   31  N   UNL     1     -10.037  18.707  65.992  1.00  0.00    -0.540 NA 
HETATM   32  C   UNL     1      -8.375  19.878  66.726  1.00  0.00    -0.322 A  
HETATM   33  N   UNL     1      -9.551  19.990  66.147  1.00  0.00    -0.404 NA 
HETATM   34  C   UNL     1      -7.410  20.930  67.100  1.00  0.00    -0.369 C  
HETATM   35  O   UNL     1      -8.030  18.575  66.985  1.00  0.00    -0.227 OA 
ENDBRANCH  12  30
TORSDOF 4
ENDMDL
MODEL       15
REMARK 921   NORMALIZED FREE ENERGY PREDICTED BY IDOCK:   -7.01 KCAL/MOL
REMARK 922        TOTAL FREE ENERGY PREDICTED BY IDOCK:   -9.47 KCAL/MOL
REMARK 923 INTER-LIGAND FREE ENERGY PREDICTED BY IDOCK:   -8.53 KCAL/MOL
REMARK 924 INTRA-LIGAND FREE ENERGY PREDICTED BY IDOCK:   -0.94 KCAL/MOL
REMARK 927      BINDING AFFINITY PREDICTED BY RF-SCORE:    0.00 PKD
ROOT
HETATM    1  C   UNL     1      -7.975   8.670  63.800  1.00  0.00    -0.160 C  
HETATM    2  N   UNL     1      -8.834   9.651  64.449  1.00  0.00    -0.217 N  
HETATM    3  C   UNL     1      -9.403  10.564  63.585  1.00  0.00    -0.289 C  
HETATM    4  O   UNL     1      -9.201  10.624  62.370  1.00  0.00    -0.259 OA 
HETATM    5  C   UNL     1     -10.322  11.558  64.154  1.00  0.00    -0.334 C  
HETATM    6  O   UNL     1     -10.922  12.424  63.257  1.00  0.00    -0.593 OA 
HETATM    7  C   UNL     1     -10.488  11.548  65.483  1.00  0.00    -0.275 C  
HETATM    8  N   UNL     1      -9.843  10.658  66.330  1.00  0.00    -0.203 NA 
HETATM    9  H   UNL     1      -7.721   6.789  66.221  1.00  0.00     0.000 HD 
HETATM   10  H   UNL     1     -11.517  13.067  63.626  1.00  0.00     0.000 HD 
HETATM   11  C   UNL     1      -9.058   9.745  65.818  1.00  0.00    -0.177 C  
HETATM   12  C   UNL     1      -9.710   6.648  66.756  1.00  0.00    -0.169 C  
HETATM   13  C   UNL     1      -6.760   9.014  66.749  1.00  0.00    -0.076 C  
HETATM   14  C   UNL     1      -8.666   9.105  68.290  1.00  0.00    -0.129 C  
HETATM   15  C   UNL     1      -8.287   8.767  66.829  1.00  0.00    -0.108 C  
HETATM   16  O   UNL     1     -10.762   7.237  66.987  1.00  0.00    -0.332 OA 
HETATM   17  N   UNL     1      -8.514   7.329  66.569  1.00  0.00    -0.119 N  
ENDROOT
BRANCH   7  18
HETATM   18  C   UNL     1     -11.468  12.577  66.042  1.00  0.00    -0.377 C  
HETATM   19  H   UNL     1      -9.975  13.416  67.241  1.00  0.00     0.000 HD 
HETATM   20  N   UNL     1     -10.948  13.482  66.941  1.00  0.00    -0.286 N  
HETATM   21  O   UNL     1     -12.653  12.638  65.723  1.00  0.00    -0.575 OA 
BRANCH  20  22
HETATM   22  C   UNL     1     -11.810  14.531  67.453  1.00  0.00    -0.388 C  
BRANCH  22  23
HETATM   23  C   UNL     1     -11.985  14.531  68.950  1.00  0.00    -0.326 A  
HETATM   24  C   UNL     1     -12.002  15.757  69.640  1.00  0.00    -0.332 A  
HETATM   25  C   UNL     1     -12.238  13.349  69.665  1.00  0.00    -0.279 A  
HETATM   26  C   UNL     1     -12.201  15.793  71.022  1.00  0.00    -0.466 A  
HETATM   27  C   UNL     1     -12.399  14.605  71.713  1.00  0.00    -0.346 A  
HETATM   28  C   UNL     1     -12.430  13.387  71.047  1.00  0.00    -0.437 A  
HETATM   29  F   UNL     1     -12.573  14.636  73.041  1.00  0.00    -0.419 F  
ENDBRANCH  22  23
ENDBRANCH  20  22
ENDBRANCH   7  18
BRANCH  12  30
HETATM   30  C   UNL     1      -9.583   5.200  66.649  1.00  0.00    -0.154 A  
HETATM   31  N   UNL     1      -9.735   4.338  67.639  1.00  0.00    -0.160 NA 
HETATM   32  C   UNL     1      -9.236   3.267  65.829  1.00  0.00    -0.149 A  
HETATM   33  N   UNL     1      -9.509   3.086  67.104  1.00  0.00    -0.143 NA 
HETATM   34  C   UNL     1      -8.892   2.273  64.794  1.00  0.00    -0.118 C  
HETATM   35  O   UNL     1      -9.271   4.588  65.459  1.00  0.00    -0.137 OA 
ENDBRANCH  12  30
TORSDOF 4
ENDMDL
MODEL       16
REMARK 921   NORMALIZED FREE ENERGY PREDICTED BY IDOCK:   -7.00 KCAL/MOL
REMARK 922        TOTAL FREE ENERGY PREDICTED BY IDOCK:   -9.45 KCAL/MOL
REMARK 923 INTER-LIGAND FREE ENERGY PREDICTED BY IDOCK:   -8.63 KCAL/MOL
REMARK 924 INTRA-LIGAND FREE ENERGY PREDICTED BY IDOCK:   -0.82 KCAL/MOL
REMARK 927      BINDING AFFINITY PREDICTED BY RF-SCORE:    0.00 PKD
ROOT
HETATM    1  C   UNL     1      -7.444  12.453  67.169  1.00  0.00    -0.095 C  
HETATM    2  N   UNL     1      -8.385  11.657  67.946  1.00  0.00    -0.136 N  
HETATM    3  C   UNL     1      -7.805  10.932  68.966  1.00  0.00    -0.138 C  
HETATM    4  O   UNL     1      -6.599  10.884  69.216  1.00  0.00    -0.060 OA 
HETATM    5  C   UNL     1      -8.692  10.140  69.827  1.00  0.00    -0.126 C  
HETATM    6  O   UNL     1      -8.090   9.469  70.877  1.00  0.00    -0.297 OA 
HETATM    7  C   UNL     1      -9.995  10.126  69.518  1.00  0.00    -0.235 C  
HETATM    8  N   UNL     1     -10.534  10.813  68.439  1.00  0.00    -0.173 NA 
HETATM    9  H   UNL     1      -9.559  14.121  65.683  1.00  0.00     0.000 HD 
HETATM   10  H   UNL     1      -8.665   8.957  71.435  1.00  0.00     0.000 HD 
HETATM   11  C   UNL     1      -9.749  11.554  67.698  1.00  0.00    -0.174 C  
HETATM   12  C   UNL     1     -10.746  14.672  67.279  1.00  0.00    -0.290 C  
HETATM   13  C   UNL     1      -9.799  11.718  65.118  1.00  0.00    -0.263 C  
HETATM   14  C   UNL     1     -11.907  11.979  66.343  1.00  0.00    -0.232 C  
HETATM   15  C   UNL     1     -10.394  12.291  66.428  1.00  0.00    -0.225 C  
HETATM   16  O   UNL     1     -11.348  14.320  68.290  1.00  0.00    -0.262 OA 
HETATM   17  N   UNL     1     -10.179  13.754  66.405  1.00  0.00    -0.285 N  
ENDROOT
BRANCH   7  18
HETATM   18  C   UNL     1     -10.895   9.314  70.446  1.00  0.00    -0.254 C  
HETATM   19  H   UNL     1     -10.933   7.722  69.092  1.00  0.00     0.000 HD 
HETATM   20  N   UNL     1     -11.233   8.053  70.009  1.00  0.00    -0.158 N  
HETATM   21  O   UNL     1     -11.301   9.720  71.532  1.00  0.00    -0.367 OA 
BRANCH  20  22
HETATM   22  C   UNL     1     -12.025   7.203  70.878  1.00  0.00    -0.334 C  
BRANCH  22  23
HETATM   23  C   UNL     1     -11.305   5.984  71.398  1.00  0.00    -0.301 A  
HETATM   24  C   UNL     1     -10.450   5.272  70.537  1.00  0.00    -0.312 A  
HETATM   25  C   UNL     1     -11.380   5.600  72.746  1.00  0.00    -0.350 A  
HETATM   26  C   UNL     1      -9.739   4.162  70.998  1.00  0.00    -0.260 A  
HETATM   27  C   UNL     1      -9.870   3.772  72.325  1.00  0.00    -0.163 A  
HETATM   28  C   UNL     1     -10.674   4.486  73.204  1.00  0.00    -0.308 A  
HETATM   29  F   UNL     1      -9.203   2.698  72.765  1.00  0.00    -0.089 F  
ENDBRANCH  22  23
ENDBRANCH  20  22
ENDBRANCH   7  18
BRANCH  12  30
HETATM   30  C   UNL     1     -10.551  16.060  66.880  1.00  0.00    -0.300 A  
HETATM   31  N   UNL     1     -10.176  16.471  65.681  1.00  0.00    -0.535 NA 
HETATM   32  C   UNL     1     -10.426  18.183  66.977  1.00  0.00    -0.370 A  
HETATM   33  N   UNL     1     -10.097  17.848  65.748  1.00  0.00    -0.582 NA 
HETATM   34  C   UNL     1     -10.483  19.519  67.602  1.00  0.00    -0.593 C  
HETATM   35  O   UNL     1     -10.737  17.100  67.760  1.00  0.00    -0.361 OA 
ENDBRANCH  12  30
TORSDOF 4
ENDMDL
MODEL       17
REMARK 921   NORMALIZED FREE ENERGY PREDICTED BY IDOCK:   -6.94 KCAL/MOL
REMARK 922        TOTAL FREE ENERGY PREDICTED BY IDOCK:   -9.38 KCAL/MOL
REMARK 923 INTER-LIGAND FREE ENERGY PREDICTED BY IDOCK:   -8.57 KCAL/MOL
REMARK 924 INTRA-LIGAND FREE ENERGY PREDICTED BY IDOCK:   -0.81 KCAL/MOL
REMARK 927      BINDING AFFINITY PREDICTED BY RF-SCORE:    0.00 PKD
ROOT
HETATM    1  C   UNL     1     -11.101  13.536  64.219  1.00  0.00    -0.351 C  
HETATM    2  N   UNL     1     -10.563  12.477  65.063  1.00  0.00    -0.291 N  
HETATM    3  C   UNL     1     -10.199  11.337  64.377  1.00  0.00    -0.320 C  
HETATM    4  O   UNL     1     -10.336  11.154  63.166  1.00  0.00    -0.343 OA 
HETATM    5  C   UNL     1      -9.602  10.240  65.149  1.00  0.00    -0.277 C  
HETATM    6  O   UNL     1      -9.193   9.133  64.427  1.00  0.00    -0.436 OA 
HETATM    7  C   UNL     1      -9.517  10.400  66.476  1.00  0.00    -0.167 C  
HETATM    8  N   UNL     1      -9.960  11.534  67.141  1.00  0.00    -0.197 NA 
HETATM    9  H   UNL     1     -11.004  15.751  66.353  1.00  0.00     0.000 HD 
HETATM   10  H   UNL     1      -8.806   8.423  64.927  1.00  0.00     0.000 HD 
HETATM   11  C   UNL     1     -10.452  12.529  66.448  1.00  0.00    -0.247 C  
HETATM   12  C   UNL     1      -9.082  15.471  67.050  1.00  0.00    -0.230 C  
HETATM   13  C   UNL     1     -12.535  13.932  67.061  1.00  0.00    -0.142 C  
HETATM   14  C   UNL     1     -10.812  13.596  68.773  1.00  0.00    -0.279 C  
HETATM   15  C   UNL     1     -11.004  13.803  67.252  1.00  0.00    -0.292 C  
HETATM   16  O   UNL     1      -8.232  14.681  67.450  1.00  0.00    -0.174 OA 
HETATM   17  N   UNL     1     -10.399  15.087  66.838  1.00  0.00    -0.262 N  
ENDROOT
BRANCH   7  18
HETATM   18  C   UNL     1      -8.870   9.253  67.248  1.00  0.00    -0.124 C  
HETATM   19  H   UNL     1      -8.571  10.481  68.913  1.00  0.00     0.000 HD 
HETATM   20  N   UNL     1      -8.475   9.538  68.537  1.00  0.00    -0.118 N  
HETATM   21  O   UNL     1      -8.708   8.124  66.790  1.00  0.00    -0.126 OA 
BRANCH  20  22
HETATM   22  C   UNL     1      -7.922   8.471  69.349  1.00  0.00    -0.107 C  
BRANCH  22  23
HETATM   23  C   UNL     1      -8.746   8.103  70.557  1.00  0.00    -0.135 A  
HETATM   24  C   UNL     1      -8.209   8.303  71.842  1.00  0.00    -0.195 A  
HETATM   25  C   UNL     1     -10.074   7.664  70.440  1.00  0.00    -0.190 A  
HETATM   26  C   UNL     1      -8.961   8.009  72.981  1.00  0.00    -0.313 A  
HETATM   27  C   UNL     1     -10.256   7.528  72.837  1.00  0.00    -0.278 A  
HETATM   28  C   UNL     1     -10.822   7.363  71.580  1.00  0.00    -0.247 A  
HETATM   29  F   UNL     1     -10.973   7.228  73.928  1.00  0.00    -0.369 F  
ENDBRANCH  22  23
ENDBRANCH  20  22
ENDBRANCH   7  18
BRANCH  12  30
HETATM   30  C   UNL     1      -8.824  16.875  66.752  1.00  0.00    -0.235 A  
HETATM   31  N   UNL     1      -7.810  17.338  66.043  1.00  0.00    -0.500 NA 
HETATM   32  C   UNL     1      -9.020  18.994  66.726  1.00  0.00    -0.313 A  
HETATM   33  N   UNL     1      -7.941  18.712  66.027  1.00  0.00    -0.472 NA 
HETATM   34  C   UNL     1      -9.610  20.307  67.051  1.00  0.00    -0.572 C  
HETATM   35  O   UNL     1      -9.646  17.875  67.216  1.00  0.00    -0.264 OA 
ENDBRANCH  12  30
TORSDOF 4
ENDMDL
MODEL       18
REMARK 921   NORMALIZED FREE ENERGY PREDICTED BY IDOCK:   -6.90 KCAL/MOL
REMARK 922        TOTAL FREE ENERGY PREDICTED BY IDOCK:   -9.33 KCAL/MOL
REMARK 923 INTER-LIGAND FREE ENERGY PREDICTED BY IDOCK:   -8.42 KCAL/MOL
REMARK 924 INTRA-LIGAND FREE ENERGY PREDICTED BY IDOCK:   -0.91 KCAL/MOL
REMARK 927      BINDING AFFINITY PREDICTED BY RF-SCORE:    0.00 PKD
ROOT
HETATM    1  C   UNL     1      -9.146   9.495  64.720  1.00  0.00    -0.218 C  
HETATM    2  N   UNL     1      -9.583  10.730  65.356  1.00  0.00    -0.208 N  
HETATM    3  C   UNL     1     -10.435  11.493  64.584  1.00  0.00    -0.301 C  
HETATM    4  O   UNL     1     -10.791  11.229  63.434  1.00  0.00    -0.369 OA 
HETATM    5  C   UNL     1     -10.961  12.731  65.173  1.00  0.00    -0.293 C  
HETATM    6  O   UNL     1     -11.858  13.446  64.399  1.00  0.00    -0.372 OA 
HETATM    7  C   UNL     1     -10.521  13.065  66.393  1.00  0.00    -0.276 C  
HETATM    8  N   UNL     1      -9.608  12.307  67.112  1.00  0.00    -0.196 NA 
HETATM    9  H   UNL     1      -7.929   8.226  67.245  1.00  0.00     0.000 HD 
HETATM   10  H   UNL     1     -12.198  14.247  64.780  1.00  0.00     0.000 HD 
HETATM   11  C   UNL     1      -9.173  11.181  66.606  1.00  0.00    -0.175 C  
HETATM   12  C   UNL     1      -9.478   8.547  68.571  1.00  0.00    -0.142 C  
HETATM   13  C   UNL     1      -6.736  10.323  66.668  1.00  0.00    -0.082 C  
HETATM   14  C   UNL     1      -7.754  11.091  68.762  1.00  0.00    -0.135 C  
HETATM   15  C   UNL     1      -8.078  10.358  67.439  1.00  0.00    -0.107 C  
HETATM   16  O   UNL     1     -10.291   9.339  69.038  1.00  0.00    -0.203 OA 
HETATM   17  N   UNL     1      -8.460   8.957  67.719  1.00  0.00    -0.124 N  
ENDROOT
BRANCH   7  18
HETATM   18  C   UNL     1     -11.104  14.344  66.988  1.00  0.00    -0.313 C  
HETATM   19  H   UNL     1     -11.884  13.287  68.614  1.00  0.00     0.000 HD 
HETATM   20  N   UNL     1     -11.761  14.207  68.191  1.00  0.00    -0.336 N  
HETATM   21  O   UNL     1     -11.002  15.451  66.465  1.00  0.00    -0.315 OA 
BRANCH  20  22
HETATM   22  C   UNL     1     -12.273  15.397  68.846  1.00  0.00    -0.086 C  
BRANCH  22  23
HETATM   23  C   UNL     1     -12.378  15.297  70.346  1.00  0.00    -0.422 A  
HETATM   24  C   UNL     1     -12.985  14.163  70.919  1.00  0.00    -0.374 A  
HETATM   25  C   UNL     1     -11.795  16.252  71.194  1.00  0.00    -0.298 A  
HETATM   26  C   UNL     1     -13.063  14.022  72.305  1.00  0.00    -0.516 A  
HETATM   27  C   UNL     1     -12.522  15.007  73.122  1.00  0.00    -0.435 A  
HETATM   28  C   UNL     1     -11.881  16.113  72.580  1.00  0.00    -0.609 A  
HETATM   29  F   UNL     1     -12.612  14.882  74.453  1.00  0.00    -0.582 F  
ENDBRANCH  22  23
ENDBRANCH  20  22
ENDBRANCH   7  18
BRANCH  12  30
HETATM   30  C   UNL     1      -9.477   7.115  68.840  1.00  0.00    -0.142 A  
HETATM   31  N   UNL     1      -9.090   6.173  67.997  1.00  0.00    -0.116 NA 
HETATM   32  C   UNL     1      -9.756   5.255  69.837  1.00  0.00    -0.193 A  
HETATM   33  N   UNL     1      -9.272   4.969  68.647  1.00  0.00    -0.117 NA 
HETATM   34  C   UNL     1     -10.157   4.347  70.929  1.00  0.00    -0.199 C  
HETATM   35  O   UNL     1      -9.909   6.604  70.041  1.00  0.00    -0.165 OA 
ENDBRANCH  12  30
TORSDOF 4
ENDMDL
MODEL       19
REMARK 921   NORMALIZED FREE ENERGY PREDICTED BY IDOCK:   -6.88 KCAL/MOL
REMARK 922        TOTAL FREE ENERGY PREDICTED BY IDOCK:   -9.30 KCAL/MOL
REMARK 923 INTER-LIGAND FREE ENERGY PREDICTED BY IDOCK:   -8.53 KCAL/MOL
REMARK 924 INTRA-LIGAND FREE ENERGY PREDICTED BY IDOCK:   -0.77 KCAL/MOL
REMARK 927      BINDING AFFINITY PREDICTED BY RF-SCORE:    0.00 PKD
ROOT
HETATM    1  C   UNL     1     -12.143   7.223  72.446  1.00  0.00    -0.117 C  
HETATM    2  N   UNL     1     -12.048   8.522  71.795  1.00  0.00    -0.311 N  
HETATM    3  C   UNL     1     -12.993   9.436  72.214  1.00  0.00    -0.400 C  
HETATM    4  O   UNL     1     -13.892   9.215  73.027  1.00  0.00    -0.307 OA 
HETATM    5  C   UNL     1     -12.934  10.786  71.641  1.00  0.00    -0.476 C  
HETATM    6  O   UNL     1     -13.857  11.698  72.122  1.00  0.00    -0.264 OA 
HETATM    7  C   UNL     1     -12.008  11.014  70.701  1.00  0.00    -0.365 C  
HETATM    8  N   UNL     1     -11.117  10.048  70.253  1.00  0.00    -0.295 NA 
HETATM    9  H   UNL     1      -9.432   6.151  71.462  1.00  0.00     0.000 HD 
HETATM   10  H   UNL     1     -13.819  12.572  71.751  1.00  0.00     0.000 HD 
HETATM   11  C   UNL     1     -11.141   8.858  70.795  1.00  0.00    -0.261 C  
HETATM   12  C   UNL     1      -8.236   7.770  71.922  1.00  0.00    -0.109 C  
HETATM   13  C   UNL     1     -10.932   6.607  69.540  1.00  0.00    -0.367 C  
HETATM   14  C   UNL     1      -9.273   8.354  69.083  1.00  0.00    -0.150 C  
HETATM   15  C   UNL     1     -10.136   7.750  70.216  1.00  0.00    -0.195 C  
HETATM   16  O   UNL     1      -8.076   8.986  71.866  1.00  0.00    -0.359 OA 
HETATM   17  N   UNL     1      -9.264   7.133  71.238  1.00  0.00    -0.151 N  
ENDROOT
BRANCH   7  18
HETATM   18  C   UNL     1     -11.956  12.434  70.142  1.00  0.00    -0.298 C  
HETATM   19  H   UNL     1     -10.691  11.827  68.592  1.00  0.00     0.000 HD 
HETATM   20  N   UNL     1     -11.212  12.606  68.996  1.00  0.00    -0.268 N  
HETATM   21  O   UNL     1     -12.541  13.389  70.646  1.00  0.00    -0.311 OA 
BRANCH  20  22
HETATM   22  C   UNL     1     -11.183  13.916  68.373  1.00  0.00    -0.264 C  
BRANCH  22  23
HETATM   23  C   UNL     1     -11.446  13.916  66.888  1.00  0.00    -0.370 A  
HETATM   24  C   UNL     1     -12.118  12.824  66.310  1.00  0.00    -0.400 A  
HETATM   25  C   UNL     1     -11.132  15.021  66.082  1.00  0.00    -0.329 A  
HETATM   26  C   UNL     1     -12.411  12.811  64.945  1.00  0.00    -0.563 A  
HETATM   27  C   UNL     1     -12.045  13.896  64.159  1.00  0.00    -0.425 A  
HETATM   28  C   UNL     1     -11.420  15.004  64.716  1.00  0.00    -0.403 A  
HETATM   29  F   UNL     1     -12.309  13.878  62.846  1.00  0.00    -0.363 F  
ENDBRANCH  22  23
ENDBRANCH  20  22
ENDBRANCH   7  18
BRANCH  12  30
HETATM   30  C   UNL     1      -7.394   6.864  72.692  1.00  0.00    -0.082 A  
HETATM   31  N   UNL     1      -6.194   7.145  73.168  1.00  0.00    -0.057 NA 
HETATM   32  C   UNL     1      -6.707   5.109  73.682  1.00  0.00    -0.077 A  
HETATM   33  N   UNL     1      -5.752   6.005  73.810  1.00  0.00    -0.051 NA 
HETATM   34  C   UNL     1      -6.751   3.711  74.155  1.00  0.00    -0.044 C  
HETATM   35  O   UNL     1      -7.792   5.582  72.988  1.00  0.00    -0.097 OA 
ENDBRANCH  12  30
TORSDOF 4
ENDMDL
MODEL       20
REMARK 921   NORMALIZED FREE ENERGY PREDICTED BY IDOCK:   -6.84 KCAL/MOL
REMARK 922        TOTAL FREE ENERGY PREDICTED BY IDOCK:   -9.25 KCAL/MOL
REMARK 923 INTER-LIGAND FREE ENERGY PREDICTED BY IDOCK:   -8.40 KCAL/MOL
REMARK 924 INTRA-LIGAND FREE ENERGY PREDICTED BY IDOCK:   -0.85 KCAL/MOL
REMARK 927      BINDING AFFINITY PREDICTED BY RF-SCORE:    0.00 PKD
ROOT
HETATM    1  C   UNL     1      -7.151   8.383  66.999  1.00  0.00    -0.079 C  
HETATM    2  N   UNL     1      -8.161   9.400  67.260  1.00  0.00    -0.116 N  
HETATM    3  C   UNL     1      -8.384  10.260  66.204  1.00  0.00    -0.140 C  
HETATM    4  O   UNL     1      -7.780  10.249  65.130  1.00  0.00    -0.139 OA 
HETATM    5  C   UNL     1      -9.423  11.284  66.370  1.00  0.00    -0.200 C  
HETATM    6  O   UNL     1      -9.665  12.095  65.275  1.00  0.00    -0.353 OA 
HETATM    7  C   UNL     1     -10.033  11.352  67.560  1.00  0.00    -0.182 C  
HETATM    8  N   UNL     1      -9.732  10.514  68.624  1.00  0.00    -0.166 NA 
HETATM    9  H   UNL     1      -7.773   6.647  69.461  1.00  0.00     0.000 HD 
HETATM   10  H   UNL     1     -10.338  12.758  65.382  1.00  0.00     0.000 HD 
HETATM   11  C   UNL     1      -8.837   9.573  68.462  1.00  0.00    -0.124 C  
HETATM   12  C   UNL     1      -9.828   6.536  69.292  1.00  0.00    -0.148 C  
HETATM   13  C   UNL     1      -7.009   8.901  70.162  1.00  0.00    -0.043 C  
HETATM   14  C   UNL     1      -9.323   9.080  70.951  1.00  0.00    -0.326 C  
HETATM   15  C   UNL     1      -8.475   8.658  69.728  1.00  0.00    -0.129 C  
HETATM   16  O   UNL     1     -10.885   7.136  69.117  1.00  0.00    -0.216 OA 
HETATM   17  N   UNL     1      -8.627   7.206  69.487  1.00  0.00    -0.134 N  
ENDROOT
BRANCH   7  18
HETATM   18  C   UNL     1     -11.125  12.411  67.693  1.00  0.00    -0.259 C  
HETATM   19  H   UNL     1     -10.557  12.816  69.663  1.00  0.00     0.000 HD 
HETATM   20  N   UNL     1     -11.182  13.073  68.899  1.00  0.00    -0.266 N  
HETATM   21  O   UNL     1     -11.914  12.696  66.795  1.00  0.00    -0.466 OA 
BRANCH  20  22
HETATM   22  C   UNL     1     -12.150  14.142  69.064  1.00  0.00    -0.313 C  
BRANCH  22  23
HETATM   23  C   UNL     1     -12.350  14.600  70.486  1.00  0.00    -0.400 A  
HETATM   24  C   UNL     1     -13.053  13.773  71.382  1.00  0.00    -0.413 A  
HETATM   25  C   UNL     1     -11.766  15.780  70.972  1.00  0.00    -0.462 A  
HETATM   26  C   UNL     1     -13.222  14.150  72.715  1.00  0.00    -0.604 A  
HETATM   27  C   UNL     1     -12.676  15.348  73.159  1.00  0.00    -0.479 A  
HETATM   28  C   UNL     1     -11.942  16.159  72.304  1.00  0.00    -0.637 A  
HETATM   29  F   UNL     1     -12.853  15.721  74.433  1.00  0.00    -0.595 F  
ENDBRANCH  22  23
ENDBRANCH  20  22
ENDBRANCH   7  18
BRANCH  12  30
HETATM   30  C   UNL     1      -9.700   5.084  69.315  1.00  0.00    -0.179 A  
HETATM   31  N   UNL     1      -9.757   4.323  70.394  1.00  0.00    -0.199 NA 
HETATM   32  C   UNL     1      -9.410   3.080  68.659  1.00  0.00    -0.173 A  
HETATM   33  N   UNL     1      -9.569   3.024  69.964  1.00  0.00    -0.126 NA 
HETATM   34  C   UNL     1      -9.150   1.990  67.699  1.00  0.00    -0.199 C  
HETATM   35  O   UNL     1      -9.488   4.359  68.167  1.00  0.00    -0.138 OA 
ENDBRANCH  12  30
TORSDOF 4
ENDMDL
MODEL       21
REMARK 921   NORMALIZED FREE ENERGY PREDICTED BY IDOCK:   -6.83 KCAL/MOL
REMARK 922        TOTAL FREE ENERGY PREDICTED BY IDOCK:   -9.24 KCAL/MOL
REMARK 923 INTER-LIGAND FREE ENERGY PREDICTED BY IDOCK:   -8.35 KCAL/MOL
REMARK 924 INTRA-LIGAND FREE ENERGY PREDICTED BY IDOCK:   -0.89 KCAL/MOL
REMARK 927      BINDING AFFINITY PREDICTED BY RF-SCORE:    0.00 PKD
ROOT
HETATM    1  C   UNL     1     -12.143  12.444  68.749  1.00  0.00    -0.110 C  
HETATM    2  N   UNL     1     -11.620  13.793  68.578  1.00  0.00    -0.314 N  
HETATM    3  C   UNL     1     -11.794  14.610  69.676  1.00  0.00    -0.320 C  
HETATM    4  O   UNL     1     -12.374  14.298  70.718  1.00  0.00    -0.310 OA 
HETATM    5  C   UNL     1     -11.250  15.972  69.602  1.00  0.00    -0.336 C  
HETATM    6  O   UNL     1     -11.388  16.751  70.738  1.00  0.00    -0.484 OA 
HETATM    7  C   UNL     1     -10.684  16.345  68.447  1.00  0.00    -0.327 C  
HETATM    8  N   UNL     1     -10.590  15.517  67.338  1.00  0.00    -0.286 NA 
HETATM    9  H   UNL     1     -10.802  11.242  66.255  1.00  0.00     0.000 HD 
HETATM   10  H   UNL     1     -11.036  17.632  70.690  1.00  0.00     0.000 HD 
HETATM   11  C   UNL     1     -11.036  14.289  67.418  1.00  0.00    -0.295 C  
HETATM   12  C   UNL     1      -8.882  11.954  66.522  1.00  0.00    -0.178 C  
HETATM   13  C   UNL     1     -12.387  13.035  65.606  1.00  0.00    -0.504 C  
HETATM   14  C   UNL     1     -10.318  14.170  64.939  1.00  0.00    -0.435 C  
HETATM   15  C   UNL     1     -10.961  13.376  66.102  1.00  0.00    -0.276 C  
HETATM   16  O   UNL     1      -8.162  12.916  66.772  1.00  0.00    -0.063 OA 
HETATM   17  N   UNL     1     -10.245  12.096  66.294  1.00  0.00    -0.219 N  
ENDROOT
BRANCH   7  18
HETATM   18  C   UNL     1     -10.107  17.758  68.410  1.00  0.00    -0.376 C  
HETATM   19  H   UNL     1      -8.212  17.048  68.932  1.00  0.00     0.000 HD 
HETATM   20  N   UNL     1      -8.760  17.869  68.675  1.00  0.00    -0.292 N  
HETATM   21  O   UNL     1     -10.768  18.760  68.146  1.00  0.00    -0.291 OA 
BRANCH  20  22
HETATM   22  C   UNL     1      -8.136  19.175  68.582  1.00  0.00    -0.370 C  
BRANCH  22  23
HETATM   23  C   UNL     1      -7.329  19.402  67.328  1.00  0.00    -0.244 A  
HETATM   24  C   UNL     1      -6.926  18.294  66.560  1.00  0.00    -0.250 A  
HETATM   25  C   UNL     1      -7.057  20.693  66.847  1.00  0.00    -0.353 A  
HETATM   26  C   UNL     1      -6.211  18.472  65.374  1.00  0.00    -0.307 A  
HETATM   27  C   UNL     1      -5.911  19.759  64.947  1.00  0.00    -0.243 A  
HETATM   28  C   UNL     1      -6.336  20.869  65.665  1.00  0.00    -0.239 A  
HETATM   29  F   UNL     1      -5.210  19.932  63.818  1.00  0.00    -0.173 F  
ENDBRANCH  22  23
ENDBRANCH  20  22
ENDBRANCH   7  18
BRANCH  12  30
HETATM   30  C   UNL     1      -8.414  10.576  66.436  1.00  0.00    -0.143 A  
HETATM   31  N   UNL     1      -7.206  10.195  66.060  1.00  0.00    -0.112 NA 
HETATM   32  C   UNL     1      -8.401   8.448  66.502  1.00  0.00    -0.111 A  
HETATM   33  N   UNL     1      -7.202   8.815  66.104  1.00  0.00    -0.084 NA 
HETATM   34  C   UNL     1      -8.951   7.093  66.697  1.00  0.00    -0.164 C  
HETATM   35  O   UNL     1      -9.232   9.514  66.743  1.00  0.00    -0.142 OA 
ENDBRANCH  12  30
TORSDOF 4
ENDMDL
MODEL       22
REMARK 921   NORMALIZED FREE ENERGY PREDICTED BY IDOCK:   -6.81 KCAL/MOL
REMARK 922        TOTAL FREE ENERGY PREDICTED BY IDOCK:   -9.22 KCAL/MOL
REMARK 923 INTER-LIGAND FREE ENERGY PREDICTED BY IDOCK:   -8.38 KCAL/MOL
REMARK 924 INTRA-LIGAND FREE ENERGY PREDICTED BY IDOCK:   -0.84 KCAL/MOL
REMARK 927      BINDING AFFINITY PREDICTED BY RF-SCORE:    0.00 PKD
ROOT
HETATM    1  C   UNL     1      -7.785   6.969  67.933  1.00  0.00    -0.113 C  
HETATM    2  N   UNL     1      -8.669   8.122  68.042  1.00  0.00    -0.129 N  
HETATM    3  C   UNL     1      -8.981   8.712  66.835  1.00  0.00    -0.138 C  
HETATM    4  O   UNL     1      -8.543   8.369  65.735  1.00  0.00    -0.142 OA 
HETATM    5  C   UNL     1      -9.907   9.851  66.854  1.00  0.00    -0.199 C  
HETATM    6  O   UNL     1     -10.247  10.386  65.624  1.00  0.00    -0.267 OA 
HETATM    7  C   UNL     1     -10.330  10.278  68.051  1.00  0.00    -0.181 C  
HETATM    8  N   UNL     1      -9.939   9.702  69.252  1.00  0.00    -0.180 NA 
HETATM    9  H   UNL     1      -8.165   5.976  70.820  1.00  0.00     0.000 HD 
HETATM   10  H   UNL     1     -10.847  11.124  65.637  1.00  0.00     0.000 HD 
HETATM   11  C   UNL     1      -9.148   8.660  69.232  1.00  0.00    -0.149 C  
HETATM   12  C   UNL     1     -10.225   6.048  70.939  1.00  0.00    -0.206 C  
HETATM   13  C   UNL     1      -7.144   8.236  70.809  1.00  0.00    -0.044 C  
HETATM   14  C   UNL     1      -9.299   8.854  71.803  1.00  0.00    -0.304 C  
HETATM   15  C   UNL     1      -8.672   8.053  70.638  1.00  0.00    -0.131 C  
HETATM   16  O   UNL     1     -11.249   6.696  70.744  1.00  0.00    -0.274 OA 
HETATM   17  N   UNL     1      -8.963   6.612  70.803  1.00  0.00    -0.150 N  
ENDROOT
BRANCH   7  18
HETATM   18  C   UNL     1     -11.310  11.447  68.037  1.00  0.00    -0.303 C  
HETATM   19  H   UNL     1     -10.514  12.197  69.818  1.00  0.00     0.000 HD 
HETATM   20  N   UNL     1     -11.190  12.351  69.070  1.00  0.00    -0.260 N  
HETATM   21  O   UNL     1     -12.160  11.618  67.165  1.00  0.00    -0.575 OA 
BRANCH  20  22
HETATM   22  C   UNL     1     -12.043  13.524  69.073  1.00  0.00    -0.291 C  
BRANCH  22  23
HETATM   23  C   UNL     1     -12.310  14.107  70.438  1.00  0.00    -0.428 A  
HETATM   24  C   UNL     1     -11.817  15.388  70.747  1.00  0.00    -0.394 A  
HETATM   25  C   UNL     1     -13.126  13.453  71.375  1.00  0.00    -0.373 A  
HETATM   26  C   UNL     1     -12.080  15.972  71.987  1.00  0.00    -0.606 A  
HETATM   27  C   UNL     1     -12.848  15.282  72.916  1.00  0.00    -0.438 A  
HETATM   28  C   UNL     1     -13.382  14.035  72.618  1.00  0.00    -0.643 A  
HETATM   29  F   UNL     1     -13.087  15.833  74.113  1.00  0.00    -0.566 F  
ENDBRANCH  22  23
ENDBRANCH  20  22
ENDBRANCH   7  18
BRANCH  12  30
HETATM   30  C   UNL     1     -10.201   4.642  71.323  1.00  0.00    -0.135 A  
HETATM   31  N   UNL     1      -9.665   3.661  70.620  1.00  0.00    -0.180 NA 
HETATM   32  C   UNL     1     -10.536   2.853  72.426  1.00  0.00    -0.013 A  
HETATM   33  N   UNL     1      -9.884   2.502  71.338  1.00  0.00    -0.143 NA 
HETATM   34  C   UNL     1     -11.043   2.011  73.527  1.00  0.00    -0.294 C  
HETATM   35  O   UNL     1     -10.770   4.203  72.495  1.00  0.00    -0.134 OA 
ENDBRANCH  12  30
TORSDOF 4
ENDMDL
MODEL       23
REMARK 921   NORMALIZED FREE ENERGY PREDICTED BY IDOCK:   -6.72 KCAL/MOL
REMARK 922        TOTAL FREE ENERGY PREDICTED BY IDOCK:   -9.10 KCAL/MOL
REMARK 923 INTER-LIGAND FREE ENERGY PREDICTED BY IDOCK:   -8.16 KCAL/MOL
REMARK 924 INTRA-LIGAND FREE ENERGY PREDICTED BY IDOCK:   -0.95 KCAL/MOL
REMARK 927      BINDING AFFINITY PREDICTED BY RF-SCORE:    0.00 PKD
ROOT
HETATM    1  C   UNL     1     -12.012  13.566  70.174  1.00  0.00    -0.329 C  
HETATM    2  N   UNL     1     -11.921  12.124  70.357  1.00  0.00    -0.326 N  
HETATM    3  C   UNL     1     -12.700  11.633  71.384  1.00  0.00    -0.339 C  
HETATM    4  O   UNL     1     -13.395  12.311  72.144  1.00  0.00    -0.526 OA 
HETATM    5  C   UNL     1     -12.702  10.181  71.603  1.00  0.00    -0.447 C  
HETATM    6  O   UNL     1     -13.537   9.712  72.602  1.00  0.00    -0.676 OA 
HETATM    7  C   UNL     1     -11.892   9.444  70.832  1.00  0.00    -0.294 C  
HETATM    8  N   UNL     1     -11.068   9.981  69.854  1.00  0.00    -0.270 NA 
HETATM    9  H   UNL     1     -10.585  13.652  67.450  1.00  0.00     0.000 HD 
HETATM   10  H   UNL     1     -13.537   8.772  72.744  1.00  0.00     0.000 HD 
HETATM   11  C   UNL     1     -11.099  11.270  69.629  1.00  0.00    -0.206 C  
HETATM   12  C   UNL     1     -11.598  12.135  66.483  1.00  0.00    -0.359 C  
HETATM   13  C   UNL     1      -9.055  12.793  69.202  1.00  0.00     0.713 C  
HETATM   14  C   UNL     1      -9.258  10.724  67.902  1.00  0.00    -0.151 C  
HETATM   15  C   UNL     1     -10.094  11.864  68.530  1.00  0.00    -0.206 C  
HETATM   16  O   UNL     1     -12.019  10.983  66.526  1.00  0.00     0.211 OA 
HETATM   17  N   UNL     1     -10.759  12.647  67.465  1.00  0.00    -0.223 N  
ENDROOT
BRANCH   7  18
HETATM   18  C   UNL     1     -11.934   7.936  71.067  1.00  0.00    -0.252 C  
HETATM   19  H   UNL     1      -9.853   7.809  70.924  1.00  0.00     0.000 HD 
HETATM   20  N   UNL     1     -10.716   7.295  71.101  1.00  0.00    -0.227 N  
HETATM   21  O   UNL     1     -12.971   7.299  71.236  1.00  0.00    -0.369 OA 
BRANCH  20  22
HETATM   22  C   UNL     1     -10.683   5.875  71.394  1.00  0.00    -0.260 C  
BRANCH  22  23
HETATM   23  C   UNL     1     -10.226   5.004  70.251  1.00  0.00    -0.328 A  
HETATM   24  C   UNL     1     -10.289   5.505  68.938  1.00  0.00    -0.289 A  
HETATM   25  C   UNL     1      -9.640   3.746  70.468  1.00  0.00    -0.262 A  
HETATM   26  C   UNL     1      -9.838   4.739  67.862  1.00  0.00    -0.191 A  
HETATM   27  C   UNL     1      -9.308   3.476  68.098  1.00  0.00    -0.180 A  
HETATM   28  C   UNL     1      -9.196   2.979  69.390  1.00  0.00    -0.214 A  
HETATM   29  F   UNL     1      -8.891   2.733  67.066  1.00  0.00    -0.108 F  
ENDBRANCH  22  23
ENDBRANCH  20  22
ENDBRANCH   7  18
BRANCH  12  30
HETATM   30  C   UNL     1     -11.918  13.090  65.430  1.00  0.00    -0.414 A  
HETATM   31  N   UNL     1     -12.609  12.825  64.335  1.00  0.00    -0.658 NA 
HETATM   32  C   UNL     1     -11.994  14.897  64.308  1.00  0.00    -0.338 A  
HETATM   33  N   UNL     1     -12.657  14.000  63.610  1.00  0.00    -0.792 NA 
HETATM   34  C   UNL     1     -11.712  16.311  63.990  1.00  0.00     0.480 C  
HETATM   35  O   UNL     1     -11.498  14.398  65.486  1.00  0.00    -0.327 OA 
ENDBRANCH  12  30
TORSDOF 4
ENDMDL
MODEL       24
REMARK 921   NORMALIZED FREE ENERGY PREDICTED BY IDOCK:   -6.63 KCAL/MOL
REMARK 922        TOTAL FREE ENERGY PREDICTED BY IDOCK:   -9.00 KCAL/MOL
REMARK 923 INTER-LIGAND FREE ENERGY PREDICTED BY IDOCK:   -8.34 KCAL/MOL
REMARK 924 INTRA-LIGAND FREE ENERGY PREDICTED BY IDOCK:   -0.66 KCAL/MOL
REMARK 927      BINDING AFFINITY PREDICTED BY RF-SCORE:    0.00 PKD
ROOT
HETATM    1  C   UNL     1      -7.457  13.132  67.340  1.00  0.00    -0.124 C  
HETATM    2  N   UNL     1      -8.372  12.151  67.907  1.00  0.00    -0.151 N  
HETATM    3  C   UNL     1      -7.766  11.216  68.721  1.00  0.00    -0.136 C  
HETATM    4  O   UNL     1      -6.557  11.139  68.947  1.00  0.00    -0.055 OA 
HETATM    5  C   UNL     1      -8.627  10.220  69.370  1.00  0.00    -0.156 C  
HETATM    6  O   UNL     1      -8.000   9.331  70.226  1.00  0.00    -0.109 OA 
HETATM    7  C   UNL     1      -9.932  10.249  69.071  1.00  0.00    -0.213 C  
HETATM    8  N   UNL     1     -10.496  11.162  68.191  1.00  0.00    -0.181 NA 
HETATM    9  H   UNL     1      -9.623  15.057  66.306  1.00  0.00     0.000 HD 
HETATM   10  H   UNL     1      -8.558   8.686  70.646  1.00  0.00     0.000 HD 
HETATM   11  C   UNL     1      -9.736  12.077  67.646  1.00  0.00    -0.187 C  
HETATM   12  C   UNL     1     -10.806  15.180  67.993  1.00  0.00    -0.284 C  
HETATM   13  C   UNL     1      -9.814  12.854  65.182  1.00  0.00    -0.087 C  
HETATM   14  C   UNL     1     -11.916  12.763  66.442  1.00  0.00    -0.443 C  
HETATM   15  C   UNL     1     -10.409  13.081  66.593  1.00  0.00    -0.260 C  
HETATM   16  O   UNL     1     -11.391  14.581  68.891  1.00  0.00    -0.246 OA 
HETATM   17  N   UNL     1     -10.227  14.512  66.921  1.00  0.00    -0.261 N  
ENDROOT
BRANCH   7  18
HETATM   18  C   UNL     1     -10.805   9.217  69.781  1.00  0.00    -0.211 C  
HETATM   19  H   UNL     1     -11.147  10.530  71.371  1.00  0.00     0.000 HD 
HETATM   20  N   UNL     1     -11.362   9.614  70.976  1.00  0.00    -0.342 N  
HETATM   21  O   UNL     1     -11.034   8.094  69.337  1.00  0.00    -0.146 OA 
BRANCH  20  22
HETATM   22  C   UNL     1     -12.261   8.706  71.663  1.00  0.00    -0.333 C  
BRANCH  22  23
HETATM   23  C   UNL     1     -11.580   7.595  72.420  1.00  0.00    -0.386 A  
HETATM   24  C   UNL     1     -12.022   6.270  72.243  1.00  0.00    -0.296 A  
HETATM   25  C   UNL     1     -10.448   7.828  73.218  1.00  0.00    -0.358 A  
HETATM   26  C   UNL     1     -11.388   5.215  72.900  1.00  0.00    -0.354 A  
HETATM   27  C   UNL     1     -10.300   5.479  73.723  1.00  0.00    -0.247 A  
HETATM   28  C   UNL     1      -9.820   6.772  73.879  1.00  0.00    -0.318 A  
HETATM   29  F   UNL     1      -9.701   4.470  74.368  1.00  0.00    -0.128 F  
ENDBRANCH  22  23
ENDBRANCH  20  22
ENDBRANCH   7  18
BRANCH  12  30
HETATM   30  C   UNL     1     -10.646  16.627  67.938  1.00  0.00    -0.342 A  
HETATM   31  N   UNL     1     -10.494  17.426  68.979  1.00  0.00    -0.333 NA 
HETATM   32  C   UNL     1     -10.501  18.607  67.169  1.00  0.00    -0.415 A  
HETATM   33  N   UNL     1     -10.400  18.709  68.477  1.00  0.00    -0.330 NA 
HETATM   34  C   UNL     1     -10.492  19.668  66.143  1.00  0.00    -0.624 C  
HETATM   35  O   UNL     1     -10.653  17.311  66.745  1.00  0.00    -0.286 OA 
ENDBRANCH  12  30
TORSDOF 4
ENDMDL
MODEL       25
REMARK 921   NORMALIZED FREE ENERGY PREDICTED BY IDOCK:   -6.62 KCAL/MOL
REMARK 922        TOTAL FREE ENERGY PREDICTED BY IDOCK:   -8.99 KCAL/MOL
REMARK 923 INTER-LIGAND FREE ENERGY PREDICTED BY IDOCK:   -8.08 KCAL/MOL
REMARK 924 INTRA-LIGAND FREE ENERGY PREDICTED BY IDOCK:   -0.91 KCAL/MOL
REMARK 927      BINDING AFFINITY PREDICTED BY RF-SCORE:    0.00 PKD
ROOT
HETATM    1  C   UNL     1     -11.408   9.979  71.114  1.00  0.00    -0.323 C  
HETATM    2  N   UNL     1     -11.287  10.973  70.056  1.00  0.00    -0.290 N  
HETATM    3  C   UNL     1     -12.087  12.083  70.229  1.00  0.00    -0.312 C  
HETATM    4  O   UNL     1     -12.889  12.253  71.150  1.00  0.00    -0.319 OA 
HETATM    5  C   UNL     1     -11.988  13.155  69.231  1.00  0.00    -0.292 C  
HETATM    6  O   UNL     1     -12.759  14.281  69.460  1.00  0.00    -0.505 OA 
HETATM    7  C   UNL     1     -11.175  12.948  68.187  1.00  0.00    -0.270 C  
HETATM    8  N   UNL     1     -10.437  11.786  68.010  1.00  0.00    -0.193 NA 
HETATM    9  H   UNL     1      -8.949   8.318  70.301  1.00  0.00     0.000 HD 
HETATM   10  H   UNL     1     -12.695  14.975  68.814  1.00  0.00     0.000 HD 
HETATM   11  C   UNL     1     -10.492  10.849  68.922  1.00  0.00    -0.203 C  
HETATM   12  C   UNL     1      -7.569   9.836  70.073  1.00  0.00    -0.163 C  
HETATM   13  C   UNL     1     -10.641   8.306  68.487  1.00  0.00    -0.143 C  
HETATM   14  C   UNL     1      -8.912   9.589  67.313  1.00  0.00    -0.143 C  
HETATM   15  C   UNL     1      -9.669   9.498  68.660  1.00  0.00    -0.155 C  
HETATM   16  O   UNL     1      -7.314  10.938  69.595  1.00  0.00    -0.134 OA 
HETATM   17  N   UNL     1      -8.728   9.144  69.744  1.00  0.00    -0.140 N  
ENDROOT
BRANCH   7  18
HETATM   18  C   UNL     1     -11.074  14.090  67.180  1.00  0.00    -0.303 C  
HETATM   19  H   UNL     1      -9.103  14.484  67.753  1.00  0.00     0.000 HD 
HETATM   20  N   UNL     1      -9.859  14.736  67.116  1.00  0.00    -0.230 N  
HETATM   21  O   UNL     1     -11.994  14.433  66.440  1.00  0.00    -0.404 OA 
BRANCH  20  22
HETATM   22  C   UNL     1      -9.676  15.782  66.127  1.00  0.00    -0.322 C  
BRANCH  22  23
HETATM   23  C   UNL     1      -9.825  17.186  66.657  1.00  0.00    -0.295 A  
HETATM   24  C   UNL     1      -9.361  17.485  67.951  1.00  0.00    -0.265 A  
HETATM   25  C   UNL     1     -10.317  18.229  65.858  1.00  0.00    -0.297 A  
HETATM   26  C   UNL     1      -9.449  18.783  68.456  1.00  0.00    -0.400 A  
HETATM   27  C   UNL     1      -9.987  19.788  67.662  1.00  0.00    -0.406 A  
HETATM   28  C   UNL     1     -10.411  19.526  66.367  1.00  0.00    -0.597 A  
HETATM   29  F   UNL     1     -10.088  21.031  68.151  1.00  0.00    -0.333 F  
ENDBRANCH  22  23
ENDBRANCH  20  22
ENDBRANCH   7  18
BRANCH  12  30
HETATM   30  C   UNL     1      -6.715   9.133  71.021  1.00  0.00    -0.093 A  
HETATM   31  N   UNL     1      -5.632   8.440  70.716  1.00  0.00    -0.028 NA 
HETATM   32  C   UNL     1      -5.964   8.343  72.850  1.00  0.00    -0.073 A  
HETATM   33  N   UNL     1      -5.147   7.930  71.904  1.00  0.00    -0.034 NA 
HETATM   34  C   UNL     1      -5.933   8.070  74.300  1.00  0.00    -0.091 C  
HETATM   35  O   UNL     1      -6.986   9.122  72.369  1.00  0.00    -0.317 OA 
ENDBRANCH  12  30
TORSDOF 4
ENDMDL
MODEL       26
REMARK 921   NORMALIZED FREE ENERGY PREDICTED BY IDOCK:   -6.59 KCAL/MOL
REMARK 922        TOTAL FREE ENERGY PREDICTED BY IDOCK:   -8.95 KCAL/MOL
REMARK 923 INTER-LIGAND FREE ENERGY PREDICTED BY IDOCK:   -8.11 KCAL/MOL
REMARK 924 INTRA-LIGAND FREE ENERGY PREDICTED BY IDOCK:   -0.84 KCAL/MOL
REMARK 927      BINDING AFFINITY PREDICTED BY RF-SCORE:    0.00 PKD
ROOT
HETATM    1  C   UNL     1     -10.616  10.264  65.456  1.00  0.00     0.045 C  
HETATM    2  N   UNL     1     -10.684  11.527  66.178  1.00  0.00    -0.267 N  
HETATM    3  C   UNL     1     -11.717  12.351  65.782  1.00  0.00    -0.414 C  
HETATM    4  O   UNL     1     -12.513  12.115  64.871  1.00  0.00    -0.467 OA 
HETATM    5  C   UNL     1     -11.884  13.623  66.495  1.00  0.00    -0.404 C  
HETATM    6  O   UNL     1     -12.962  14.403  66.116  1.00  0.00    -0.409 OA 
HETATM    7  C   UNL     1     -10.979  13.922  67.436  1.00  0.00    -0.288 C  
HETATM    8  N   UNL     1      -9.910  13.098  67.760  1.00  0.00    -0.221 NA 
HETATM    9  H   UNL     1      -8.594   8.906  67.335  1.00  0.00     0.000 HD 
HETATM   10  H   UNL     1     -13.070  15.226  66.578  1.00  0.00     0.000 HD 
HETATM   11  C   UNL     1      -9.786  11.945  67.154  1.00  0.00    -0.194 C  
HETATM   12  C   UNL     1      -9.472   9.337  69.153  1.00  0.00    -0.157 C  
HETATM   13  C   UNL     1      -7.584  10.911  66.280  1.00  0.00    -0.136 C  
HETATM   14  C   UNL     1      -7.643  11.748  68.584  1.00  0.00    -0.125 C  
HETATM   15  C   UNL     1      -8.510  11.042  67.513  1.00  0.00    -0.127 C  
HETATM   16  O   UNL     1      -9.981  10.186  69.880  1.00  0.00    -0.242 OA 
HETATM   17  N   UNL     1      -8.845   9.672  67.959  1.00  0.00    -0.120 N  
ENDROOT
BRANCH   7  18
HETATM   18  C   UNL     1     -11.193  15.239  68.177  1.00  0.00    -0.324 C  
HETATM   19  H   UNL     1      -9.337  15.956  67.535  1.00  0.00     0.000 HD 
HETATM   20  N   UNL     1     -10.189  16.174  68.053  1.00  0.00    -0.246 N  
HETATM   21  O   UNL     1     -12.194  15.496  68.841  1.00  0.00    -0.245 OA 
BRANCH  20  22
HETATM   22  C   UNL     1     -10.365  17.474  68.671  1.00  0.00    -0.369 C  
BRANCH  22  23
HETATM   23  C   UNL     1      -9.424  18.543  68.176  1.00  0.00    -0.341 A  
HETATM   24  C   UNL     1      -8.231  18.789  68.880  1.00  0.00    -0.255 A  
HETATM   25  C   UNL     1      -9.652  19.229  66.972  1.00  0.00    -0.394 A  
HETATM   26  C   UNL     1      -7.320  19.744  68.425  1.00  0.00    -0.348 A  
HETATM   27  C   UNL     1      -7.594  20.446  67.258  1.00  0.00    -0.331 A  
HETATM   28  C   UNL     1      -8.745  20.190  66.523  1.00  0.00    -0.338 A  
HETATM   29  F   UNL     1      -6.731  21.376  66.829  1.00  0.00    -0.371 F  
ENDBRANCH  22  23
ENDBRANCH  20  22
ENDBRANCH   7  18
BRANCH  12  30
HETATM   30  C   UNL     1      -9.462   7.908  69.439  1.00  0.00    -0.156 A  
HETATM   31  N   UNL     1      -8.878   6.979  68.702  1.00  0.00    -0.129 NA 
HETATM   32  C   UNL     1      -9.852   6.044  70.390  1.00  0.00    -0.179 A  
HETATM   33  N   UNL     1      -9.132   5.772  69.323  1.00  0.00    -0.118 NA 
HETATM   34  C   UNL     1     -10.421   5.126  71.397  1.00  0.00    -0.249 C  
HETATM   35  O   UNL     1     -10.099   7.386  70.540  1.00  0.00    -0.191 OA 
ENDBRANCH  12  30
TORSDOF 4
ENDMDL
MODEL       27
REMARK 921   NORMALIZED FREE ENERGY PREDICTED BY IDOCK:   -6.59 KCAL/MOL
REMARK 922        TOTAL FREE ENERGY PREDICTED BY IDOCK:   -8.95 KCAL/MOL
REMARK 923 INTER-LIGAND FREE ENERGY PREDICTED BY IDOCK:   -8.06 KCAL/MOL
REMARK 924 INTRA-LIGAND FREE ENERGY PREDICTED BY IDOCK:   -0.89 KCAL/MOL
REMARK 927      BINDING AFFINITY PREDICTED BY RF-SCORE:    0.00 PKD
ROOT
HETATM    1  C   UNL     1     -10.950  15.340  65.343  1.00  0.00    -0.372 C  
HETATM    2  N   UNL     1     -10.438  14.205  66.099  1.00  0.00    -0.289 N  
HETATM    3  C   UNL     1     -10.328  13.041  65.366  1.00  0.00    -0.300 C  
HETATM    4  O   UNL     1     -10.663  12.901  64.188  1.00  0.00    -0.376 OA 
HETATM    5  C   UNL     1      -9.774  11.862  66.042  1.00  0.00    -0.237 C  
HETATM    6  O   UNL     1      -9.621  10.725  65.267  1.00  0.00    -0.198 OA 
HETATM    7  C   UNL     1      -9.477  11.983  67.342  1.00  0.00    -0.177 C  
HETATM    8  N   UNL     1      -9.668  13.152  68.066  1.00  0.00    -0.218 NA 
HETATM    9  H   UNL     1     -10.258  17.482  67.441  1.00  0.00     0.000 HD 
HETATM   10  H   UNL     1      -9.262   9.962  65.705  1.00  0.00     0.000 HD 
HETATM   11  C   UNL     1     -10.121  14.215  67.452  1.00  0.00    -0.240 C  
HETATM   12  C   UNL     1      -8.307  16.944  67.849  1.00  0.00    -0.198 C  
HETATM   13  C   UNL     1     -11.893  15.862  68.365  1.00  0.00    -0.129 C  
HETATM   14  C   UNL     1      -9.998  15.273  69.806  1.00  0.00    -0.210 C  
HETATM   15  C   UNL     1     -10.381  15.533  68.329  1.00  0.00    -0.235 C  
HETATM   16  O   UNL     1      -7.518  16.043  68.120  1.00  0.00    -0.124 OA 
HETATM   17  N   UNL     1      -9.680  16.737  67.832  1.00  0.00    -0.241 N  
ENDROOT
BRANCH   7  18
HETATM   18  C   UNL     1      -8.880  10.747  68.011  1.00  0.00    -0.132 C  
HETATM   19  H   UNL     1     -10.029  11.065  69.729  1.00  0.00     0.000 HD 
HETATM   20  N   UNL     1      -9.356  10.450  69.269  1.00  0.00    -0.200 N  
HETATM   21  O   UNL     1      -8.036  10.026  67.486  1.00  0.00    -0.105 OA 
BRANCH  20  22
HETATM   22  C   UNL     1      -8.883   9.247  69.928  1.00  0.00    -0.185 C  
BRANCH  22  23
HETATM   23  C   UNL     1      -9.969   8.372  70.501  1.00  0.00    -0.205 A  
HETATM   24  C   UNL     1     -10.522   8.694  71.754  1.00  0.00    -0.394 A  
HETATM   25  C   UNL     1     -10.519   7.305  69.774  1.00  0.00    -0.236 A  
HETATM   26  C   UNL     1     -11.555   7.927  72.295  1.00  0.00    -0.406 A  
HETATM   27  C   UNL     1     -12.048   6.845  71.576  1.00  0.00    -0.358 A  
HETATM   28  C   UNL     1     -11.548   6.534  70.319  1.00  0.00    -0.473 A  
HETATM   29  F   UNL     1     -13.027   6.096  72.101  1.00  0.00    -0.334 F  
ENDBRANCH  22  23
ENDBRANCH  20  22
ENDBRANCH   7  18
BRANCH  12  30
HETATM   30  C   UNL     1      -7.915  18.308  67.518  1.00  0.00    -0.231 A  
HETATM   31  N   UNL     1      -8.674  19.381  67.651  1.00  0.00    -0.302 NA 
HETATM   32  C   UNL     1      -6.760  19.958  66.829  1.00  0.00    -0.199 A  
HETATM   33  N   UNL     1      -7.922  20.449  67.204  1.00  0.00    -0.337 NA 
HETATM   34  C   UNL     1      -5.592  20.650  66.250  1.00  0.00    -0.223 C  
HETATM   35  O   UNL     1      -6.673  18.599  67.005  1.00  0.00    -0.191 OA 
ENDBRANCH  12  30
TORSDOF 4
ENDMDL
MODEL       28
REMARK 921   NORMALIZED FREE ENERGY PREDICTED BY IDOCK:   -6.58 KCAL/MOL
REMARK 922        TOTAL FREE ENERGY PREDICTED BY IDOCK:   -8.93 KCAL/MOL
REMARK 923 INTER-LIGAND FREE ENERGY PREDICTED BY IDOCK:   -8.34 KCAL/MOL
REMARK 924 INTRA-LIGAND FREE ENERGY PREDICTED BY IDOCK:   -0.59 KCAL/MOL
REMARK 927      BINDING AFFINITY PREDICTED BY RF-SCORE:    0.00 PKD
ROOT
HETATM    1  C   UNL     1     -10.832  16.212  64.851  1.00  0.00    -0.334 C  
HETATM    2  N   UNL     1     -10.405  15.143  65.744  1.00  0.00    -0.314 N  
HETATM    3  C   UNL     1     -10.731  13.876  65.306  1.00  0.00    -0.345 C  
HETATM    4  O   UNL     1     -11.368  13.612  64.285  1.00  0.00    -0.379 OA 
HETATM    5  C   UNL     1     -10.293  12.740  66.126  1.00  0.00    -0.269 C  
HETATM    6  O   UNL     1     -10.583  11.480  65.634  1.00  0.00    -0.261 OA 
HETATM    7  C   UNL     1      -9.666  13.019  67.276  1.00  0.00    -0.225 C  
HETATM    8  N   UNL     1      -9.417  14.310  67.719  1.00  0.00    -0.211 NA 
HETATM    9  H   UNL     1      -9.201  18.448  66.195  1.00  0.00     0.000 HD 
HETATM   10  H   UNL     1     -10.300  10.744  66.165  1.00  0.00     0.000 HD 
HETATM   11  C   UNL     1      -9.769  15.322  66.968  1.00  0.00    -0.226 C  
HETATM   12  C   UNL     1      -7.371  17.501  66.335  1.00  0.00    -0.299 C  
HETATM   13  C   UNL     1     -10.865  17.517  67.781  1.00  0.00    -0.251 C  
HETATM   14  C   UNL     1      -8.844  16.730  68.927  1.00  0.00    -0.228 C  
HETATM   15  C   UNL     1      -9.515  16.801  67.534  1.00  0.00    -0.237 C  
HETATM   16  O   UNL     1      -6.752  16.491  66.658  1.00  0.00    -0.200 OA 
HETATM   17  N   UNL     1      -8.718  17.664  66.635  1.00  0.00    -0.254 N  
ENDROOT
BRANCH   7  18
HETATM   18  C   UNL     1      -9.201  11.817  68.094  1.00  0.00    -0.186 C  
HETATM   19  H   UNL     1     -11.134  11.511  68.830  1.00  0.00     0.000 HD 
HETATM   20  N   UNL     1     -10.175  11.163  68.816  1.00  0.00    -0.201 N  
HETATM   21  O   UNL     1      -8.040  11.415  68.121  1.00  0.00    -0.123 OA 
BRANCH  20  22
HETATM   22  C   UNL     1      -9.812   9.968  69.555  1.00  0.00    -0.229 C  
BRANCH  22  23
HETATM   23  C   UNL     1     -10.173   8.671  68.877  1.00  0.00    -0.221 A  
HETATM   24  C   UNL     1      -9.957   8.536  67.493  1.00  0.00    -0.258 A  
HETATM   25  C   UNL     1     -10.621   7.556  69.603  1.00  0.00    -0.243 A  
HETATM   26  C   UNL     1     -10.244   7.335  66.842  1.00  0.00    -0.340 A  
HETATM   27  C   UNL     1     -10.734   6.262  67.576  1.00  0.00    -0.319 A  
HETATM   28  C   UNL     1     -10.915   6.359  68.950  1.00  0.00    -0.412 A  
HETATM   29  F   UNL     1     -11.028   5.115  66.951  1.00  0.00    -0.266 F  
ENDBRANCH  22  23
ENDBRANCH  20  22
ENDBRANCH   7  18
BRANCH  12  30
HETATM   30  C   UNL     1      -6.791  18.627  65.615  1.00  0.00    -0.249 A  
HETATM   31  N   UNL     1      -6.672  19.859  66.078  1.00  0.00    -0.228 NA 
HETATM   32  C   UNL     1      -5.897  19.776  64.062  1.00  0.00    -0.272 A  
HETATM   33  N   UNL     1      -6.092  20.601  65.069  1.00  0.00    -0.246 NA 
HETATM   34  C   UNL     1      -5.333  20.046  62.725  1.00  0.00    -0.292 C  
HETATM   35  O   UNL     1      -6.310  18.496  64.334  1.00  0.00    -0.229 OA 
ENDBRANCH  12  30
TORSDOF 4
ENDMDL
MODEL       29
REMARK 921   NORMALIZED FREE ENERGY PREDICTED BY IDOCK:   -6.54 KCAL/MOL
REMARK 922        TOTAL FREE ENERGY PREDICTED BY IDOCK:   -8.89 KCAL/MOL
REMARK 923 INTER-LIGAND FREE ENERGY PREDICTED BY IDOCK:   -8.03 KCAL/MOL
REMARK 924 INTRA-LIGAND FREE ENERGY PREDICTED BY IDOCK:   -0.86 KCAL/MOL
REMARK 927      BINDING AFFINITY PREDICTED BY RF-SCORE:    0.00 PKD
ROOT
HETATM    1  C   UNL     1     -11.162  13.540  64.085  1.00  0.00    -0.316 C  
HETATM    2  N   UNL     1     -10.638  12.476  64.931  1.00  0.00    -0.291 N  
HETATM    3  C   UNL     1     -10.274  11.336  64.245  1.00  0.00    -0.327 C  
HETATM    4  O   UNL     1     -10.402  11.157  63.032  1.00  0.00    -0.299 OA 
HETATM    5  C   UNL     1      -9.690  10.234  65.020  1.00  0.00    -0.305 C  
HETATM    6  O   UNL     1      -9.281   9.126  64.299  1.00  0.00    -0.433 OA 
HETATM    7  C   UNL     1      -9.615  10.390  66.348  1.00  0.00    -0.179 C  
HETATM    8  N   UNL     1     -10.058  11.525  67.012  1.00  0.00    -0.206 NA 
HETATM    9  H   UNL     1     -11.071  15.749  66.224  1.00  0.00     0.000 HD 
HETATM   10  H   UNL     1      -8.903   8.413  64.800  1.00  0.00     0.000 HD 
HETATM   11  C   UNL     1     -10.538  12.525  66.317  1.00  0.00    -0.248 C  
HETATM   12  C   UNL     1      -9.156  15.458  66.937  1.00  0.00    -0.242 C  
HETATM   13  C   UNL     1     -12.618  13.938  66.916  1.00  0.00    -0.029 C  
HETATM   14  C   UNL     1     -10.911  13.588  68.641  1.00  0.00    -0.281 C  
HETATM   15  C   UNL     1     -11.089  13.799  67.119  1.00  0.00    -0.302 C  
HETATM   16  O   UNL     1      -8.314  14.661  67.343  1.00  0.00    -0.178 OA 
HETATM   17  N   UNL     1     -10.474  15.082  66.713  1.00  0.00    -0.277 N  
ENDROOT
BRANCH   7  18
HETATM   18  C   UNL     1      -8.982   9.238  67.123  1.00  0.00    -0.126 C  
HETATM   19  H   UNL     1     -10.858   8.570  67.756  1.00  0.00     0.000 HD 
HETATM   20  N   UNL     1      -9.855   8.389  67.766  1.00  0.00    -0.166 N  
HETATM   21  O   UNL     1      -7.771   9.036  67.180  1.00  0.00    -0.097 OA 
BRANCH  20  22
HETATM   22  C   UNL     1      -9.319   7.231  68.459  1.00  0.00    -0.141 C  
BRANCH  22  23
HETATM   23  C   UNL     1      -9.220   5.983  67.619  1.00  0.00    -0.107 A  
HETATM   24  C   UNL     1     -10.311   5.606  66.815  1.00  0.00    -0.316 A  
HETATM   25  C   UNL     1      -8.031   5.241  67.535  1.00  0.00    -0.100 A  
HETATM   26  C   UNL     1     -10.237   4.477  65.997  1.00  0.00    -0.288 A  
HETATM   27  C   UNL     1      -9.065   3.732  65.970  1.00  0.00    -0.152 A  
HETATM   28  C   UNL     1      -7.960   4.109  66.722  1.00  0.00    -0.097 A  
HETATM   29  F   UNL     1      -8.997   2.638  65.200  1.00  0.00    -0.112 F  
ENDBRANCH  22  23
ENDBRANCH  20  22
ENDBRANCH   7  18
BRANCH  12  30
HETATM   30  C   UNL     1      -8.888  16.860  66.645  1.00  0.00    -0.246 A  
HETATM   31  N   UNL     1      -7.909  17.314  65.882  1.00  0.00    -0.503 NA 
HETATM   32  C   UNL     1      -9.042  18.983  66.661  1.00  0.00    -0.329 A  
HETATM   33  N   UNL     1      -8.012  18.691  65.894  1.00  0.00    -0.490 NA 
HETATM   34  C   UNL     1      -9.583  20.302  67.040  1.00  0.00    -0.572 C  
HETATM   35  O   UNL     1      -9.659  17.869  67.171  1.00  0.00    -0.267 OA 
ENDBRANCH  12  30
TORSDOF 4
ENDMDL
MODEL       30
REMARK 921   NORMALIZED FREE ENERGY PREDICTED BY IDOCK:   -6.47 KCAL/MOL
REMARK 922        TOTAL FREE ENERGY PREDICTED BY IDOCK:   -8.80 KCAL/MOL
REMARK 923 INTER-LIGAND FREE ENERGY PREDICTED BY IDOCK:   -8.06 KCAL/MOL
REMARK 924 INTRA-LIGAND FREE ENERGY PREDICTED BY IDOCK:   -0.74 KCAL/MOL
REMARK 927      BINDING AFFINITY PREDICTED BY RF-SCORE:    0.00 PKD
ROOT
HETATM    1  C   UNL     1      -7.234  11.374  66.919  1.00  0.00    -0.144 C  
HETATM    2  N   UNL     1      -7.679  10.608  68.076  1.00  0.00    -0.098 N  
HETATM    3  C   UNL     1      -6.836  10.690  69.165  1.00  0.00    -0.079 C  
HETATM    4  O   UNL     1      -5.765  11.300  69.200  1.00  0.00    -0.041 OA 
HETATM    5  C   UNL     1      -7.238   9.986  70.389  1.00  0.00    -0.108 C  
HETATM    6  O   UNL     1      -6.404  10.132  71.484  1.00  0.00    -0.306 OA 
HETATM    7  C   UNL     1      -8.361   9.259  70.338  1.00  0.00    -0.199 C  
HETATM    8  N   UNL     1      -9.148   9.143  69.201  1.00  0.00    -0.142 NA 
HETATM    9  H   UNL     1      -9.868  11.165  65.342  1.00  0.00     0.000 HD 
HETATM   10  H   UNL     1      -6.664   9.676  72.276  1.00  0.00     0.000 HD 
HETATM   11  C   UNL     1      -8.813   9.806  68.123  1.00  0.00    -0.119 C  
HETATM   12  C   UNL     1     -11.201  11.683  66.831  1.00  0.00    -0.313 C  
HETATM   13  C   UNL     1      -8.890   8.913  65.698  1.00  0.00    -0.230 C  
HETATM   14  C   UNL     1     -10.879   8.634  67.107  1.00  0.00    -0.061 C  
HETATM   15  C   UNL     1      -9.713   9.607  66.811  1.00  0.00    -0.197 C  
HETATM   16  O   UNL     1     -11.572  11.518  67.990  1.00  0.00    -0.361 OA 
HETATM   17  N   UNL     1     -10.241  10.868  66.244  1.00  0.00    -0.240 N  
ENDROOT
BRANCH   7  18
HETATM   18  C   UNL     1      -8.765   8.558  71.633  1.00  0.00    -0.199 C  
HETATM   19  H   UNL     1     -10.495   7.799  70.737  1.00  0.00     0.000 HD 
HETATM   20  N   UNL     1      -9.927   7.819  71.584  1.00  0.00    -0.172 N  
HETATM   21  O   UNL     1      -8.113   8.612  72.673  1.00  0.00    -0.367 OA 
BRANCH  20  22
HETATM   22  C   UNL     1     -10.326   7.069  72.760  1.00  0.00    -0.222 C  
BRANCH  22  23
HETATM   23  C   UNL     1     -10.347   5.573  72.578  1.00  0.00    -0.246 A  
HETATM   24  C   UNL     1      -9.734   5.010  71.443  1.00  0.00    -0.231 A  
HETATM   25  C   UNL     1     -10.868   4.715  73.560  1.00  0.00    -0.362 A  
HETATM   26  C   UNL     1      -9.702   3.626  71.265  1.00  0.00    -0.239 A  
HETATM   27  C   UNL     1     -10.270   2.801  72.228  1.00  0.00    -0.117 A  
HETATM   28  C   UNL     1     -10.841   3.332  73.377  1.00  0.00    -0.307 A  
HETATM   29  F   UNL     1     -10.256   1.473  72.051  1.00  0.00    -0.193 F  
ENDBRANCH  22  23
ENDBRANCH  20  22
ENDBRANCH   7  18
BRANCH  12  30
HETATM   30  C   UNL     1     -11.703  12.728  65.947  1.00  0.00    -0.414 A  
HETATM   31  N   UNL     1     -12.772  12.636  65.176  1.00  0.00    -0.732 NA 
HETATM   32  C   UNL     1     -11.856  14.575  64.900  1.00  0.00    -0.416 A  
HETATM   33  N   UNL     1     -12.868  13.835  64.498  1.00  0.00    -0.633 NA 
HETATM   34  C   UNL     1     -11.464  15.934  64.481  1.00  0.00    -0.287 C  
HETATM   35  O   UNL     1     -11.069  13.942  65.830  1.00  0.00    -0.290 OA 
ENDBRANCH  12  30
TORSDOF 4
ENDMDL
MODEL       31
REMARK 921   NORMALIZED FREE ENERGY PREDICTED BY IDOCK:   -6.45 KCAL/MOL
REMARK 922        TOTAL FREE ENERGY PREDICTED BY IDOCK:   -8.78 KCAL/MOL
REMARK 923 INTER-LIGAND FREE ENERGY PREDICTED BY IDOCK:   -7.91 KCAL/MOL
REMARK 924 INTRA-LIGAND FREE ENERGY PREDICTED BY IDOCK:   -0.87 KCAL/MOL
REMARK 927      BINDING AFFINITY PREDICTED BY RF-SCORE:    0.00 PKD
ROOT
HETATM    1  C   UNL     1      -9.339   9.158  65.541  1.00  0.00    -0.221 C  
HETATM    2  N   UNL     1      -9.664  10.378  66.268  1.00  0.00    -0.195 N  
HETATM    3  C   UNL     1     -10.454  11.263  65.564  1.00  0.00    -0.265 C  
HETATM    4  O   UNL     1     -10.841  11.111  64.403  1.00  0.00    -0.344 OA 
HETATM    5  C   UNL     1     -10.868  12.496  66.245  1.00  0.00    -0.268 C  
HETATM    6  O   UNL     1     -11.707  13.337  65.535  1.00  0.00    -0.321 OA 
HETATM    7  C   UNL     1     -10.391  12.705  67.478  1.00  0.00    -0.218 C  
HETATM    8  N   UNL     1      -9.539  11.824  68.130  1.00  0.00    -0.187 NA 
HETATM    9  H   UNL     1      -8.212   7.617  67.954  1.00  0.00     0.000 HD 
HETATM   10  H   UNL     1     -11.975  14.135  65.976  1.00  0.00     0.000 HD 
HETATM   11  C   UNL     1      -9.206  10.704  67.540  1.00  0.00    -0.143 C  
HETATM   12  C   UNL     1      -9.717   7.973  69.322  1.00  0.00    -0.167 C  
HETATM   13  C   UNL     1      -6.850   9.641  67.507  1.00  0.00    -0.082 C  
HETATM   14  C   UNL     1      -7.781  10.342  69.664  1.00  0.00    -0.152 C  
HETATM   15  C   UNL     1      -8.178   9.735  68.298  1.00  0.00    -0.105 C  
HETATM   16  O   UNL     1     -10.456   8.796  69.854  1.00  0.00    -0.211 OA 
HETATM   17  N   UNL     1      -8.676   8.354  68.486  1.00  0.00    -0.136 N  
ENDROOT
BRANCH   7  18
HETATM   18  C   UNL     1     -10.858  13.983  68.169  1.00  0.00    -0.248 C  
HETATM   19  H   UNL     1      -8.913  14.750  68.168  1.00  0.00     0.000 HD 
HETATM   20  N   UNL     1      -9.889  14.934  68.403  1.00  0.00    -0.210 N  
HETATM   21  O   UNL     1     -12.022  14.197  68.499  1.00  0.00    -0.345 OA 
BRANCH  20  22
HETATM   22  C   UNL     1     -10.281  16.201  68.989  1.00  0.00    -0.250 C  
BRANCH  22  23
HETATM   23  C   UNL     1     -10.296  17.364  68.029  1.00  0.00    -0.362 A  
HETATM   24  C   UNL     1     -10.441  17.116  66.652  1.00  0.00    -0.259 A  
HETATM   25  C   UNL     1     -10.275  18.694  68.478  1.00  0.00    -0.398 A  
HETATM   26  C   UNL     1     -10.497  18.172  65.741  1.00  0.00    -0.215 A  
HETATM   27  C   UNL     1     -10.424  19.479  66.207  1.00  0.00    -0.512 A  
HETATM   28  C   UNL     1     -10.324  19.749  67.565  1.00  0.00    -0.578 A  
HETATM   29  F   UNL     1     -10.459  20.493  65.333  1.00  0.00    -0.427 F  
ENDBRANCH  22  23
ENDBRANCH  20  22
ENDBRANCH   7  18
BRANCH  12  30
HETATM   30  C   UNL     1      -9.836   6.530  69.490  1.00  0.00    -0.151 A  
HETATM   31  N   UNL     1     -10.417   5.919  70.507  1.00  0.00    -0.236 NA 
HETATM   32  C   UNL     1      -9.635   4.441  69.137  1.00  0.00    -0.181 A  
HETATM   33  N   UNL     1     -10.285   4.564  70.274  1.00  0.00    -0.167 NA 
HETATM   34  C   UNL     1      -9.203   3.218  68.431  1.00  0.00    -0.235 C  
HETATM   35  O   UNL     1      -9.319   5.650  68.569  1.00  0.00    -0.119 OA 
ENDBRANCH  12  30
TORSDOF 4
ENDMDL
MODEL       32
REMARK 921   NORMALIZED FREE ENERGY PREDICTED BY IDOCK:   -6.43 KCAL/MOL
REMARK 922        TOTAL FREE ENERGY PREDICTED BY IDOCK:   -8.75 KCAL/MOL
REMARK 923 INTER-LIGAND FREE ENERGY PREDICTED BY IDOCK:   -8.02 KCAL/MOL
REMARK 924 INTRA-LIGAND FREE ENERGY PREDICTED BY IDOCK:   -0.73 KCAL/MOL
REMARK 927      BINDING AFFINITY PREDICTED BY RF-SCORE:    0.00 PKD
ROOT
HETATM    1  C   UNL     1      -6.670  10.068  67.990  1.00  0.00    -0.064 C  
HETATM    2  N   UNL     1      -7.591  11.196  67.986  1.00  0.00    -0.097 N  
HETATM    3  C   UNL     1      -7.065  12.354  67.451  1.00  0.00    -0.152 C  
HETATM    4  O   UNL     1      -5.911  12.496  67.043  1.00  0.00    -0.304 OA 
HETATM    5  C   UNL     1      -7.947  13.525  67.366  1.00  0.00    -0.156 C  
HETATM    6  O   UNL     1      -7.411  14.655  66.773  1.00  0.00    -0.276 OA 
HETATM    7  C   UNL     1      -9.179  13.403  67.875  1.00  0.00    -0.216 C  
HETATM    8  N   UNL     1      -9.651  12.241  68.470  1.00  0.00    -0.170 NA 
HETATM    9  H   UNL     1      -8.765   7.922  68.673  1.00  0.00     0.000 HD 
HETATM   10  H   UNL     1      -7.982  15.413  66.718  1.00  0.00     0.000 HD 
HETATM   11  C   UNL     1      -8.880  11.185  68.507  1.00  0.00    -0.161 C  
HETATM   12  C   UNL     1     -10.228   8.422  67.305  1.00  0.00    -0.279 C  
HETATM   13  C   UNL     1      -8.591   9.578  70.511  1.00  0.00    -0.231 C  
HETATM   14  C   UNL     1     -10.866  10.134  69.782  1.00  0.00    -0.320 C  
HETATM   15  C   UNL     1      -9.437   9.876  69.249  1.00  0.00    -0.209 C  
HETATM   16  O   UNL     1     -10.911   9.308  66.800  1.00  0.00    -0.112 OA 
HETATM   17  N   UNL     1      -9.423   8.656  68.413  1.00  0.00    -0.137 N  
ENDROOT
BRANCH   7  18
HETATM   18  C   UNL     1     -10.080  14.629  67.750  1.00  0.00    -0.228 C  
HETATM   19  H   UNL     1      -9.297  15.443  69.509  1.00  0.00     0.000 HD 
HETATM   20  N   UNL     1      -9.936  15.589  68.727  1.00  0.00    -0.206 N  
HETATM   21  O   UNL     1     -10.887  14.795  66.837  1.00  0.00    -0.302 OA 
BRANCH  20  22
HETATM   22  C   UNL     1     -10.710  16.812  68.624  1.00  0.00    -0.352 C  
BRANCH  22  23
HETATM   23  C   UNL     1      -9.910  18.037  68.261  1.00  0.00    -0.357 A  
HETATM   24  C   UNL     1      -8.517  18.032  68.459  1.00  0.00    -0.314 A  
HETATM   25  C   UNL     1     -10.499  19.146  67.633  1.00  0.00    -0.535 A  
HETATM   26  C   UNL     1      -7.743  19.136  68.098  1.00  0.00    -0.328 A  
HETATM   27  C   UNL     1      -8.358  20.241  67.524  1.00  0.00    -0.310 A  
HETATM   28  C   UNL     1      -9.725  20.252  67.279  1.00  0.00    -0.590 A  
HETATM   29  F   UNL     1      -7.620  21.309  67.193  1.00  0.00    -0.376 F  
ENDBRANCH  22  23
ENDBRANCH  20  22
ENDBRANCH   7  18
BRANCH  12  30
HETATM   30  C   UNL     1     -10.171   7.049  66.819  1.00  0.00    -0.211 A  
HETATM   31  N   UNL     1     -11.136   6.152  66.929  1.00  0.00    -0.306 NA 
HETATM   32  C   UNL     1      -9.436   5.255  65.940  1.00  0.00    -0.142 A  
HETATM   33  N   UNL     1     -10.655   4.991  66.358  1.00  0.00    -0.302 NA 
HETATM   34  C   UNL     1      -8.458   4.368  65.280  1.00  0.00    -0.121 C  
HETATM   35  O   UNL     1      -9.055   6.550  66.190  1.00  0.00    -0.157 OA 
ENDBRANCH  12  30
TORSDOF 4
ENDMDL
MODEL       33
REMARK 921   NORMALIZED FREE ENERGY PREDICTED BY IDOCK:   -6.42 KCAL/MOL
REMARK 922        TOTAL FREE ENERGY PREDICTED BY IDOCK:   -8.74 KCAL/MOL
REMARK 923 INTER-LIGAND FREE ENERGY PREDICTED BY IDOCK:   -8.34 KCAL/MOL
REMARK 924 INTRA-LIGAND FREE ENERGY PREDICTED BY IDOCK:   -0.39 KCAL/MOL
REMARK 927      BINDING AFFINITY PREDICTED BY RF-SCORE:    0.00 PKD
ROOT
HETATM    1  C   UNL     1     -11.166  15.119  70.201  1.00  0.00    -0.273 C  
HETATM    2  N   UNL     1     -10.944  13.889  69.452  1.00  0.00    -0.179 N  
HETATM    3  C   UNL     1     -11.858  12.891  69.720  1.00  0.00    -0.310 C  
HETATM    4  O   UNL     1     -12.774  12.959  70.543  1.00  0.00    -0.154 OA 
HETATM    5  C   UNL     1     -11.733  11.636  68.969  1.00  0.00    -0.324 C  
HETATM    6  O   UNL     1     -12.697  10.674  69.215  1.00  0.00    -0.689 OA 
HETATM    7  C   UNL     1     -10.697  11.525  68.127  1.00  0.00    -0.205 C  
HETATM    8  N   UNL     1      -9.755  12.526  67.936  1.00  0.00    -0.199 NA 
HETATM    9  H   UNL     1      -9.218  16.861  68.578  1.00  0.00     0.000 HD 
HETATM   10  H   UNL     1     -12.616   9.862  68.729  1.00  0.00     0.000 HD 
HETATM   11  C   UNL     1      -9.892  13.661  68.573  1.00  0.00    -0.196 C  
HETATM   12  C   UNL     1      -9.816  16.356  66.667  1.00  0.00    -0.261 C  
HETATM   13  C   UNL     1      -8.000  15.015  69.700  1.00  0.00    -0.069 C  
HETATM   14  C   UNL     1      -7.676  14.263  67.388  1.00  0.00    -0.194 C  
HETATM   15  C   UNL     1      -8.756  14.776  68.371  1.00  0.00    -0.169 C  
HETATM   16  O   UNL     1     -10.096  15.461  65.875  1.00  0.00    -0.295 OA 
HETATM   17  N   UNL     1      -9.270  16.086  67.916  1.00  0.00    -0.195 N  
ENDROOT
BRANCH   7  18
HETATM   18  C   UNL     1     -10.607  10.218  67.344  1.00  0.00    -0.270 C  
HETATM   19  H   UNL     1     -10.443   9.115  69.112  1.00  0.00     0.000 HD 
HETATM   20  N   UNL     1     -10.506   9.068  68.095  1.00  0.00    -0.219 N  
HETATM   21  O   UNL     1     -10.636  10.152  66.117  1.00  0.00    -0.146 OA 
BRANCH  20  22
HETATM   22  C   UNL     1     -10.492   7.788  67.412  1.00  0.00    -0.292 C  
BRANCH  22  23
HETATM   23  C   UNL     1     -10.267   6.596  68.308  1.00  0.00    -0.190 A  
HETATM   24  C   UNL     1      -9.262   5.669  67.979  1.00  0.00    -0.110 A  
HETATM   25  C   UNL     1     -10.962   6.439  69.518  1.00  0.00    -0.421 A  
HETATM   26  C   UNL     1      -9.003   4.576  68.808  1.00  0.00    -0.149 A  
HETATM   27  C   UNL     1      -9.739   4.416  69.975  1.00  0.00    -0.216 A  
HETATM   28  C   UNL     1     -10.706   5.342  70.342  1.00  0.00    -0.276 A  
HETATM   29  F   UNL     1      -9.504   3.359  70.764  1.00  0.00    -0.188 F  
ENDBRANCH  22  23
ENDBRANCH  20  22
ENDBRANCH   7  18
BRANCH  12  30
HETATM   30  C   UNL     1     -10.019  17.776  66.410  1.00  0.00    -0.344 A  
HETATM   31  N   UNL     1     -10.673  18.287  65.382  1.00  0.00    -0.533 NA 
HETATM   32  C   UNL     1      -9.916  19.892  66.617  1.00  0.00    -0.457 A  
HETATM   33  N   UNL     1     -10.604  19.659  65.520  1.00  0.00    -0.454 NA 
HETATM   34  C   UNL     1      -9.522  21.180  67.221  1.00  0.00    -0.074 C  
HETATM   35  O   UNL     1      -9.513  18.742  67.248  1.00  0.00    -0.294 OA 
ENDBRANCH  12  30
TORSDOF 4
ENDMDL
MODEL       34
REMARK 921   NORMALIZED FREE ENERGY PREDICTED BY IDOCK:   -6.41 KCAL/MOL
REMARK 922        TOTAL FREE ENERGY PREDICTED BY IDOCK:   -8.72 KCAL/MOL
REMARK 923 INTER-LIGAND FREE ENERGY PREDICTED BY IDOCK:   -8.05 KCAL/MOL
REMARK 924 INTRA-LIGAND FREE ENERGY PREDICTED BY IDOCK:   -0.67 KCAL/MOL
REMARK 927      BINDING AFFINITY PREDICTED BY RF-SCORE:    0.00 PKD
ROOT
HETATM    1  C   UNL     1      -9.765   8.574  66.772  1.00  0.00    -0.236 C  
HETATM    2  N   UNL     1      -9.331   9.922  67.116  1.00  0.00    -0.144 N  
HETATM    3  C   UNL     1      -9.661  10.879  66.178  1.00  0.00    -0.202 C  
HETATM    4  O   UNL     1     -10.227  10.665  65.104  1.00  0.00    -0.296 OA 
HETATM    5  C   UNL     1      -9.301  12.271  66.473  1.00  0.00    -0.230 C  
HETATM    6  O   UNL     1      -9.695  13.217  65.542  1.00  0.00    -0.467 OA 
HETATM    7  C   UNL     1      -8.619  12.503  67.601  1.00  0.00    -0.178 C  
HETATM    8  N   UNL     1      -8.243  11.504  68.488  1.00  0.00    -0.150 NA 
HETATM    9  H   UNL     1      -9.243   7.334  69.538  1.00  0.00     0.000 HD 
HETATM   10  H   UNL     1      -9.462  14.118  65.733  1.00  0.00     0.000 HD 
HETATM   11  C   UNL     1      -8.601  10.269  68.247  1.00  0.00    -0.122 C  
HETATM   12  C   UNL     1     -10.161   8.750  70.728  1.00  0.00    -0.211 C  
HETATM   13  C   UNL     1      -7.127   8.167  68.549  1.00  0.00    -0.076 C  
HETATM   14  C   UNL     1      -7.273   9.764  70.404  1.00  0.00    -0.149 C  
HETATM   15  C   UNL     1      -8.104   9.132  69.263  1.00  0.00    -0.102 C  
HETATM   16  O   UNL     1     -10.307   9.939  70.994  1.00  0.00    -0.215 OA 
HETATM   17  N   UNL     1      -9.196   8.310  69.831  1.00  0.00    -0.154 N  
ENDROOT
BRANCH   7  18
HETATM   18  C   UNL     1      -8.282  13.963  67.892  1.00  0.00    -0.164 C  
HETATM   19  H   UNL     1     -10.132  14.254  68.821  1.00  0.00     0.000 HD 
HETATM   20  N   UNL     1      -9.237  14.680  68.579  1.00  0.00    -0.189 N  
HETATM   21  O   UNL     1      -7.226  14.500  67.565  1.00  0.00    -0.176 OA 
BRANCH  20  22
HETATM   22  C   UNL     1      -8.946  16.052  68.951  1.00  0.00    -0.239 C  
BRANCH  22  23
HETATM   23  C   UNL     1      -9.558  17.094  68.050  1.00  0.00    -0.267 A  
HETATM   24  C   UNL     1      -9.776  18.392  68.550  1.00  0.00    -0.386 A  
HETATM   25  C   UNL     1      -9.821  16.839  66.695  1.00  0.00    -0.287 A  
HETATM   26  C   UNL     1     -10.306  19.390  67.730  1.00  0.00    -0.547 A  
HETATM   27  C   UNL     1     -10.604  19.097  66.405  1.00  0.00    -0.435 A  
HETATM   28  C   UNL     1     -10.357  17.837  65.879  1.00  0.00    -0.257 A  
HETATM   29  F   UNL     1     -11.129  20.049  65.622  1.00  0.00    -0.469 F  
ENDBRANCH  22  23
ENDBRANCH  20  22
ENDBRANCH   7  18
BRANCH  12  30
HETATM   30  C   UNL     1     -10.963   7.675  71.300  1.00  0.00    -0.238 A  
HETATM   31  N   UNL     1     -12.275   7.556  71.199  1.00  0.00    -0.315 NA 
HETATM   32  C   UNL     1     -11.496   5.918  72.377  1.00  0.00    -0.306 A  
HETATM   33  N   UNL     1     -12.617   6.415  71.899  1.00  0.00    -0.229 NA 
HETATM   34  C   UNL     1     -11.284   4.724  73.218  1.00  0.00    -0.421 C  
HETATM   35  O   UNL     1     -10.394   6.660  72.032  1.00  0.00    -0.196 OA 
ENDBRANCH  12  30
TORSDOF 4
ENDMDL
MODEL       35
REMARK 921   NORMALIZED FREE ENERGY PREDICTED BY IDOCK:   -6.41 KCAL/MOL
REMARK 922        TOTAL FREE ENERGY PREDICTED BY IDOCK:   -8.72 KCAL/MOL
REMARK 923 INTER-LIGAND FREE ENERGY PREDICTED BY IDOCK:   -7.97 KCAL/MOL
REMARK 924 INTRA-LIGAND FREE ENERGY PREDICTED BY IDOCK:   -0.75 KCAL/MOL
REMARK 927      BINDING AFFINITY PREDICTED BY RF-SCORE:    0.00 PKD
ROOT
HETATM    1  C   UNL     1     -11.241  16.825  64.997  1.00  0.00     0.034 C  
HETATM    2  N   UNL     1     -11.194  15.494  65.588  1.00  0.00    -0.218 N  
HETATM    3  C   UNL     1     -11.856  14.528  64.859  1.00  0.00    -0.416 C  
HETATM    4  O   UNL     1     -12.490  14.722  63.819  1.00  0.00    -0.782 OA 
HETATM    5  C   UNL     1     -11.815  13.149  65.362  1.00  0.00    -0.372 C  
HETATM    6  O   UNL     1     -12.438  12.192  64.581  1.00  0.00    -0.387 OA 
HETATM    7  C   UNL     1     -11.194  12.941  66.530  1.00  0.00    -0.302 C  
HETATM    8  N   UNL     1     -10.598  13.951  67.272  1.00  0.00    -0.274 NA 
HETATM    9  H   UNL     1      -9.095  18.076  66.812  1.00  0.00     0.000 HD 
HETATM   10  H   UNL     1     -12.412  11.300  64.907  1.00  0.00     0.000 HD 
HETATM   11  C   UNL     1     -10.597  15.172  66.802  1.00  0.00    -0.298 C  
HETATM   12  C   UNL     1      -7.635  16.623  66.670  1.00  0.00    -0.279 C  
HETATM   13  C   UNL     1     -11.039  17.328  68.158  1.00  0.00    -0.070 C  
HETATM   14  C   UNL     1      -9.402  15.721  69.025  1.00  0.00    -0.244 C  
HETATM   15  C   UNL     1      -9.949  16.325  67.710  1.00  0.00    -0.246 C  
HETATM   16  O   UNL     1      -7.359  15.428  66.718  1.00  0.00    -0.124 OA 
HETATM   17  N   UNL     1      -8.888  17.102  67.032  1.00  0.00    -0.222 N  
ENDROOT
BRANCH   7  18
HETATM   18  C   UNL     1     -11.147  11.494  67.014  1.00  0.00    -0.307 C  
HETATM   19  H   UNL     1      -9.453  11.111  65.851  1.00  0.00     0.000 HD 
HETATM   20  N   UNL     1     -10.108  10.728  66.532  1.00  0.00    -0.220 N  
HETATM   21  O   UNL     1     -11.958  11.009  67.800  1.00  0.00    -0.609 OA 
BRANCH  20  22
HETATM   22  C   UNL     1      -9.965   9.366  67.012  1.00  0.00    -0.221 C  
BRANCH  22  23
HETATM   23  C   UNL     1      -9.268   9.236  68.343  1.00  0.00    -0.132 A  
HETATM   24  C   UNL     1      -9.860   8.457  69.355  1.00  0.00    -0.185 A  
HETATM   25  C   UNL     1      -7.994   9.781  68.568  1.00  0.00    -0.089 A  
HETATM   26  C   UNL     1      -9.222   8.285  70.585  1.00  0.00    -0.167 A  
HETATM   27  C   UNL     1      -7.984   8.878  70.799  1.00  0.00    -0.131 A  
HETATM   28  C   UNL     1      -7.361   9.614  69.800  1.00  0.00    -0.104 A  
HETATM   29  F   UNL     1      -7.378   8.728  71.985  1.00  0.00    -0.121 F  
ENDBRANCH  22  23
ENDBRANCH  20  22
ENDBRANCH   7  18
BRANCH  12  30
HETATM   30  C   UNL     1      -6.713  17.664  66.236  1.00  0.00    -0.282 A  
HETATM   31  N   UNL     1      -5.732  18.175  66.960  1.00  0.00    -0.139 NA 
HETATM   32  C   UNL     1      -5.779  19.150  65.031  1.00  0.00    -0.238 A  
HETATM   33  N   UNL     1      -5.129  19.138  66.176  1.00  0.00    -0.141 NA 
HETATM   34  C   UNL     1      -5.571  20.002  63.844  1.00  0.00    -0.284 C  
HETATM   35  O   UNL     1      -6.799  18.233  64.987  1.00  0.00    -0.397 OA 
ENDBRANCH  12  30
TORSDOF 4
ENDMDL
MODEL       36
REMARK 921   NORMALIZED FREE ENERGY PREDICTED BY IDOCK:   -6.36 KCAL/MOL
REMARK 922        TOTAL FREE ENERGY PREDICTED BY IDOCK:   -8.66 KCAL/MOL
REMARK 923 INTER-LIGAND FREE ENERGY PREDICTED BY IDOCK:   -7.76 KCAL/MOL
REMARK 924 INTRA-LIGAND FREE ENERGY PREDICTED BY IDOCK:   -0.91 KCAL/MOL
REMARK 927      BINDING AFFINITY PREDICTED BY RF-SCORE:    0.00 PKD
ROOT
HETATM    1  C   UNL     1     -11.814   7.378  71.433  1.00  0.00    -0.300 C  
HETATM    2  N   UNL     1     -11.847   8.793  71.090  1.00  0.00    -0.292 N  
HETATM    3  C   UNL     1     -12.792   9.521  71.784  1.00  0.00    -0.406 C  
HETATM    4  O   UNL     1     -13.596   9.062  72.598  1.00  0.00    -0.465 OA 
HETATM    5  C   UNL     1     -12.857  10.966  71.532  1.00  0.00    -0.454 C  
HETATM    6  O   UNL     1     -13.773  11.680  72.283  1.00  0.00    -0.446 OA 
HETATM    7  C   UNL     1     -12.039  11.462  70.595  1.00  0.00    -0.372 C  
HETATM    8  N   UNL     1     -11.149  10.686  69.865  1.00  0.00    -0.289 NA 
HETATM    9  H   UNL     1      -9.161   6.747  70.008  1.00  0.00     0.000 HD 
HETATM   10  H   UNL     1     -13.815  12.615  72.120  1.00  0.00     0.000 HD 
HETATM   11  C   UNL     1     -11.061   9.406  70.121  1.00  0.00    -0.242 C  
HETATM   12  C   UNL     1      -8.009   8.303  70.724  1.00  0.00    -0.100 C  
HETATM   13  C   UNL     1     -10.862   7.512  68.373  1.00  0.00    -0.035 C  
HETATM   14  C   UNL     1      -9.345   9.430  68.190  1.00  0.00    -0.142 C  
HETATM   15  C   UNL     1     -10.062   8.529  69.223  1.00  0.00    -0.202 C  
HETATM   16  O   UNL     1      -7.916   9.509  70.935  1.00  0.00    -0.297 OA 
HETATM   17  N   UNL     1      -9.065   7.763  70.002  1.00  0.00    -0.150 N  
ENDROOT
BRANCH   7  18
HETATM   18  C   UNL     1     -12.112  12.971  70.373  1.00  0.00    -0.314 C  
HETATM   19  H   UNL     1     -11.788  12.731  68.321  1.00  0.00     0.000 HD 
HETATM   20  N   UNL     1     -11.978  13.398  69.070  1.00  0.00    -0.327 N  
HETATM   21  O   UNL     1     -12.295  13.787  71.273  1.00  0.00    -0.353 OA 
BRANCH  20  22
HETATM   22  C   UNL     1     -12.113  14.813  68.782  1.00  0.00    -0.190 C  
BRANCH  22  23
HETATM   23  C   UNL     1     -10.955  15.418  68.029  1.00  0.00    -0.307 A  
HETATM   24  C   UNL     1     -10.184  14.601  67.182  1.00  0.00    -0.256 A  
HETATM   25  C   UNL     1     -10.687  16.796  68.067  1.00  0.00    -0.355 A  
HETATM   26  C   UNL     1      -9.130  15.138  66.441  1.00  0.00    -0.331 A  
HETATM   27  C   UNL     1      -8.854  16.496  66.535  1.00  0.00    -0.282 A  
HETATM   28  C   UNL     1      -9.628  17.330  67.331  1.00  0.00    -0.252 A  
HETATM   29  F   UNL     1      -7.831  17.010  65.839  1.00  0.00    -0.335 F  
ENDBRANCH  22  23
ENDBRANCH  20  22
ENDBRANCH   7  18
BRANCH  12  30
HETATM   30  C   UNL     1      -7.051   7.310  71.195  1.00  0.00    -0.061 A  
HETATM   31  N   UNL     1      -5.738   7.388  71.073  1.00  0.00    -0.034 NA 
HETATM   32  C   UNL     1      -6.255   5.533  72.054  1.00  0.00    -0.039 A  
HETATM   33  N   UNL     1      -5.225   6.234  71.632  1.00  0.00    -0.021 NA 
HETATM   34  C   UNL     1      -6.284   4.208  72.705  1.00  0.00    -0.017 C  
HETATM   35  O   UNL     1      -7.456   6.154  71.820  1.00  0.00    -0.091 OA 
ENDBRANCH  12  30
TORSDOF 4
ENDMDL
MODEL       37
REMARK 921   NORMALIZED FREE ENERGY PREDICTED BY IDOCK:   -6.26 KCAL/MOL
REMARK 922        TOTAL FREE ENERGY PREDICTED BY IDOCK:   -8.55 KCAL/MOL
REMARK 923 INTER-LIGAND FREE ENERGY PREDICTED BY IDOCK:   -7.75 KCAL/MOL
REMARK 924 INTRA-LIGAND FREE ENERGY PREDICTED BY IDOCK:   -0.79 KCAL/MOL
REMARK 927      BINDING AFFINITY PREDICTED BY RF-SCORE:    0.00 PKD
ROOT
HETATM    1  C   UNL     1      -8.000   8.007  64.642  1.00  0.00    -0.151 C  
HETATM    2  N   UNL     1      -8.823   9.168  64.949  1.00  0.00    -0.191 N  
HETATM    3  C   UNL     1      -9.381   9.775  63.842  1.00  0.00    -0.137 C  
HETATM    4  O   UNL     1      -9.196   9.439  62.671  1.00  0.00    -0.226 OA 
HETATM    5  C   UNL     1     -10.265  10.925  64.070  1.00  0.00    -0.357 C  
HETATM    6  O   UNL     1     -10.856  11.477  62.948  1.00  0.00    -0.681 OA 
HETATM    7  C   UNL     1     -10.412  11.344  65.334  1.00  0.00    -0.280 C  
HETATM    8  N   UNL     1      -9.778  10.751  66.417  1.00  0.00    -0.192 NA 
HETATM    9  H   UNL     1      -7.760   6.988  67.535  1.00  0.00     0.000 HD 
HETATM   10  H   UNL     1     -11.428  12.221  63.095  1.00  0.00     0.000 HD 
HETATM   11  C   UNL     1      -9.025   9.700  66.218  1.00  0.00    -0.155 C  
HETATM   12  C   UNL     1      -9.744   7.084  68.098  1.00  0.00    -0.133 C  
HETATM   13  C   UNL     1      -6.734   9.236  67.321  1.00  0.00    -0.069 C  
HETATM   14  C   UNL     1      -8.614   9.869  68.763  1.00  0.00    -0.130 C  
HETATM   15  C   UNL     1      -8.265   9.073  67.483  1.00  0.00    -0.109 C  
HETATM   16  O   UNL     1     -10.777   7.746  68.135  1.00  0.00    -0.158 OA 
HETATM   17  N   UNL     1      -8.533   7.634  67.697  1.00  0.00    -0.117 N  
ENDROOT
BRANCH   7  18
HETATM   18  C   UNL     1     -11.356  12.525  65.541  1.00  0.00    -0.331 C  
HETATM   19  H   UNL     1      -9.767  13.753  66.123  1.00  0.00     0.000 HD 
HETATM   20  N   UNL     1     -10.769  13.708  65.935  1.00  0.00    -0.278 N  
HETATM   21  O   UNL     1     -12.571  12.470  65.362  1.00  0.00    -0.656 OA 
BRANCH  20  22
HETATM   22  C   UNL     1     -11.602  14.887  66.077  1.00  0.00    -0.226 C  
BRANCH  22  23
HETATM   23  C   UNL     1     -10.967  16.021  66.842  1.00  0.00    -0.124 A  
HETATM   24  C   UNL     1     -10.347  17.066  66.133  1.00  0.00    -0.326 A  
HETATM   25  C   UNL     1     -11.067  16.118  68.239  1.00  0.00    -0.348 A  
HETATM   26  C   UNL     1      -9.784  18.149  66.810  1.00  0.00    -0.324 A  
HETATM   27  C   UNL     1      -9.853  18.196  68.197  1.00  0.00    -0.343 A  
HETATM   28  C   UNL     1     -10.497  17.198  68.915  1.00  0.00    -0.346 A  
HETATM   29  F   UNL     1      -9.297  19.226  68.849  1.00  0.00    -0.384 F  
ENDBRANCH  22  23
ENDBRANCH  20  22
ENDBRANCH   7  18
BRANCH  12  30
HETATM   30  C   UNL     1      -9.657   5.674  68.457  1.00  0.00    -0.130 A  
HETATM   31  N   UNL     1      -9.634   4.662  67.607  1.00  0.00    -0.153 NA 
HETATM   32  C   UNL     1      -9.554   3.899  69.628  1.00  0.00    -0.189 A  
HETATM   33  N   UNL     1      -9.567   3.513  68.370  1.00  0.00    -0.137 NA 
HETATM   34  C   UNL     1      -9.516   3.084  70.858  1.00  0.00    -0.229 C  
HETATM   35  O   UNL     1      -9.601   5.264  69.768  1.00  0.00    -0.143 OA 
ENDBRANCH  12  30
TORSDOF 4
ENDMDL
MODEL       38
REMARK 921   NORMALIZED FREE ENERGY PREDICTED BY IDOCK:   -6.23 KCAL/MOL
REMARK 922        TOTAL FREE ENERGY PREDICTED BY IDOCK:   -8.50 KCAL/MOL
REMARK 923 INTER-LIGAND FREE ENERGY PREDICTED BY IDOCK:   -7.84 KCAL/MOL
REMARK 924 INTRA-LIGAND FREE ENERGY PREDICTED BY IDOCK:   -0.66 KCAL/MOL
REMARK 927      BINDING AFFINITY PREDICTED BY RF-SCORE:    0.00 PKD
ROOT
HETATM    1  C   UNL     1     -10.715  14.728  66.217  1.00  0.00    -0.313 C  
HETATM    2  N   UNL     1     -10.984  13.832  67.333  1.00  0.00    -0.280 N  
HETATM    3  C   UNL     1     -11.240  12.528  66.962  1.00  0.00    -0.302 C  
HETATM    4  O   UNL     1     -11.298  12.110  65.804  1.00  0.00    -0.330 OA 
HETATM    5  C   UNL     1     -11.473  11.550  68.032  1.00  0.00    -0.311 C  
HETATM    6  O   UNL     1     -11.670  10.239  67.634  1.00  0.00    -0.570 OA 
HETATM    7  C   UNL     1     -11.487  12.009  69.290  1.00  0.00    -0.301 C  
HETATM    8  N   UNL     1     -11.295  13.343  69.621  1.00  0.00    -0.189 NA 
HETATM    9  H   UNL     1      -9.665  17.072  67.911  1.00  0.00     0.000 HD 
HETATM   10  H   UNL     1     -11.821   9.606  68.326  1.00  0.00     0.000 HD 
HETATM   11  C   UNL     1     -11.044  14.206  68.671  1.00  0.00    -0.262 C  
HETATM   12  C   UNL     1      -8.346  16.052  69.128  1.00  0.00    -0.244 C  
HETATM   13  C   UNL     1     -12.032  16.588  68.475  1.00  0.00     0.510 C  
HETATM   14  C   UNL     1     -11.039  15.910  70.613  1.00  0.00    -0.368 C  
HETATM   15  C   UNL     1     -10.881  15.748  69.082  1.00  0.00    -0.254 C  
HETATM   16  O   UNL     1      -8.152  15.087  69.861  1.00  0.00    -0.072 OA 
HETATM   17  N   UNL     1      -9.609  16.360  68.640  1.00  0.00    -0.231 N  
ENDROOT
BRANCH   7  18
HETATM   18  C   UNL     1     -11.708  10.964  70.381  1.00  0.00    -0.350 C  
HETATM   19  H   UNL     1      -9.810  10.152  70.052  1.00  0.00     0.000 HD 
HETATM   20  N   UNL     1     -10.656  10.107  70.620  1.00  0.00    -0.209 N  
HETATM   21  O   UNL     1     -12.740  10.871  71.041  1.00  0.00    -0.363 OA 
BRANCH  20  22
HETATM   22  C   UNL     1     -10.775   9.140  71.695  1.00  0.00    -0.371 C  
BRANCH  22  23
HETATM   23  C   UNL     1     -10.628   7.701  71.269  1.00  0.00    -0.237 A  
HETATM   24  C   UNL     1     -10.995   7.330  69.963  1.00  0.00    -0.273 A  
HETATM   25  C   UNL     1     -10.037   6.739  72.104  1.00  0.00    -0.198 A  
HETATM   26  C   UNL     1     -10.836   6.014  69.525  1.00  0.00    -0.439 A  
HETATM   27  C   UNL     1     -10.294   5.070  70.388  1.00  0.00    -0.227 A  
HETATM   28  C   UNL     1      -9.884   5.422  71.667  1.00  0.00    -0.223 A  
HETATM   29  F   UNL     1     -10.156   3.803  69.977  1.00  0.00    -0.246 F  
ENDBRANCH  22  23
ENDBRANCH  20  22
ENDBRANCH   7  18
BRANCH  12  30
HETATM   30  C   UNL     1      -7.306  16.971  68.685  1.00  0.00    -0.229 A  
HETATM   31  N   UNL     1      -6.004  16.768  68.785  1.00  0.00    -0.143 NA 
HETATM   32  C   UNL     1      -6.358  18.702  67.885  1.00  0.00    -0.204 A  
HETATM   33  N   UNL     1      -5.393  17.892  68.265  1.00  0.00    -0.153 NA 
HETATM   34  C   UNL     1      -6.271  20.049  67.288  1.00  0.00    -0.209 C  
HETATM   35  O   UNL     1      -7.609  18.184  68.112  1.00  0.00    -0.247 OA 
ENDBRANCH  12  30
TORSDOF 4
ENDMDL
MODEL       39
REMARK 921   NORMALIZED FREE ENERGY PREDICTED BY IDOCK:   -6.20 KCAL/MOL
REMARK 922        TOTAL FREE ENERGY PREDICTED BY IDOCK:   -8.47 KCAL/MOL
REMARK 923 INTER-LIGAND FREE ENERGY PREDICTED BY IDOCK:   -7.66 KCAL/MOL
REMARK 924 INTRA-LIGAND FREE ENERGY PREDICTED BY IDOCK:   -0.81 KCAL/MOL
REMARK 927      BINDING AFFINITY PREDICTED BY RF-SCORE:    0.00 PKD
ROOT
HETATM    1  C   UNL     1     -11.849   9.045  72.157  1.00  0.00    -0.313 C  
HETATM    2  N   UNL     1     -11.508   9.865  71.003  1.00  0.00    -0.363 N  
HETATM    3  C   UNL     1     -12.178  11.070  70.948  1.00  0.00    -0.367 C  
HETATM    4  O   UNL     1     -13.034  11.453  71.747  1.00  0.00    -0.459 OA 
HETATM    5  C   UNL     1     -11.854  11.978  69.840  1.00  0.00    -0.331 C  
HETATM    6  O   UNL     1     -12.497  13.203  69.841  1.00  0.00    -0.173 OA 
HETATM    7  C   UNL     1     -10.980  11.540  68.924  1.00  0.00    -0.229 C  
HETATM    8  N   UNL     1     -10.378  10.291  68.975  1.00  0.00    -0.198 NA 
HETATM    9  H   UNL     1      -9.551   7.026  71.830  1.00  0.00     0.000 HD 
HETATM   10  H   UNL     1     -12.287  13.790  69.124  1.00  0.00     0.000 HD 
HETATM   11  C   UNL     1     -10.634   9.500  69.986  1.00  0.00    -0.244 C  
HETATM   12  C   UNL     1      -7.978   8.337  71.564  1.00  0.00    -0.123 C  
HETATM   13  C   UNL     1     -11.056   6.953  69.859  1.00  0.00    -0.333 C  
HETATM   14  C   UNL     1      -9.080   7.863  68.729  1.00  0.00    -0.140 C  
HETATM   15  C   UNL     1      -9.964   8.042  69.985  1.00  0.00    -0.191 C  
HETATM   16  O   UNL     1      -7.546   9.328  70.983  1.00  0.00    -0.204 OA 
HETATM   17  N   UNL     1      -9.178   7.739  71.202  1.00  0.00    -0.145 N  
ENDROOT
BRANCH   7  18
HETATM   18  C   UNL     1     -10.645  12.515  67.798  1.00  0.00    -0.219 C  
HETATM   19  H   UNL     1      -8.959  13.198  68.828  1.00  0.00     0.000 HD 
HETATM   20  N   UNL     1      -9.503  13.267  67.968  1.00  0.00    -0.213 N  
HETATM   21  O   UNL     1     -11.319  12.640  66.778  1.00  0.00    -0.285 OA 
BRANCH  20  22
HETATM   22  C   UNL     1      -9.090  14.159  66.901  1.00  0.00    -0.245 C  
BRANCH  22  23
HETATM   23  C   UNL     1      -9.564  15.582  67.047  1.00  0.00    -0.233 A  
HETATM   24  C   UNL     1      -9.871  16.327  65.893  1.00  0.00    -0.365 A  
HETATM   25  C   UNL     1      -9.809  16.155  68.305  1.00  0.00    -0.224 A  
HETATM   26  C   UNL     1     -10.349  17.634  65.996  1.00  0.00    -0.305 A  
HETATM   27  C   UNL     1     -10.535  18.195  67.253  1.00  0.00    -0.393 A  
HETATM   28  C   UNL     1     -10.280  17.465  68.406  1.00  0.00    -0.362 A  
HETATM   29  F   UNL     1     -10.977  19.455  67.354  1.00  0.00    -0.541 F  
ENDBRANCH  22  23
ENDBRANCH  20  22
ENDBRANCH   7  18
BRANCH  12  30
HETATM   30  C   UNL     1      -7.310   7.680  72.680  1.00  0.00    -0.080 A  
HETATM   31  N   UNL     1      -6.897   8.272  73.787  1.00  0.00    -0.126 NA 
HETATM   32  C   UNL     1      -6.397   6.171  73.872  1.00  0.00    -0.070 A  
HETATM   33  N   UNL     1      -6.306   7.290  74.558  1.00  0.00    -0.082 NA 
HETATM   34  C   UNL     1      -5.906   4.821  74.212  1.00  0.00    -0.030 C  
HETATM   35  O   UNL     1      -7.032   6.334  72.666  1.00  0.00    -0.073 OA 
ENDBRANCH  12  30
TORSDOF 4
ENDMDL
MODEL       40
REMARK 921   NORMALIZED FREE ENERGY PREDICTED BY IDOCK:   -6.12 KCAL/MOL
REMARK 922        TOTAL FREE ENERGY PREDICTED BY IDOCK:   -8.36 KCAL/MOL
REMARK 923 INTER-LIGAND FREE ENERGY PREDICTED BY IDOCK:   -7.52 KCAL/MOL
REMARK 924 INTRA-LIGAND FREE ENERGY PREDICTED BY IDOCK:   -0.84 KCAL/MOL
REMARK 927      BINDING AFFINITY PREDICTED BY RF-SCORE:    0.00 PKD
ROOT
HETATM    1  C   UNL     1      -8.630   8.340  72.891  1.00  0.00    -0.208 C  
HETATM    2  N   UNL     1      -8.841   8.509  71.460  1.00  0.00    -0.181 N  
HETATM    3  C   UNL     1      -7.862   9.249  70.828  1.00  0.00    -0.145 C  
HETATM    4  O   UNL     1      -6.899   9.784  71.380  1.00  0.00    -0.326 OA 
HETATM    5  C   UNL     1      -7.976   9.425  69.375  1.00  0.00    -0.089 C  
HETATM    6  O   UNL     1      -6.951  10.121  68.759  1.00  0.00    -0.063 OA 
HETATM    7  C   UNL     1      -9.058   8.911  68.777  1.00  0.00    -0.134 C  
HETATM    8  N   UNL     1     -10.059   8.232  69.458  1.00  0.00    -0.192 NA 
HETATM    9  H   UNL     1     -10.765   6.162  73.293  1.00  0.00     0.000 HD 
HETATM   10  H   UNL     1      -7.024  10.235  67.818  1.00  0.00     0.000 HD 
HETATM   11  C   UNL     1      -9.937   8.038  70.746  1.00  0.00    -0.188 C  
HETATM   12  C   UNL     1     -10.271   4.905  71.731  1.00  0.00    -0.200 C  
HETATM   13  C   UNL     1     -11.814   8.268  72.508  1.00  0.00    -0.439 C  
HETATM   14  C   UNL     1     -12.253   6.919  70.508  1.00  0.00    -0.253 C  
HETATM   15  C   UNL     1     -11.137   7.298  71.511  1.00  0.00    -0.237 C  
HETATM   16  O   UNL     1     -10.001   4.795  70.538  1.00  0.00    -0.211 OA 
HETATM   17  N   UNL     1     -10.719   6.102  72.275  1.00  0.00    -0.220 N  
ENDROOT
BRANCH   7  18
HETATM   18  C   UNL     1      -9.136   9.089  67.263  1.00  0.00    -0.133 C  
HETATM   19  H   UNL     1     -10.718  10.441  67.456  1.00  0.00     0.000 HD 
HETATM   20  N   UNL     1     -10.081   9.979  66.806  1.00  0.00    -0.215 N  
HETATM   21  O   UNL     1      -8.405   8.503  66.467  1.00  0.00    -0.108 OA 
BRANCH  20  22
HETATM   22  C   UNL     1     -10.155  10.249  65.382  1.00  0.00    -0.284 C  
BRANCH  22  23
HETATM   23  C   UNL     1     -10.773  11.576  65.021  1.00  0.00    -0.350 A  
HETATM   24  C   UNL     1     -11.465  11.703  63.802  1.00  0.00    -0.457 A  
HETATM   25  C   UNL     1     -10.770  12.660  65.912  1.00  0.00    -0.293 A  
HETATM   26  C   UNL     1     -12.081  12.907  63.456  1.00  0.00    -0.633 A  
HETATM   27  C   UNL     1     -12.020  13.981  64.335  1.00  0.00    -0.454 A  
HETATM   28  C   UNL     1     -11.380  13.865  65.562  1.00  0.00    -0.310 A  
HETATM   29  F   UNL     1     -12.596  15.143  63.997  1.00  0.00    -0.490 F  
ENDBRANCH  22  23
ENDBRANCH  20  22
ENDBRANCH   7  18
BRANCH  12  30
HETATM   30  C   UNL     1     -10.157   3.825  72.703  1.00  0.00    -0.163 A  
HETATM   31  N   UNL     1     -11.153   3.307  73.400  1.00  0.00    -0.202 NA 
HETATM   32  C   UNL     1      -9.308   2.324  73.951  1.00  0.00    -0.079 A  
HETATM   33  N   UNL     1     -10.599   2.334  74.207  1.00  0.00    -0.145 NA 
HETATM   34  C   UNL     1      -8.240   1.498  74.547  1.00  0.00    -0.037 C  
HETATM   35  O   UNL     1      -8.947   3.241  72.996  1.00  0.00    -0.087 OA 
ENDBRANCH  12  30
TORSDOF 4
ENDMDL
MODEL       41
REMARK 921   NORMALIZED FREE ENERGY PREDICTED BY IDOCK:   -6.08 KCAL/MOL
REMARK 922        TOTAL FREE ENERGY PREDICTED BY IDOCK:   -8.31 KCAL/MOL
REMARK 923 INTER-LIGAND FREE ENERGY PREDICTED BY IDOCK:   -7.54 KCAL/MOL
REMARK 924 INTRA-LIGAND FREE ENERGY PREDICTED BY IDOCK:   -0.77 KCAL/MOL
REMARK 927      BINDING AFFINITY PREDICTED BY RF-SCORE:    0.00 PKD
ROOT
HETATM    1  C   UNL     1      -8.006   9.556  70.353  1.00  0.00    -0.178 C  
HETATM    2  N   UNL     1      -8.007  10.787  69.575  1.00  0.00    -0.074 N  
HETATM    3  C   UNL     1      -6.882  11.567  69.750  1.00  0.00     0.013 C  
HETATM    4  O   UNL     1      -5.950  11.320  70.519  1.00  0.00    -0.190 OA 
HETATM    5  C   UNL     1      -6.783  12.803  68.964  1.00  0.00    -0.096 C  
HETATM    6  O   UNL     1      -5.619  13.536  69.116  1.00  0.00    -0.073 OA 
HETATM    7  C   UNL     1      -7.824  13.118  68.183  1.00  0.00    -0.145 C  
HETATM    8  N   UNL     1      -8.971  12.343  68.085  1.00  0.00    -0.193 NA 
HETATM    9  H   UNL     1     -10.389   8.246  68.915  1.00  0.00     0.000 HD 
HETATM   10  H   UNL     1      -5.555  14.336  68.607  1.00  0.00     0.000 HD 
HETATM   11  C   UNL     1      -9.041  11.220  68.753  1.00  0.00    -0.116 C  
HETATM   12  C   UNL     1      -9.825   8.565  66.955  1.00  0.00    -0.242 C  
HETATM   13  C   UNL     1     -11.101  10.338  70.041  1.00  0.00    -0.373 C  
HETATM   14  C   UNL     1     -11.408  11.090  67.727  1.00  0.00    -0.365 C  
HETATM   15  C   UNL     1     -10.402  10.376  68.660  1.00  0.00    -0.184 C  
HETATM   16  O   UNL     1      -9.412   9.359  66.114  1.00  0.00    -0.187 OA 
HETATM   17  N   UNL     1     -10.215   8.975  68.223  1.00  0.00    -0.197 N  
ENDROOT
BRANCH   7  18
HETATM   18  C   UNL     1      -7.681  14.396  67.359  1.00  0.00    -0.185 C  
HETATM   19  H   UNL     1      -9.744  14.473  67.034  1.00  0.00     0.000 HD 
HETATM   20  N   UNL     1      -8.851  14.942  66.880  1.00  0.00    -0.244 N  
HETATM   21  O   UNL     1      -6.605  14.944  67.128  1.00  0.00    -0.269 OA 
BRANCH  20  22
HETATM   22  C   UNL     1      -8.790  16.196  66.154  1.00  0.00    -0.332 C  
BRANCH  22  23
HETATM   23  C   UNL     1      -9.239  17.403  66.937  1.00  0.00    -0.266 A  
HETATM   24  C   UNL     1     -10.222  18.249  66.393  1.00  0.00    -0.417 A  
HETATM   25  C   UNL     1      -8.780  17.651  68.241  1.00  0.00    -0.276 A  
HETATM   26  C   UNL     1     -10.687  19.353  67.109  1.00  0.00    -0.593 A  
HETATM   27  C   UNL     1     -10.180  19.605  68.378  1.00  0.00    -0.441 A  
HETATM   28  C   UNL     1      -9.241  18.759  68.953  1.00  0.00    -0.280 A  
HETATM   29  F   UNL     1     -10.612  20.674  69.060  1.00  0.00    -0.377 F  
ENDBRANCH  22  23
ENDBRANCH  20  22
ENDBRANCH   7  18
BRANCH  12  30
HETATM   30  C   UNL     1      -9.952   7.130  66.738  1.00  0.00    -0.208 A  
HETATM   31  N   UNL     1     -11.008   6.396  67.042  1.00  0.00    -0.394 NA 
HETATM   32  C   UNL     1      -9.475   5.127  66.196  1.00  0.00    -0.159 A  
HETATM   33  N   UNL     1     -10.695   5.098  66.689  1.00  0.00    -0.236 NA 
HETATM   34  C   UNL     1      -8.641   4.019  65.691  1.00  0.00    -0.110 C  
HETATM   35  O   UNL     1      -8.935   6.389  66.185  1.00  0.00    -0.154 OA 
ENDBRANCH  12  30
TORSDOF 4
ENDMDL
MODEL       42
REMARK 921   NORMALIZED FREE ENERGY PREDICTED BY IDOCK:   -6.06 KCAL/MOL
REMARK 922        TOTAL FREE ENERGY PREDICTED BY IDOCK:   -8.29 KCAL/MOL
REMARK 923 INTER-LIGAND FREE ENERGY PREDICTED BY IDOCK:   -7.37 KCAL/MOL
REMARK 924 INTRA-LIGAND FREE ENERGY PREDICTED BY IDOCK:   -0.93 KCAL/MOL
REMARK 927      BINDING AFFINITY PREDICTED BY RF-SCORE:    0.00 PKD
ROOT
HETATM    1  C   UNL     1     -11.009  14.606  69.761  1.00  0.00    -0.201 C  
HETATM    2  N   UNL     1     -10.573  13.482  68.944  1.00  0.00    -0.207 N  
HETATM    3  C   UNL     1     -11.381  12.368  69.036  1.00  0.00    -0.283 C  
HETATM    4  O   UNL     1     -12.369  12.257  69.765  1.00  0.00    -0.153 OA 
HETATM    5  C   UNL     1     -11.037  11.208  68.205  1.00  0.00    -0.251 C  
HETATM    6  O   UNL     1     -11.897  10.126  68.274  1.00  0.00    -0.697 OA 
HETATM    7  C   UNL     1      -9.922  11.291  67.467  1.00  0.00    -0.182 C  
HETATM    8  N   UNL     1      -9.094  12.404  67.453  1.00  0.00    -0.176 NA 
HETATM    9  H   UNL     1      -9.144  16.696  68.488  1.00  0.00     0.000 HD 
HETATM   10  H   UNL     1     -11.674   9.375  67.736  1.00  0.00     0.000 HD 
HETATM   11  C   UNL     1      -9.424  13.455  68.160  1.00  0.00    -0.218 C  
HETATM   12  C   UNL     1      -9.499  16.302  66.493  1.00  0.00    -0.264 C  
HETATM   13  C   UNL     1      -7.821  14.903  69.579  1.00  0.00    -0.102 C  
HETATM   14  C   UNL     1      -7.198  14.406  67.260  1.00  0.00    -0.030 C  
HETATM   15  C   UNL     1      -8.417  14.703  68.165  1.00  0.00    -0.156 C  
HETATM   16  O   UNL     1      -9.595  15.458  65.607  1.00  0.00    -0.335 OA 
HETATM   17  N   UNL     1      -9.041  15.983  67.765  1.00  0.00    -0.196 N  
ENDROOT
BRANCH   7  18
HETATM   18  C   UNL     1      -9.604  10.079  66.595  1.00  0.00    -0.186 C  
HETATM   19  H   UNL     1      -7.953   9.599  67.784  1.00  0.00     0.000 HD 
HETATM   20  N   UNL     1      -8.525   9.319  66.987  1.00  0.00    -0.123 N  
HETATM   21  O   UNL     1     -10.258   9.757  65.606  1.00  0.00    -0.265 OA 
BRANCH  20  22
HETATM   22  C   UNL     1      -8.215   8.112  66.243  1.00  0.00    -0.114 C  
BRANCH  22  23
HETATM   23  C   UNL     1      -8.643   6.830  66.913  1.00  0.00    -0.116 A  
HETATM   24  C   UNL     1      -8.559   6.726  68.314  1.00  0.00    -0.124 A  
HETATM   25  C   UNL     1      -9.220   5.775  66.190  1.00  0.00    -0.169 A  
HETATM   26  C   UNL     1      -8.983   5.567  68.968  1.00  0.00    -0.118 A  
HETATM   27  C   UNL     1      -9.505   4.517  68.223  1.00  0.00    -0.149 A  
HETATM   28  C   UNL     1      -9.637   4.614  66.844  1.00  0.00    -0.197 A  
HETATM   29  F   UNL     1      -9.896   3.398  68.846  1.00  0.00    -0.223 F  
ENDBRANCH  22  23
ENDBRANCH  20  22
ENDBRANCH   7  18
BRANCH  12  30
HETATM   30  C   UNL     1      -9.847  17.709  66.331  1.00  0.00    -0.309 A  
HETATM   31  N   UNL     1     -10.603  18.209  65.369  1.00  0.00    -0.557 NA 
HETATM   32  C   UNL     1      -9.929  19.811  66.655  1.00  0.00    -0.441 A  
HETATM   33  N   UNL     1     -10.654  19.572  65.583  1.00  0.00    -0.477 NA 
HETATM   34  C   UNL     1      -9.622  21.096  67.312  1.00  0.00    -0.065 C  
HETATM   35  O   UNL     1      -9.386  18.672  67.196  1.00  0.00    -0.282 OA 
ENDBRANCH  12  30
TORSDOF 4
ENDMDL
MODEL       43
REMARK 921   NORMALIZED FREE ENERGY PREDICTED BY IDOCK:   -6.04 KCAL/MOL
REMARK 922        TOTAL FREE ENERGY PREDICTED BY IDOCK:   -8.27 KCAL/MOL
REMARK 923 INTER-LIGAND FREE ENERGY PREDICTED BY IDOCK:   -7.80 KCAL/MOL
REMARK 924 INTRA-LIGAND FREE ENERGY PREDICTED BY IDOCK:   -0.46 KCAL/MOL
REMARK 927      BINDING AFFINITY PREDICTED BY RF-SCORE:    0.00 PKD
ROOT
HETATM    1  C   UNL     1      -7.150   7.675  67.209  1.00  0.00    -0.085 C  
HETATM    2  N   UNL     1      -8.183   8.172  68.107  1.00  0.00    -0.128 N  
HETATM    3  C   UNL     1      -8.159   9.539  68.295  1.00  0.00    -0.102 C  
HETATM    4  O   UNL     1      -7.333  10.315  67.812  1.00  0.00    -0.086 OA 
HETATM    5  C   UNL     1      -9.199  10.125  69.150  1.00  0.00    -0.197 C  
HETATM    6  O   UNL     1      -9.186  11.504  69.274  1.00  0.00    -0.385 OA 
HETATM    7  C   UNL     1     -10.056   9.282  69.740  1.00  0.00    -0.204 C  
HETATM    8  N   UNL     1     -10.006   7.904  69.583  1.00  0.00    -0.187 NA 
HETATM    9  H   UNL     1      -8.317   4.847  66.882  1.00  0.00     0.000 HD 
HETATM   10  H   UNL     1      -9.860  11.883  69.827  1.00  0.00     0.000 HD 
HETATM   11  C   UNL     1      -9.106   7.385  68.787  1.00  0.00    -0.131 C  
HETATM   12  C   UNL     1     -10.284   5.331  66.487  1.00  0.00    -0.253 C  
HETATM   13  C   UNL     1      -7.704   5.263  69.250  1.00  0.00    -0.084 C  
HETATM   14  C   UNL     1     -10.134   5.143  69.556  1.00  0.00    -0.316 C  
HETATM   15  C   UNL     1      -9.040   5.787  68.671  1.00  0.00    -0.114 C  
HETATM   16  O   UNL     1     -11.270   5.990  66.805  1.00  0.00    -0.237 OA 
HETATM   17  N   UNL     1      -9.149   5.277  67.286  1.00  0.00    -0.112 N  
ENDROOT
BRANCH   7  18
HETATM   18  C   UNL     1     -11.140   9.924  70.602  1.00  0.00    -0.340 C  
HETATM   19  H   UNL     1     -11.761  11.126  69.009  1.00  0.00     0.000 HD 
HETATM   20  N   UNL     1     -11.938  10.857  69.977  1.00  0.00    -0.320 N  
HETATM   21  O   UNL     1     -11.333   9.640  71.782  1.00  0.00    -0.347 OA 
BRANCH  20  22
HETATM   22  C   UNL     1     -13.034  11.448  70.721  1.00  0.00    -0.049 C  
BRANCH  22  23
HETATM   23  C   UNL     1     -12.773  12.845  71.227  1.00  0.00    -0.371 A  
HETATM   24  C   UNL     1     -13.325  13.244  72.458  1.00  0.00    -0.569 A  
HETATM   25  C   UNL     1     -11.910  13.725  70.556  1.00  0.00    -0.296 A  
HETATM   26  C   UNL     1     -13.071  14.516  72.973  1.00  0.00    -0.611 A  
HETATM   27  C   UNL     1     -12.252  15.387  72.264  1.00  0.00    -0.391 A  
HETATM   28  C   UNL     1     -11.662  15.000  71.069  1.00  0.00    -0.379 A  
HETATM   29  F   UNL     1     -12.022  16.615  72.747  1.00  0.00    -0.567 F  
ENDBRANCH  22  23
ENDBRANCH  20  22
ENDBRANCH   7  18
BRANCH  12  30
HETATM   30  C   UNL     1     -10.178   4.546  65.264  1.00  0.00    -0.163 A  
HETATM   31  N   UNL     1     -11.191   4.028  64.591  1.00  0.00    -0.206 NA 
HETATM   32  C   UNL     1      -9.337   3.501  63.611  1.00  0.00    -0.118 A  
HETATM   33  N   UNL     1     -10.642   3.352  63.520  1.00  0.00    -0.244 NA 
HETATM   34  C   UNL     1      -8.269   2.966  62.744  1.00  0.00    -0.074 C  
HETATM   35  O   UNL     1      -8.961   4.258  64.693  1.00  0.00    -0.134 OA 
ENDBRANCH  12  30
TORSDOF 4
ENDMDL
MODEL       44
REMARK 921   NORMALIZED FREE ENERGY PREDICTED BY IDOCK:   -5.99 KCAL/MOL
REMARK 922        TOTAL FREE ENERGY PREDICTED BY IDOCK:   -8.21 KCAL/MOL
REMARK 923 INTER-LIGAND FREE ENERGY PREDICTED BY IDOCK:   -7.80 KCAL/MOL
REMARK 924 INTRA-LIGAND FREE ENERGY PREDICTED BY IDOCK:   -0.41 KCAL/MOL
REMARK 927      BINDING AFFINITY PREDICTED BY RF-SCORE:    0.00 PKD
ROOT
HETATM    1  C   UNL     1      -8.828   9.962  64.981  1.00  0.00    -0.190 C  
HETATM    2  N   UNL     1      -9.597  10.194  66.197  1.00  0.00    -0.190 N  
HETATM    3  C   UNL     1     -10.479  11.252  66.114  1.00  0.00    -0.254 C  
HETATM    4  O   UNL     1     -10.615  11.999  65.144  1.00  0.00    -0.268 OA 
HETATM    5  C   UNL     1     -11.327  11.522  67.282  1.00  0.00    -0.290 C  
HETATM    6  O   UNL     1     -12.243  12.551  67.151  1.00  0.00    -0.474 OA 
HETATM    7  C   UNL     1     -11.135  10.763  68.369  1.00  0.00    -0.266 C  
HETATM    8  N   UNL     1     -10.186   9.752  68.439  1.00  0.00    -0.177 NA 
HETATM    9  H   UNL     1      -7.719   7.212  65.802  1.00  0.00     0.000 HD 
HETATM   10  H   UNL     1     -12.792  12.725  67.907  1.00  0.00     0.000 HD 
HETATM   11  C   UNL     1      -9.461   9.483  67.384  1.00  0.00    -0.135 C  
HETATM   12  C   UNL     1      -9.464   6.317  66.448  1.00  0.00    -0.133 C  
HETATM   13  C   UNL     1      -6.928   8.967  67.366  1.00  0.00    -0.075 C  
HETATM   14  C   UNL     1      -8.355   7.743  68.941  1.00  0.00    -0.128 C  
HETATM   15  C   UNL     1      -8.338   8.345  67.516  1.00  0.00    -0.129 C  
HETATM   16  O   UNL     1     -10.481   6.408  67.130  1.00  0.00    -0.204 OA 
HETATM   17  N   UNL     1      -8.451   7.265  66.511  1.00  0.00    -0.119 N  
ENDROOT
BRANCH   7  18
HETATM   18  C   UNL     1     -12.048  11.051  69.558  1.00  0.00    -0.329 C  
HETATM   19  H   UNL     1     -11.292  12.993  69.726  1.00  0.00     0.000 HD 
HETATM   20  N   UNL     1     -11.968  12.320  70.088  1.00  0.00    -0.335 N  
HETATM   21  O   UNL     1     -12.833  10.233  70.032  1.00  0.00    -0.122 OA 
BRANCH  20  22
HETATM   22  C   UNL     1     -12.863  12.680  71.172  1.00  0.00    -0.220 C  
BRANCH  22  23
HETATM   23  C   UNL     1     -12.590  14.026  71.796  1.00  0.00    -0.376 A  
HETATM   24  C   UNL     1     -13.172  14.338  73.039  1.00  0.00    -0.500 A  
HETATM   25  C   UNL     1     -11.687  14.937  71.225  1.00  0.00    -0.382 A  
HETATM   26  C   UNL     1     -12.909  15.559  73.661  1.00  0.00    -0.697 A  
HETATM   27  C   UNL     1     -12.050  16.464  73.050  1.00  0.00    -0.482 A  
HETATM   28  C   UNL     1     -11.431  16.160  71.845  1.00  0.00    -0.360 A  
HETATM   29  F   UNL     1     -11.810  17.644  73.637  1.00  0.00    -0.187 F  
ENDBRANCH  22  23
ENDBRANCH  20  22
ENDBRANCH   7  18
BRANCH  12  30
HETATM   30  C   UNL     1      -9.198   5.236  65.507  1.00  0.00    -0.112 A  
HETATM   31  N   UNL     1      -8.004   4.864  65.080  1.00  0.00    -0.095 NA 
HETATM   32  C   UNL     1      -9.514   3.637  64.140  1.00  0.00    -0.149 A  
HETATM   33  N   UNL     1      -8.213   3.826  64.194  1.00  0.00    -0.090 NA 
HETATM   34  C   UNL     1     -10.289   2.673  63.332  1.00  0.00    -0.183 C  
HETATM   35  O   UNL     1     -10.213   4.491  64.955  1.00  0.00    -0.156 OA 
ENDBRANCH  12  30
TORSDOF 4
ENDMDL
MODEL       45
REMARK 921   NORMALIZED FREE ENERGY PREDICTED BY IDOCK:   -5.96 KCAL/MOL
REMARK 922        TOTAL FREE ENERGY PREDICTED BY IDOCK:   -8.17 KCAL/MOL
REMARK 923 INTER-LIGAND FREE ENERGY PREDICTED BY IDOCK:   -7.27 KCAL/MOL
REMARK 924 INTRA-LIGAND FREE ENERGY PREDICTED BY IDOCK:   -0.90 KCAL/MOL
REMARK 927      BINDING AFFINITY PREDICTED BY RF-SCORE:    0.00 PKD
ROOT
HETATM    1  C   UNL     1     -11.433  12.386  69.670  1.00  0.00    -0.194 C  
HETATM    2  N   UNL     1     -11.469  11.043  70.233  1.00  0.00    -0.298 N  
HETATM    3  C   UNL     1     -12.433  10.861  71.203  1.00  0.00    -0.405 C  
HETATM    4  O   UNL     1     -13.192  11.733  71.632  1.00  0.00    -0.411 OA 
HETATM    5  C   UNL     1     -12.566   9.520  71.786  1.00  0.00    -0.405 C  
HETATM    6  O   UNL     1     -13.578   9.353  72.715  1.00  0.00    -0.690 OA 
HETATM    7  C   UNL     1     -11.696   8.586  71.381  1.00  0.00    -0.294 C  
HETATM    8  N   UNL     1     -10.693   8.825  70.452  1.00  0.00    -0.219 NA 
HETATM    9  H   UNL     1      -9.590  11.713  67.301  1.00  0.00     0.000 HD 
HETATM   10  H   UNL     1     -13.665   8.485  73.092  1.00  0.00     0.000 HD 
HETATM   11  C   UNL     1     -10.602  10.008  69.901  1.00  0.00    -0.282 C  
HETATM   12  C   UNL     1     -10.537  10.017  66.601  1.00  0.00    -0.125 C  
HETATM   13  C   UNL     1      -8.418  11.315  69.450  1.00  0.00     0.344 C  
HETATM   14  C   UNL     1      -8.551   8.980  68.713  1.00  0.00    -0.132 C  
HETATM   15  C   UNL     1      -9.398  10.265  68.873  1.00  0.00    -0.178 C  
HETATM   16  O   UNL     1     -11.035   8.927  66.867  1.00  0.00    -0.056 OA 
HETATM   17  N   UNL     1      -9.831  10.752  67.545  1.00  0.00    -0.170 N  
ENDROOT
BRANCH   7  18
HETATM   18  C   UNL     1     -11.876   7.196  71.986  1.00  0.00    -0.295 C  
HETATM   19  H   UNL     1      -9.936   7.233  72.764  1.00  0.00     0.000 HD 
HETATM   20  N   UNL     1     -10.806   6.705  72.701  1.00  0.00    -0.237 N  
HETATM   21  O   UNL     1     -12.904   6.531  71.879  1.00  0.00    -0.301 OA 
BRANCH  20  22
HETATM   22  C   UNL     1     -10.941   5.421  73.364  1.00  0.00    -0.297 C  
BRANCH  22  23
HETATM   23  C   UNL     1      -9.965   4.367  72.905  1.00  0.00    -0.201 A  
HETATM   24  C   UNL     1      -8.601   4.696  72.793  1.00  0.00    -0.114 A  
HETATM   25  C   UNL     1     -10.360   3.038  72.686  1.00  0.00    -0.211 A  
HETATM   26  C   UNL     1      -7.667   3.733  72.407  1.00  0.00    -0.068 A  
HETATM   27  C   UNL     1      -8.092   2.436  72.148  1.00  0.00    -0.054 A  
HETATM   28  C   UNL     1      -9.426   2.079  72.294  1.00  0.00    -0.157 A  
HETATM   29  F   UNL     1      -7.200   1.515  71.761  1.00  0.00    -0.027 F  
ENDBRANCH  22  23
ENDBRANCH  20  22
ENDBRANCH   7  18
BRANCH  12  30
HETATM   30  C   UNL     1     -10.621  10.664  65.298  1.00  0.00    -0.121 A  
HETATM   31  N   UNL     1      -9.868  10.384  64.248  1.00  0.00    -0.329 NA 
HETATM   32  C   UNL     1     -11.233  11.983  63.742  1.00  0.00    -0.440 A  
HETATM   33  N   UNL     1     -10.268  11.241  63.242  1.00  0.00    -0.367 NA 
HETATM   34  C   UNL     1     -11.999  13.075  63.111  1.00  0.00    -0.299 C  
HETATM   35  O   UNL     1     -11.523  11.671  65.047  1.00  0.00    -0.234 OA 
ENDBRANCH  12  30
TORSDOF 4
ENDMDL
MODEL       46
REMARK 921   NORMALIZED FREE ENERGY PREDICTED BY IDOCK:   -5.96 KCAL/MOL
REMARK 922        TOTAL FREE ENERGY PREDICTED BY IDOCK:   -8.16 KCAL/MOL
REMARK 923 INTER-LIGAND FREE ENERGY PREDICTED BY IDOCK:   -7.36 KCAL/MOL
REMARK 924 INTRA-LIGAND FREE ENERGY PREDICTED BY IDOCK:   -0.81 KCAL/MOL
REMARK 927      BINDING AFFINITY PREDICTED BY RF-SCORE:    0.00 PKD
ROOT
HETATM    1  C   UNL     1      -6.174   9.650  67.185  1.00  0.00    -0.064 C  
HETATM    2  N   UNL     1      -7.382  10.437  67.395  1.00  0.00    -0.092 N  
HETATM    3  C   UNL     1      -7.270  11.758  67.013  1.00  0.00    -0.134 C  
HETATM    4  O   UNL     1      -6.251  12.294  66.574  1.00  0.00    -0.026 OA 
HETATM    5  C   UNL     1      -8.461  12.607  67.146  1.00  0.00    -0.186 C  
HETATM    6  O   UNL     1      -8.337  13.912  66.703  1.00  0.00    -0.424 OA 
HETATM    7  C   UNL     1      -9.551  12.053  67.692  1.00  0.00    -0.188 C  
HETATM    8  N   UNL     1      -9.605  10.738  68.130  1.00  0.00    -0.156 NA 
HETATM    9  H   UNL     1      -7.476   6.901  67.645  1.00  0.00     0.000 HD 
HETATM   10  H   UNL     1      -9.107  14.461  66.789  1.00  0.00     0.000 HD 
HETATM   11  C   UNL     1      -8.558   9.969  67.971  1.00  0.00    -0.121 C  
HETATM   12  C   UNL     1      -9.140   7.103  66.440  1.00  0.00    -0.157 C  
HETATM   13  C   UNL     1      -7.628   8.284  69.698  1.00  0.00    -0.094 C  
HETATM   14  C   UNL     1     -10.022   8.212  69.173  1.00  0.00    -0.192 C  
HETATM   15  C   UNL     1      -8.635   8.470  68.537  1.00  0.00    -0.138 C  
HETATM   16  O   UNL     1     -10.097   7.797  66.106  1.00  0.00    -0.015 OA 
HETATM   17  N   UNL     1      -8.342   7.428  67.529  1.00  0.00    -0.113 N  
ENDROOT
BRANCH   7  18
HETATM   18  C   UNL     1     -10.779  12.954  67.795  1.00  0.00    -0.224 C  
HETATM   19  H   UNL     1     -10.685  12.923  69.883  1.00  0.00     0.000 HD 
HETATM   20  N   UNL     1     -11.171  13.301  69.069  1.00  0.00    -0.266 N  
HETATM   21  O   UNL     1     -11.400  13.378  66.823  1.00  0.00    -0.305 OA 
BRANCH  20  22
HETATM   22  C   UNL     1     -12.286  14.215  69.232  1.00  0.00    -0.269 C  
BRANCH  22  23
HETATM   23  C   UNL     1     -12.474  14.740  70.633  1.00  0.00    -0.407 A  
HETATM   24  C   UNL     1     -13.318  14.046  71.519  1.00  0.00    -0.422 A  
HETATM   25  C   UNL     1     -11.749  15.842  71.113  1.00  0.00    -0.490 A  
HETATM   26  C   UNL     1     -13.483  14.484  72.835  1.00  0.00    -0.525 A  
HETATM   27  C   UNL     1     -12.792  15.608  73.270  1.00  0.00    -0.527 A  
HETATM   28  C   UNL     1     -11.921  16.283  72.426  1.00  0.00    -0.630 A  
HETATM   29  F   UNL     1     -12.962  16.040  74.527  1.00  0.00    -0.496 F  
ENDBRANCH  22  23
ENDBRANCH  20  22
ENDBRANCH   7  18
BRANCH  12  30
HETATM   30  C   UNL     1      -8.728   5.886  65.753  1.00  0.00    -0.151 A  
HETATM   31  N   UNL     1      -8.196   5.825  64.545  1.00  0.00    -0.134 NA 
HETATM   32  C   UNL     1      -8.393   3.825  65.340  1.00  0.00    -0.105 A  
HETATM   33  N   UNL     1      -7.980   4.487  64.281  1.00  0.00    -0.092 NA 
HETATM   34  C   UNL     1      -8.419   2.369  65.585  1.00  0.00    -0.102 C  
HETATM   35  O   UNL     1      -8.878   4.646  66.327  1.00  0.00    -0.113 OA 
ENDBRANCH  12  30
TORSDOF 4
ENDMDL
MODEL       47
REMARK 921   NORMALIZED FREE ENERGY PREDICTED BY IDOCK:   -5.95 KCAL/MOL
REMARK 922        TOTAL FREE ENERGY PREDICTED BY IDOCK:   -8.16 KCAL/MOL
REMARK 923 INTER-LIGAND FREE ENERGY PREDICTED BY IDOCK:   -7.38 KCAL/MOL
REMARK 924 INTRA-LIGAND FREE ENERGY PREDICTED BY IDOCK:   -0.78 KCAL/MOL
REMARK 927      BINDING AFFINITY PREDICTED BY RF-SCORE:    0.00 PKD
ROOT
HETATM    1  C   UNL     1      -8.235   8.138  72.134  1.00  0.00    -0.149 C  
HETATM    2  N   UNL     1      -8.875   8.704  70.953  1.00  0.00    -0.165 N  
HETATM    3  C   UNL     1      -8.133   9.681  70.321  1.00  0.00    -0.183 C  
HETATM    4  O   UNL     1      -7.043  10.112  70.702  1.00  0.00    -0.312 OA 
HETATM    5  C   UNL     1      -8.687  10.268  69.095  1.00  0.00    -0.172 C  
HETATM    6  O   UNL     1      -7.897  11.203  68.450  1.00  0.00    -0.117 OA 
HETATM    7  C   UNL     1      -9.905   9.859  68.715  1.00  0.00    -0.171 C  
HETATM    8  N   UNL     1     -10.653   8.924  69.417  1.00  0.00    -0.229 NA 
HETATM    9  H   UNL     1     -10.159   5.759  72.454  1.00  0.00     0.000 HD 
HETATM   10  H   UNL     1      -8.255  11.583  67.656  1.00  0.00     0.000 HD 
HETATM   11  C   UNL     1     -10.141   8.370  70.485  1.00  0.00    -0.190 C  
HETATM   12  C   UNL     1     -10.179   5.069  70.509  1.00  0.00    -0.246 C  
HETATM   13  C   UNL     1     -11.383   7.902  72.704  1.00  0.00    -0.468 C  
HETATM   14  C   UNL     1     -12.426   7.171  70.609  1.00  0.00    -0.148 C  
HETATM   15  C   UNL     1     -11.053   7.334  71.302  1.00  0.00    -0.247 C  
HETATM   16  O   UNL     1     -10.290   5.341  69.317  1.00  0.00    -0.232 OA 
HETATM   17  N   UNL     1     -10.429   6.007  71.502  1.00  0.00    -0.220 N  
ENDROOT
BRANCH   7  18
HETATM   18  C   UNL     1     -10.443  10.469  67.423  1.00  0.00    -0.244 C  
HETATM   19  H   UNL     1     -11.527  11.899  68.495  1.00  0.00     0.000 HD 
HETATM   20  N   UNL     1     -11.265  11.565  67.568  1.00  0.00    -0.280 N  
HETATM   21  O   UNL     1     -10.170  10.047  66.302  1.00  0.00    -0.241 OA 
BRANCH  20  22
HETATM   22  C   UNL     1     -11.749  12.236  66.376  1.00  0.00    -0.365 C  
BRANCH  22  23
HETATM   23  C   UNL     1     -11.284  13.662  66.220  1.00  0.00    -0.313 A  
HETATM   24  C   UNL     1     -11.242  14.234  64.935  1.00  0.00    -0.381 A  
HETATM   25  C   UNL     1     -10.991  14.470  67.329  1.00  0.00    -0.307 A  
HETATM   26  C   UNL     1     -10.853  15.564  64.760  1.00  0.00    -0.385 A  
HETATM   27  C   UNL     1     -10.520  16.327  65.872  1.00  0.00    -0.345 A  
HETATM   28  C   UNL     1     -10.596  15.797  67.153  1.00  0.00    -0.313 A  
HETATM   29  F   UNL     1     -10.129  17.598  65.705  1.00  0.00    -0.284 F  
ENDBRANCH  22  23
ENDBRANCH  20  22
ENDBRANCH   7  18
BRANCH  12  30
HETATM   30  C   UNL     1      -9.778   3.765  71.022  1.00  0.00    -0.178 A  
HETATM   31  N   UNL     1      -9.439   2.720  70.287  1.00  0.00    -0.139 NA 
HETATM   32  C   UNL     1      -9.339   2.186  72.380  1.00  0.00    -0.084 A  
HETATM   33  N   UNL     1      -9.154   1.698  71.172  1.00  0.00    -0.069 NA 
HETATM   34  C   UNL     1      -9.202   1.521  73.691  1.00  0.00    -0.068 C  
HETATM   35  O   UNL     1      -9.730   3.502  72.370  1.00  0.00    -0.135 OA 
ENDBRANCH  12  30
TORSDOF 4
ENDMDL
MODEL       48
REMARK 921   NORMALIZED FREE ENERGY PREDICTED BY IDOCK:   -5.94 KCAL/MOL
REMARK 922        TOTAL FREE ENERGY PREDICTED BY IDOCK:   -8.15 KCAL/MOL
REMARK 923 INTER-LIGAND FREE ENERGY PREDICTED BY IDOCK:   -7.32 KCAL/MOL
REMARK 924 INTRA-LIGAND FREE ENERGY PREDICTED BY IDOCK:   -0.83 KCAL/MOL
REMARK 927      BINDING AFFINITY PREDICTED BY RF-SCORE:    0.00 PKD
ROOT
HETATM    1  C   UNL     1      -9.381  12.948  65.839  1.00  0.00     0.043 C  
HETATM    2  N   UNL     1      -9.683  12.137  67.011  1.00  0.00    -0.199 N  
HETATM    3  C   UNL     1      -9.042  10.916  67.035  1.00  0.00    -0.149 C  
HETATM    4  O   UNL     1      -8.305  10.476  66.150  1.00  0.00    -0.143 OA 
HETATM    5  C   UNL     1      -9.256  10.059  68.207  1.00  0.00    -0.129 C  
HETATM    6  O   UNL     1      -8.555   8.866  68.232  1.00  0.00    -0.132 OA 
HETATM    7  C   UNL     1     -10.113  10.496  69.139  1.00  0.00    -0.224 C  
HETATM    8  N   UNL     1     -10.796  11.701  69.047  1.00  0.00    -0.213 NA 
HETATM    9  H   UNL     1     -10.619  15.556  66.903  1.00  0.00     0.000 HD 
HETATM   10  H   UNL     1      -8.694   8.311  68.991  1.00  0.00     0.000 HD 
HETATM   11  C   UNL     1     -10.572  12.485  68.023  1.00  0.00    -0.223 C  
HETATM   12  C   UNL     1      -9.772  15.595  68.786  1.00  0.00    -0.212 C  
HETATM   13  C   UNL     1     -12.355  13.798  66.690  1.00  0.00    -0.403 C  
HETATM   14  C   UNL     1     -12.366  13.974  69.135  1.00  0.00    -0.169 C  
HETATM   15  C   UNL     1     -11.417  13.844  67.920  1.00  0.00    -0.318 C  
HETATM   16  O   UNL     1      -9.520  14.981  69.818  1.00  0.00    -0.098 OA 
HETATM   17  N   UNL     1     -10.588  15.063  67.796  1.00  0.00    -0.260 N  
ENDROOT
BRANCH   7  18
HETATM   18  C   UNL     1     -10.296   9.594  70.357  1.00  0.00    -0.291 C  
HETATM   19  H   UNL     1     -12.046   8.782  69.551  1.00  0.00     0.000 HD 
HETATM   20  N   UNL     1     -11.384   8.750  70.327  1.00  0.00    -0.202 N  
HETATM   21  O   UNL     1      -9.531   9.580  71.319  1.00  0.00    -0.219 OA 
BRANCH  20  22
HETATM   22  C   UNL     1     -11.572   7.816  71.421  1.00  0.00    -0.276 C  
BRANCH  22  23
HETATM   23  C   UNL     1     -10.959   6.456  71.202  1.00  0.00    -0.327 A  
HETATM   24  C   UNL     1     -10.816   5.970  69.889  1.00  0.00    -0.434 A  
HETATM   25  C   UNL     1     -10.431   5.703  72.263  1.00  0.00    -0.260 A  
HETATM   26  C   UNL     1     -10.217   4.731  69.650  1.00  0.00    -0.200 A  
HETATM   27  C   UNL     1      -9.748   3.983  70.723  1.00  0.00    -0.193 A  
HETATM   28  C   UNL     1      -9.839   4.462  72.023  1.00  0.00    -0.240 A  
HETATM   29  F   UNL     1      -9.189   2.787  70.497  1.00  0.00    -0.151 F  
ENDBRANCH  22  23
ENDBRANCH  20  22
ENDBRANCH   7  18
BRANCH  12  30
HETATM   30  C   UNL     1      -9.260  16.923  68.472  1.00  0.00    -0.260 A  
HETATM   31  N   UNL     1      -9.964  17.919  67.963  1.00  0.00    -0.315 NA 
HETATM   32  C   UNL     1      -7.915  18.555  68.232  1.00  0.00    -0.305 A  
HETATM   33  N   UNL     1      -9.088  18.976  67.809  1.00  0.00    -0.288 NA 
HETATM   34  C   UNL     1      -6.622  19.266  68.269  1.00  0.00    -0.278 C  
HETATM   35  O   UNL     1      -7.943  17.258  68.679  1.00  0.00    -0.255 OA 
ENDBRANCH  12  30
TORSDOF 4
ENDMDL
MODEL       49
REMARK 921   NORMALIZED FREE ENERGY PREDICTED BY IDOCK:   -5.90 KCAL/MOL
REMARK 922        TOTAL FREE ENERGY PREDICTED BY IDOCK:   -8.10 KCAL/MOL
REMARK 923 INTER-LIGAND FREE ENERGY PREDICTED BY IDOCK:   -7.42 KCAL/MOL
REMARK 924 INTRA-LIGAND FREE ENERGY PREDICTED BY IDOCK:   -0.68 KCAL/MOL
REMARK 927      BINDING AFFINITY PREDICTED BY RF-SCORE:    0.00 PKD
ROOT
HETATM    1  C   UNL     1     -11.804  14.564  66.617  1.00  0.00    -0.366 C  
HETATM    2  N   UNL     1     -11.560  13.541  67.625  1.00  0.00    -0.318 N  
HETATM    3  C   UNL     1     -11.705  12.249  67.165  1.00  0.00    -0.326 C  
HETATM    4  O   UNL     1     -12.055  11.927  66.028  1.00  0.00    -0.500 OA 
HETATM    5  C   UNL     1     -11.428  11.157  68.108  1.00  0.00    -0.303 C  
HETATM    6  O   UNL     1     -11.525   9.872  67.604  1.00  0.00    -0.520 OA 
HETATM    7  C   UNL     1     -11.120  11.496  69.366  1.00  0.00    -0.226 C  
HETATM    8  N   UNL     1     -11.053  12.809  69.811  1.00  0.00     0.082 NA 
HETATM    9  H   UNL     1     -10.670  16.918  68.242  1.00  0.00     0.000 HD 
HETATM   10  H   UNL     1     -11.346   9.166  68.214  1.00  0.00     0.000 HD 
HETATM   11  C   UNL     1     -11.256  13.783  68.960  1.00  0.00    -0.272 C  
HETATM   12  C   UNL     1      -8.888  16.079  68.862  1.00  0.00    -0.233 C  
HETATM   13  C   UNL     1     -12.627  15.930  69.401  1.00  0.00     0.396 C  
HETATM   14  C   UNL     1     -10.918  15.283  71.036  1.00  0.00    -0.274 C  
HETATM   15  C   UNL     1     -11.225  15.286  69.519  1.00  0.00    -0.281 C  
HETATM   16  O   UNL     1      -8.319  15.113  69.362  1.00  0.00    -0.223 OA 
HETATM   17  N   UNL     1     -10.273  16.172  68.814  1.00  0.00    -0.226 N  
ENDROOT
BRANCH   7  18
HETATM   18  C   UNL     1     -10.814  10.341  70.315  1.00  0.00    -0.286 C  
HETATM   19  H   UNL     1      -8.910  10.103  69.486  1.00  0.00     0.000 HD 
HETATM   20  N   UNL     1      -9.560   9.782  70.204  1.00  0.00    -0.250 N  
HETATM   21  O   UNL     1     -11.606   9.916  71.154  1.00  0.00    -0.341 OA 
BRANCH  20  22
HETATM   22  C   UNL     1      -9.181   8.730  71.128  1.00  0.00    -0.237 C  
BRANCH  22  23
HETATM   23  C   UNL     1      -9.272   7.333  70.566  1.00  0.00    -0.158 A  
HETATM   24  C   UNL     1      -8.101   6.697  70.113  1.00  0.00    -0.124 A  
HETATM   25  C   UNL     1     -10.474   6.608  70.578  1.00  0.00    -0.240 A  
HETATM   26  C   UNL     1      -8.145   5.390  69.624  1.00  0.00    -0.099 A  
HETATM   27  C   UNL     1      -9.358   4.712  69.601  1.00  0.00    -0.143 A  
HETATM   28  C   UNL     1     -10.517   5.304  70.082  1.00  0.00    -0.338 A  
HETATM   29  F   UNL     1      -9.406   3.465  69.115  1.00  0.00    -0.179 F  
ENDBRANCH  22  23
ENDBRANCH  20  22
ENDBRANCH   7  18
BRANCH  12  30
HETATM   30  C   UNL     1      -8.203  17.221  68.267  1.00  0.00    -0.237 A  
HETATM   31  N   UNL     1      -8.307  17.611  67.009  1.00  0.00    -0.214 NA 
HETATM   32  C   UNL     1      -6.931  18.914  68.050  1.00  0.00    -0.232 A  
HETATM   33  N   UNL     1      -7.481  18.709  66.873  1.00  0.00    -0.214 NA 
HETATM   34  C   UNL     1      -5.951  19.937  68.463  1.00  0.00    -0.277 C  
HETATM   35  O   UNL     1      -7.347  18.011  68.997  1.00  0.00    -0.262 OA 
ENDBRANCH  12  30
TORSDOF 4
ENDMDL
MODEL       50
REMARK 921   NORMALIZED FREE ENERGY PREDICTED BY IDOCK:   -5.87 KCAL/MOL
REMARK 922        TOTAL FREE ENERGY PREDICTED BY IDOCK:   -8.06 KCAL/MOL
REMARK 923 INTER-LIGAND FREE ENERGY PREDICTED BY IDOCK:   -7.24 KCAL/MOL
REMARK 924 INTRA-LIGAND FREE ENERGY PREDICTED BY IDOCK:   -0.82 KCAL/MOL
REMARK 927      BINDING AFFINITY PREDICTED BY RF-SCORE:    0.00 PKD
ROOT
HETATM    1  C   UNL     1     -11.584   7.928  71.886  1.00  0.00    -0.292 C  
HETATM    2  N   UNL     1     -11.478   8.887  70.795  1.00  0.00    -0.277 N  
HETATM    3  C   UNL     1     -12.152  10.070  71.015  1.00  0.00    -0.373 C  
HETATM    4  O   UNL     1     -12.840  10.331  72.004  1.00  0.00    -0.417 OA 
HETATM    5  C   UNL     1     -12.055  11.110  69.983  1.00  0.00    -0.359 C  
HETATM    6  O   UNL     1     -12.693  12.307  70.255  1.00  0.00    -0.004 OA 
HETATM    7  C   UNL     1     -11.373  10.809  68.871  1.00  0.00    -0.284 C  
HETATM    8  N   UNL     1     -10.765   9.580  68.654  1.00  0.00    -0.210 NA 
HETATM    9  H   UNL     1      -9.381   6.029  70.882  1.00  0.00     0.000 HD 
HETATM   10  H   UNL     1     -12.630  12.980  69.587  1.00  0.00     0.000 HD 
HETATM   11  C   UNL     1     -10.815   8.669  69.592  1.00  0.00    -0.157 C  
HETATM   12  C   UNL     1      -7.897   7.407  70.480  1.00  0.00    -0.097 C  
HETATM   13  C   UNL     1     -11.239   6.143  69.243  1.00  0.00    -0.438 C  
HETATM   14  C   UNL     1      -9.525   7.237  67.872  1.00  0.00    -0.142 C  
HETATM   15  C   UNL     1     -10.150   7.242  69.288  1.00  0.00    -0.183 C  
HETATM   16  O   UNL     1      -7.591   8.471  69.950  1.00  0.00    -0.068 OA 
HETATM   17  N   UNL     1      -9.141   6.821  70.285  1.00  0.00    -0.152 N  
ENDROOT
BRANCH   7  18
HETATM   18  C   UNL     1     -11.269  11.918  67.827  1.00  0.00    -0.267 C  
HETATM   19  H   UNL     1      -9.369  12.453  68.517  1.00  0.00     0.000 HD 
HETATM   20  N   UNL     1     -10.093  12.635  67.821  1.00  0.00    -0.215 N  
HETATM   21  O   UNL     1     -12.152  12.177  67.013  1.00  0.00    -0.591 OA 
BRANCH  20  22
HETATM   22  C   UNL     1      -9.902  13.653  66.806  1.00  0.00    -0.271 C  
BRANCH  22  23
HETATM   23  C   UNL     1     -10.040  15.072  67.299  1.00  0.00    -0.235 A  
HETATM   24  C   UNL     1      -9.883  15.340  68.672  1.00  0.00    -0.211 A  
HETATM   25  C   UNL     1     -10.217  16.148  66.416  1.00  0.00    -0.315 A  
HETATM   26  C   UNL     1      -9.966  16.647  69.156  1.00  0.00    -0.263 A  
HETATM   27  C   UNL     1     -10.192  17.689  68.266  1.00  0.00    -0.374 A  
HETATM   28  C   UNL     1     -10.307  17.454  66.903  1.00  0.00    -0.317 A  
HETATM   29  F   UNL     1     -10.290  18.942  68.730  1.00  0.00    -0.405 F  
ENDBRANCH  22  23
ENDBRANCH  20  22
ENDBRANCH   7  18
BRANCH  12  30
HETATM   30  C   UNL     1      -7.021   6.644  71.359  1.00  0.00    -0.075 A  
HETATM   31  N   UNL     1      -5.958   5.956  70.980  1.00  0.00    -0.028 NA 
HETATM   32  C   UNL     1      -6.218   5.749  73.116  1.00  0.00    -0.061 A  
HETATM   33  N   UNL     1      -5.441   5.377  72.121  1.00  0.00    -0.016 NA 
HETATM   34  C   UNL     1      -6.141   5.399  74.548  1.00  0.00    -0.059 C  
HETATM   35  O   UNL     1      -7.246   6.565  72.713  1.00  0.00    -0.080 OA 
ENDBRANCH  12  30
TORSDOF 4
ENDMDL
MODEL       51
REMARK 921   NORMALIZED FREE ENERGY PREDICTED BY IDOCK:   -5.85 KCAL/MOL
REMARK 922        TOTAL FREE ENERGY PREDICTED BY IDOCK:   -8.03 KCAL/MOL
REMARK 923 INTER-LIGAND FREE ENERGY PREDICTED BY IDOCK:   -7.05 KCAL/MOL
REMARK 924 INTRA-LIGAND FREE ENERGY PREDICTED BY IDOCK:   -0.98 KCAL/MOL
REMARK 927      BINDING AFFINITY PREDICTED BY RF-SCORE:    0.00 PKD
ROOT
HETATM    1  C   UNL     1     -11.536  14.893  70.232  1.00  0.00    -0.286 C  
HETATM    2  N   UNL     1     -11.224  13.556  69.746  1.00  0.00    -0.080 N  
HETATM    3  C   UNL     1     -12.086  12.576  70.192  1.00  0.00    -0.292 C  
HETATM    4  O   UNL     1     -13.025  12.747  70.972  1.00  0.00    -0.214 OA 
HETATM    5  C   UNL     1     -11.868  11.207  69.708  1.00  0.00    -0.349 C  
HETATM    6  O   UNL     1     -12.782  10.255  70.126  1.00  0.00    -0.542 OA 
HETATM    7  C   UNL     1     -10.806  10.997  68.920  1.00  0.00    -0.217 C  
HETATM    8  N   UNL     1      -9.918  11.996  68.548  1.00  0.00    -0.205 NA 
HETATM    9  H   UNL     1      -9.649  16.397  68.324  1.00  0.00     0.000 HD 
HETATM   10  H   UNL     1     -12.641   9.369  69.812  1.00  0.00     0.000 HD 
HETATM   11  C   UNL     1     -10.137  13.224  68.944  1.00  0.00     0.026 C  
HETATM   12  C   UNL     1     -10.166  15.489  66.543  1.00  0.00    -0.283 C  
HETATM   13  C   UNL     1      -8.357  14.888  69.808  1.00  0.00     0.165 C  
HETATM   14  C   UNL     1      -7.929  13.716  67.697  1.00  0.00    -0.180 C  
HETATM   15  C   UNL     1      -9.062  14.345  68.542  1.00  0.00    -0.193 C  
HETATM   16  O   UNL     1     -10.373  14.440  65.940  1.00  0.00    -0.289 OA 
HETATM   17  N   UNL     1      -9.639  15.505  67.828  1.00  0.00    -0.209 N  
ENDROOT
BRANCH   7  18
HETATM   18  C   UNL     1     -10.620   9.569  68.413  1.00  0.00    -0.219 C  
HETATM   19  H   UNL     1     -10.622  10.224  66.428  1.00  0.00     0.000 HD 
HETATM   20  N   UNL     1     -10.521   9.419  67.048  1.00  0.00    -0.248 N  
HETATM   21  O   UNL     1     -10.543   8.586  69.148  1.00  0.00    -0.223 OA 
BRANCH  20  22
HETATM   22  C   UNL     1     -10.269   8.097  66.507  1.00  0.00    -0.177 C  
BRANCH  22  23
HETATM   23  C   UNL     1      -8.910   7.919  65.878  1.00  0.00    -0.183 A  
HETATM   24  C   UNL     1      -8.379   6.623  65.743  1.00  0.00    -0.143 A  
HETATM   25  C   UNL     1      -8.203   9.000  65.327  1.00  0.00    -0.139 A  
HETATM   26  C   UNL     1      -7.141   6.421  65.131  1.00  0.00    -0.060 A  
HETATM   27  C   UNL     1      -6.438   7.514  64.638  1.00  0.00    -0.041 A  
HETATM   28  C   UNL     1      -6.962   8.797  64.721  1.00  0.00    -0.073 A  
HETATM   29  F   UNL     1      -5.242   7.325  64.066  1.00  0.00    -0.027 F  
ENDBRANCH  22  23
ENDBRANCH  20  22
ENDBRANCH   7  18
BRANCH  12  30
HETATM   30  C   UNL     1     -10.443  16.816  66.007  1.00  0.00    -0.293 A  
HETATM   31  N   UNL     1     -10.965  17.073  64.820  1.00  0.00    -0.905 NA 
HETATM   32  C   UNL     1     -10.553  18.935  65.838  1.00  0.00    -0.373 A  
HETATM   33  N   UNL     1     -11.035  18.448  64.714  1.00  0.00    -0.067 NA 
HETATM   34  C   UNL     1     -10.370  20.341  66.248  1.00  0.00    -0.400 C  
HETATM   35  O   UNL     1     -10.161  17.957  66.718  1.00  0.00    -0.329 OA 
ENDBRANCH  12  30
TORSDOF 4
ENDMDL
MODEL       52
REMARK 921   NORMALIZED FREE ENERGY PREDICTED BY IDOCK:   -5.84 KCAL/MOL
REMARK 922        TOTAL FREE ENERGY PREDICTED BY IDOCK:   -8.02 KCAL/MOL
REMARK 923 INTER-LIGAND FREE ENERGY PREDICTED BY IDOCK:   -8.10 KCAL/MOL
REMARK 924 INTRA-LIGAND FREE ENERGY PREDICTED BY IDOCK:    0.08 KCAL/MOL
REMARK 927      BINDING AFFINITY PREDICTED BY RF-SCORE:    0.00 PKD
ROOT
HETATM    1  C   UNL     1      -7.266   7.270  69.788  1.00  0.00    -0.082 C  
HETATM    2  N   UNL     1      -8.334   8.248  69.631  1.00  0.00    -0.122 N  
HETATM    3  C   UNL     1      -7.894   9.544  69.454  1.00  0.00    -0.097 C  
HETATM    4  O   UNL     1      -6.717   9.909  69.466  1.00  0.00    -0.048 OA 
HETATM    5  C   UNL     1      -8.908  10.583  69.239  1.00  0.00    -0.122 C  
HETATM    6  O   UNL     1      -8.436  11.863  69.006  1.00  0.00    -0.366 OA 
HETATM    7  C   UNL     1     -10.193  10.208  69.299  1.00  0.00    -0.223 C  
HETATM    8  N   UNL     1     -10.600   8.905  69.550  1.00  0.00    -0.232 NA 
HETATM    9  H   UNL     1      -9.039   4.777  69.465  1.00  0.00     0.000 HD 
HETATM   10  H   UNL     1      -9.093  12.536  68.867  1.00  0.00     0.000 HD 
HETATM   11  C   UNL     1      -9.695   7.972  69.698  1.00  0.00    -0.169 C  
HETATM   12  C   UNL     1     -10.089   5.320  67.772  1.00  0.00    -0.157 C  
HETATM   13  C   UNL     1      -9.732   6.080  71.459  1.00  0.00    -0.186 C  
HETATM   14  C   UNL     1     -11.744   6.452  70.108  1.00  0.00    -0.372 C  
HETATM   15  C   UNL     1     -10.199   6.488  70.040  1.00  0.00    -0.184 C  
HETATM   16  O   UNL     1     -10.739   6.184  67.192  1.00  0.00    -0.268 OA 
HETATM   17  N   UNL     1      -9.711   5.453  69.102  1.00  0.00    -0.147 N  
ENDROOT
BRANCH   7  18
HETATM   18  C   UNL     1     -11.223  11.306  69.047  1.00  0.00    -0.258 C  
HETATM   19  H   UNL     1      -9.897  12.771  69.728  1.00  0.00     0.000 HD 
HETATM   20  N   UNL     1     -10.817  12.593  69.327  1.00  0.00    -0.069 N  
HETATM   21  O   UNL     1     -12.351  11.098  68.607  1.00  0.00    -0.549 OA 
BRANCH  20  22
HETATM   22  C   UNL     1     -11.724  13.688  69.039  1.00  0.00    -0.333 C  
BRANCH  22  23
HETATM   23  C   UNL     1     -12.226  14.428  70.254  1.00  0.00    -0.397 A  
HETATM   24  C   UNL     1     -13.439  14.031  70.847  1.00  0.00    -0.096 A  
HETATM   25  C   UNL     1     -11.469  15.434  70.873  1.00  0.00    -0.396 A  
HETATM   26  C   UNL     1     -13.913  14.669  71.994  1.00  0.00    -0.581 A  
HETATM   27  C   UNL     1     -13.167  15.696  72.559  1.00  0.00    -0.497 A  
HETATM   28  C   UNL     1     -11.947  16.076  72.016  1.00  0.00    -0.622 A  
HETATM   29  F   UNL     1     -13.628  16.322  73.650  1.00  0.00    -0.619 F  
ENDBRANCH  22  23
ENDBRANCH  20  22
ENDBRANCH   7  18
BRANCH  12  30
HETATM   30  C   UNL     1      -9.638   4.078  67.157  1.00  0.00    -0.196 A  
HETATM   31  N   UNL     1      -9.312   2.972  67.803  1.00  0.00    -0.207 NA 
HETATM   32  C   UNL     1      -9.042   2.665  65.680  1.00  0.00    -0.121 A  
HETATM   33  N   UNL     1      -8.926   2.058  66.842  1.00  0.00    -0.127 NA 
HETATM   34  C   UNL     1      -8.739   2.163  64.326  1.00  0.00    -0.098 C  
HETATM   35  O   UNL     1      -9.498   3.954  65.795  1.00  0.00    -0.159 OA 
ENDBRANCH  12  30
TORSDOF 4
ENDMDL
MODEL       53
REMARK 921   NORMALIZED FREE ENERGY PREDICTED BY IDOCK:   -5.81 KCAL/MOL
REMARK 922        TOTAL FREE ENERGY PREDICTED BY IDOCK:   -7.99 KCAL/MOL
REMARK 923 INTER-LIGAND FREE ENERGY PREDICTED BY IDOCK:   -7.02 KCAL/MOL
REMARK 924 INTRA-LIGAND FREE ENERGY PREDICTED BY IDOCK:   -0.97 KCAL/MOL
REMARK 927      BINDING AFFINITY PREDICTED BY RF-SCORE:    0.00 PKD
ROOT
HETATM    1  C   UNL     1     -11.674  11.619  67.191  1.00  0.00    -0.133 C  
HETATM    2  N   UNL     1     -10.674  12.668  67.046  1.00  0.00    -0.243 N  
HETATM    3  C   UNL     1     -11.187  13.948  67.087  1.00  0.00    -0.313 C  
HETATM    4  O   UNL     1     -12.381  14.239  67.187  1.00  0.00    -0.360 OA 
HETATM    5  C   UNL     1     -10.237  15.064  66.997  1.00  0.00    -0.257 C  
HETATM    6  O   UNL     1     -10.774  16.336  67.099  1.00  0.00    -0.309 OA 
HETATM    7  C   UNL     1      -8.947  14.758  66.813  1.00  0.00    -0.266 C  
HETATM    8  N   UNL     1      -8.476  13.457  66.706  1.00  0.00    -0.043 NA 
HETATM    9  H   UNL     1      -9.685   9.314  67.632  1.00  0.00     0.000 HD 
HETATM   10  H   UNL     1     -10.159  17.058  67.040  1.00  0.00     0.000 HD 
HETATM   11  C   UNL     1      -9.316  12.462  66.830  1.00  0.00    -0.220 C  
HETATM   12  C   UNL     1      -8.467  10.179  69.057  1.00  0.00    -0.151 C  
HETATM   13  C   UNL     1      -9.363  10.318  65.387  1.00  0.00    -0.258 C  
HETATM   14  C   UNL     1      -7.226  11.015  66.367  1.00  0.00    -0.127 C  
HETATM   15  C   UNL     1      -8.747  10.973  66.647  1.00  0.00    -0.160 C  
HETATM   16  O   UNL     1      -7.816  11.160  69.402  1.00  0.00    -0.063 OA 
HETATM   17  N   UNL     1      -9.025  10.076  67.789  1.00  0.00    -0.131 N  
ENDROOT
BRANCH   7  18
HETATM   18  C   UNL     1      -7.981  15.939  66.747  1.00  0.00    -0.252 C  
HETATM   19  H   UNL     1      -6.719  15.045  68.153  1.00  0.00     0.000 HD 
HETATM   20  N   UNL     1      -6.854  15.843  67.532  1.00  0.00    -0.166 N  
HETATM   21  O   UNL     1      -8.156  16.927  66.038  1.00  0.00    -0.430 OA 
BRANCH  20  22
HETATM   22  C   UNL     1      -5.860  16.898  67.459  1.00  0.00    -0.143 C  
BRANCH  22  23
HETATM   23  C   UNL     1      -5.845  17.835  68.640  1.00  0.00    -0.182 A  
HETATM   24  C   UNL     1      -5.266  17.406  69.849  1.00  0.00    -0.200 A  
HETATM   25  C   UNL     1      -6.297  19.160  68.540  1.00  0.00    -0.260 A  
HETATM   26  C   UNL     1      -5.201  18.263  70.950  1.00  0.00    -0.275 A  
HETATM   27  C   UNL     1      -5.702  19.554  70.839  1.00  0.00    -0.204 A  
HETATM   28  C   UNL     1      -6.238  20.012  69.643  1.00  0.00    -0.383 A  
HETATM   29  F   UNL     1      -5.657  20.372  71.899  1.00  0.00    -0.368 F  
ENDBRANCH  22  23
ENDBRANCH  20  22
ENDBRANCH   7  18
BRANCH  12  30
HETATM   30  C   UNL     1      -8.735   9.027  69.911  1.00  0.00    -0.156 A  
HETATM   31  N   UNL     1      -8.771   7.767  69.515  1.00  0.00    -0.135 NA 
HETATM   32  C   UNL     1      -9.204   7.864  71.630  1.00  0.00    -0.141 A  
HETATM   33  N   UNL     1      -9.076   7.016  70.632  1.00  0.00    -0.158 NA 
HETATM   34  C   UNL     1      -9.550   7.606  73.042  1.00  0.00    -0.292 C  
HETATM   35  O   UNL     1      -8.994   9.167  71.253  1.00  0.00    -0.237 OA 
ENDBRANCH  12  30
TORSDOF 4
ENDMDL
MODEL       54
REMARK 921   NORMALIZED FREE ENERGY PREDICTED BY IDOCK:   -5.81 KCAL/MOL
REMARK 922        TOTAL FREE ENERGY PREDICTED BY IDOCK:   -7.99 KCAL/MOL
REMARK 923 INTER-LIGAND FREE ENERGY PREDICTED BY IDOCK:   -7.16 KCAL/MOL
REMARK 924 INTRA-LIGAND FREE ENERGY PREDICTED BY IDOCK:   -0.82 KCAL/MOL
REMARK 927      BINDING AFFINITY PREDICTED BY RF-SCORE:    0.00 PKD
ROOT
HETATM    1  C   UNL     1      -7.255   8.351  71.046  1.00  0.00    -0.063 C  
HETATM    2  N   UNL     1      -8.203   9.201  70.339  1.00  0.00    -0.151 N  
HETATM    3  C   UNL     1      -7.616  10.200  69.589  1.00  0.00    -0.156 C  
HETATM    4  O   UNL     1      -6.408  10.431  69.522  1.00  0.00    -0.047 OA 
HETATM    5  C   UNL     1      -8.502  11.071  68.806  1.00  0.00    -0.144 C  
HETATM    6  O   UNL     1      -7.884  12.026  68.019  1.00  0.00    -0.126 OA 
HETATM    7  C   UNL     1      -9.821  10.875  68.930  1.00  0.00    -0.192 C  
HETATM    8  N   UNL     1     -10.378   9.904  69.750  1.00  0.00    -0.229 NA 
HETATM    9  H   UNL     1      -9.277   6.170  71.832  1.00  0.00     0.000 HD 
HETATM   10  H   UNL     1      -8.457  12.590  67.512  1.00  0.00     0.000 HD 
HETATM   11  C   UNL     1      -9.587   9.100  70.414  1.00  0.00    -0.224 C  
HETATM   12  C   UNL     1     -10.198   5.882  70.007  1.00  0.00    -0.224 C  
HETATM   13  C   UNL     1      -9.897   8.339  72.865  1.00  0.00    -0.303 C  
HETATM   14  C   UNL     1     -11.804   8.147  71.336  1.00  0.00    -0.329 C  
HETATM   15  C   UNL     1     -10.263   8.025  71.394  1.00  0.00    -0.196 C  
HETATM   16  O   UNL     1     -10.728   6.393  69.024  1.00  0.00    -0.226 OA 
HETATM   17  N   UNL     1      -9.858   6.627  71.129  1.00  0.00    -0.181 N  
ENDROOT
BRANCH   7  18
HETATM   18  C   UNL     1     -10.714  11.780  68.086  1.00  0.00    -0.214 C  
HETATM   19  H   UNL     1     -10.964  13.104  69.684  1.00  0.00     0.000 HD 
HETATM   20  N   UNL     1     -11.176  12.922  68.703  1.00  0.00    -0.263 N  
HETATM   21  O   UNL     1     -11.014  11.548  66.916  1.00  0.00    -0.269 OA 
BRANCH  20  22
HETATM   22  C   UNL     1     -11.969  13.860  67.931  1.00  0.00    -0.358 C  
BRANCH  22  23
HETATM   23  C   UNL     1     -11.225  15.089  67.473  1.00  0.00    -0.333 A  
HETATM   24  C   UNL     1     -11.258  16.249  68.270  1.00  0.00    -0.324 A  
HETATM   25  C   UNL     1     -10.413  15.079  66.328  1.00  0.00    -0.309 A  
HETATM   26  C   UNL     1     -10.548  17.391  67.893  1.00  0.00    -0.383 A  
HETATM   27  C   UNL     1      -9.792  17.370  66.728  1.00  0.00    -0.296 A  
HETATM   28  C   UNL     1      -9.710  16.224  65.950  1.00  0.00    -0.354 A  
HETATM   29  F   UNL     1      -9.125  18.470  66.356  1.00  0.00    -0.282 F  
ENDBRANCH  22  23
ENDBRANCH  20  22
ENDBRANCH   7  18
BRANCH  12  30
HETATM   30  C   UNL     1      -9.864   4.467  70.120  1.00  0.00    -0.226 A  
HETATM   31  N   UNL     1      -9.563   3.665  69.114  1.00  0.00    -0.157 NA 
HETATM   32  C   UNL     1      -9.515   2.544  70.962  1.00  0.00    -0.152 A  
HETATM   33  N   UNL     1      -9.337   2.418  69.664  1.00  0.00    -0.118 NA 
HETATM   34  C   UNL     1      -9.426   1.522  72.024  1.00  0.00    -0.157 C  
HETATM   35  O   UNL     1      -9.846   3.823  71.334  1.00  0.00    -0.175 OA 
ENDBRANCH  12  30
TORSDOF 4
ENDMDL
MODEL       55
REMARK 921   NORMALIZED FREE ENERGY PREDICTED BY IDOCK:   -5.75 KCAL/MOL
REMARK 922        TOTAL FREE ENERGY PREDICTED BY IDOCK:   -7.91 KCAL/MOL
REMARK 923 INTER-LIGAND FREE ENERGY PREDICTED BY IDOCK:   -6.96 KCAL/MOL
REMARK 924 INTRA-LIGAND FREE ENERGY PREDICTED BY IDOCK:   -0.95 KCAL/MOL
REMARK 927      BINDING AFFINITY PREDICTED BY RF-SCORE:    0.00 PKD
ROOT
HETATM    1  C   UNL     1     -10.439  10.734  65.085  1.00  0.00    -0.229 C  
HETATM    2  N   UNL     1      -9.943  11.983  65.646  1.00  0.00    -0.242 N  
HETATM    3  C   UNL     1     -10.622  13.105  65.219  1.00  0.00    -0.313 C  
HETATM    4  O   UNL     1     -11.543  13.117  64.400  1.00  0.00    -0.343 OA 
HETATM    5  C   UNL     1     -10.214  14.400  65.777  1.00  0.00    -0.337 C  
HETATM    6  O   UNL     1     -10.950  15.501  65.376  1.00  0.00    -0.352 OA 
HETATM    7  C   UNL     1      -9.166  14.406  66.611  1.00  0.00    -0.261 C  
HETATM    8  N   UNL     1      -8.461  13.264  66.963  1.00  0.00    -0.171 NA 
HETATM    9  H   UNL     1      -8.891   8.870  66.980  1.00  0.00     0.000 HD 
HETATM   10  H   UNL     1     -10.686  16.339  65.737  1.00  0.00     0.000 HD 
HETATM   11  C   UNL     1      -8.852  12.104  66.500  1.00  0.00    -0.151 C  
HETATM   12  C   UNL     1      -9.334   9.771  68.784  1.00  0.00    -0.150 C  
HETATM   13  C   UNL     1      -7.318  10.220  65.617  1.00  0.00    -0.149 C  
HETATM   14  C   UNL     1      -6.802  11.217  67.797  1.00  0.00    -0.073 C  
HETATM   15  C   UNL     1      -7.983  10.812  66.884  1.00  0.00    -0.133 C  
HETATM   16  O   UNL     1      -9.399  10.812  69.431  1.00  0.00    -0.131 OA 
HETATM   17  N   UNL     1      -8.762   9.727  67.519  1.00  0.00    -0.125 N  
ENDROOT
BRANCH   7  18
HETATM   18  C   UNL     1      -8.781  15.764  67.193  1.00  0.00    -0.205 C  
HETATM   19  H   UNL     1      -6.778  15.471  66.672  1.00  0.00     0.000 HD 
HETATM   20  N   UNL     1      -7.455  16.118  67.078  1.00  0.00    -0.208 N  
HETATM   21  O   UNL     1      -9.580  16.531  67.726  1.00  0.00    -0.229 OA 
BRANCH  20  22
HETATM   22  C   UNL     1      -7.039  17.427  67.546  1.00  0.00    -0.163 C  
BRANCH  22  23
HETATM   23  C   UNL     1      -6.743  18.423  66.453  1.00  0.00    -0.246 A  
HETATM   24  C   UNL     1      -5.871  18.059  65.410  1.00  0.00    -0.140 A  
HETATM   25  C   UNL     1      -7.392  19.666  66.389  1.00  0.00    -0.266 A  
HETATM   26  C   UNL     1      -5.606  18.944  64.363  1.00  0.00    -0.288 A  
HETATM   27  C   UNL     1      -6.223  20.188  64.350  1.00  0.00    -0.255 A  
HETATM   28  C   UNL     1      -7.120  20.552  65.346  1.00  0.00    -0.142 A  
HETATM   29  F   UNL     1      -5.957  21.046  63.356  1.00  0.00    -0.268 F  
ENDBRANCH  22  23
ENDBRANCH  20  22
ENDBRANCH   7  18
BRANCH  12  30
HETATM   30  C   UNL     1      -9.837   8.483  69.246  1.00  0.00    -0.185 A  
HETATM   31  N   UNL     1      -9.525   7.306  68.732  1.00  0.00    -0.143 NA 
HETATM   32  C   UNL     1     -10.929   7.029  70.352  1.00  0.00    -0.268 A  
HETATM   33  N   UNL     1     -10.235   6.366  69.452  1.00  0.00    -0.182 NA 
HETATM   34  C   UNL     1     -11.876   6.524  71.366  1.00  0.00    -0.384 C  
HETATM   35  O   UNL     1     -10.724   8.385  70.291  1.00  0.00    -0.227 OA 
ENDBRANCH  12  30
TORSDOF 4
ENDMDL
MODEL       56
REMARK 921   NORMALIZED FREE ENERGY PREDICTED BY IDOCK:   -5.73 KCAL/MOL
REMARK 922        TOTAL FREE ENERGY PREDICTED BY IDOCK:   -7.89 KCAL/MOL
REMARK 923 INTER-LIGAND FREE ENERGY PREDICTED BY IDOCK:   -8.14 KCAL/MOL
REMARK 924 INTRA-LIGAND FREE ENERGY PREDICTED BY IDOCK:    0.25 KCAL/MOL
REMARK 927      BINDING AFFINITY PREDICTED BY RF-SCORE:    0.00 PKD
ROOT
HETATM    1  C   UNL     1     -10.439  12.580  65.087  1.00  0.00    -0.293 C  
HETATM    2  N   UNL     1     -10.855  12.048  66.378  1.00  0.00    -0.266 N  
HETATM    3  C   UNL     1     -10.692  10.684  66.506  1.00  0.00    -0.151 C  
HETATM    4  O   UNL     1     -10.282   9.924  65.625  1.00  0.00    -0.269 OA 
HETATM    5  C   UNL     1     -11.043  10.075  67.795  1.00  0.00    -0.180 C  
HETATM    6  O   UNL     1     -10.815   8.715  67.914  1.00  0.00    -0.466 OA 
HETATM    7  C   UNL     1     -11.559  10.880  68.733  1.00  0.00    -0.309 C  
HETATM    8  N   UNL     1     -11.775  12.238  68.543  1.00  0.00    -0.317 NA 
HETATM    9  H   UNL     1     -10.519  15.545  65.903  1.00  0.00     0.000 HD 
HETATM   10  H   UNL     1     -11.042   8.322  68.749  1.00  0.00     0.000 HD 
HETATM   11  C   UNL     1     -11.422  12.788  67.409  1.00  0.00    -0.340 C  
HETATM   12  C   UNL     1      -9.476  15.440  67.682  1.00  0.00    -0.205 C  
HETATM   13  C   UNL     1     -12.779  14.539  66.077  1.00  0.00    -0.000 C  
HETATM   14  C   UNL     1     -12.408  14.927  68.470  1.00  0.00     0.059 C  
HETATM   15  C   UNL     1     -11.734  14.347  67.203  1.00  0.00    -0.400 C  
HETATM   16  O   UNL     1      -9.327  14.872  68.760  1.00  0.00    -0.193 OA 
HETATM   17  N   UNL     1     -10.550  15.158  66.847  1.00  0.00    -0.291 N  
ENDROOT
BRANCH   7  18
HETATM   18  C   UNL     1     -11.891  10.223  70.070  1.00  0.00    -0.228 C  
HETATM   19  H   UNL     1     -10.944   8.452  69.488  1.00  0.00     0.000 HD 
HETATM   20  N   UNL     1     -11.430   8.936  70.243  1.00  0.00    -0.171 N  
HETATM   21  O   UNL     1     -12.515  10.780  70.970  1.00  0.00    -0.349 OA 
BRANCH  20  22
HETATM   22  C   UNL     1     -11.648   8.283  71.521  1.00  0.00    -0.279 C  
BRANCH  22  23
HETATM   23  C   UNL     1     -10.396   8.032  72.324  1.00  0.00    -0.336 A  
HETATM   24  C   UNL     1     -10.465   7.211  73.465  1.00  0.00    -0.422 A  
HETATM   25  C   UNL     1      -9.143   8.508  71.908  1.00  0.00    -0.314 A  
HETATM   26  C   UNL     1      -9.318   6.928  74.207  1.00  0.00    -0.269 A  
HETATM   27  C   UNL     1      -8.097   7.453  73.802  1.00  0.00    -0.125 A  
HETATM   28  C   UNL     1      -7.998   8.229  72.656  1.00  0.00    -0.193 A  
HETATM   29  F   UNL     1      -6.998   7.196  74.523  1.00  0.00    -0.094 F  
ENDBRANCH  22  23
ENDBRANCH  20  22
ENDBRANCH   7  18
BRANCH  12  30
HETATM   30  C   UNL     1      -8.571  16.452  67.153  1.00  0.00    -0.181 A  
HETATM   31  N   UNL     1      -8.400  16.739  65.874  1.00  0.00    -0.441 NA 
HETATM   32  C   UNL     1      -7.098  17.987  67.067  1.00  0.00    -0.195 A  
HETATM   33  N   UNL     1      -7.445  17.735  65.822  1.00  0.00    -0.541 NA 
HETATM   34  C   UNL     1      -6.100  18.941  67.587  1.00  0.00    -0.200 C  
HETATM   35  O   UNL     1      -7.778  17.215  67.976  1.00  0.00    -0.180 OA 
ENDBRANCH  12  30
TORSDOF 4
ENDMDL
MODEL       57
REMARK 921   NORMALIZED FREE ENERGY PREDICTED BY IDOCK:   -5.72 KCAL/MOL
REMARK 922        TOTAL FREE ENERGY PREDICTED BY IDOCK:   -7.87 KCAL/MOL
REMARK 923 INTER-LIGAND FREE ENERGY PREDICTED BY IDOCK:   -7.47 KCAL/MOL
REMARK 924 INTRA-LIGAND FREE ENERGY PREDICTED BY IDOCK:   -0.40 KCAL/MOL
REMARK 927      BINDING AFFINITY PREDICTED BY RF-SCORE:    0.00 PKD
ROOT
HETATM    1  C   UNL     1     -10.506  12.922  63.871  1.00  0.00    -0.304 C  
HETATM    2  N   UNL     1     -10.406  11.901  64.905  1.00  0.00    -0.275 N  
HETATM    3  C   UNL     1      -9.907  10.694  64.460  1.00  0.00    -0.327 C  
HETATM    4  O   UNL     1      -9.602  10.429  63.296  1.00  0.00    -0.302 OA 
HETATM    5  C   UNL     1      -9.728   9.626  65.452  1.00  0.00    -0.295 C  
HETATM    6  O   UNL     1      -9.172   8.446  64.990  1.00  0.00    -0.402 OA 
HETATM    7  C   UNL     1     -10.127   9.879  66.705  1.00  0.00    -0.233 C  
HETATM    8  N   UNL     1     -10.691  11.084  67.101  1.00  0.00    -0.250 NA 
HETATM    9  H   UNL     1     -11.026  15.282  65.776  1.00  0.00     0.000 HD 
HETATM   10  H   UNL     1      -9.057   7.755  65.632  1.00  0.00     0.000 HD 
HETATM   11  C   UNL     1     -10.810  12.050  66.227  1.00  0.00    -0.279 C  
HETATM   12  C   UNL     1      -9.526  14.946  67.154  1.00  0.00    -0.225 C  
HETATM   13  C   UNL     1     -12.851  13.611  65.948  1.00  0.00    -0.328 C  
HETATM   14  C   UNL     1     -11.916  13.307  68.194  1.00  0.00    -0.340 C  
HETATM   15  C   UNL     1     -11.515  13.410  66.703  1.00  0.00    -0.344 C  
HETATM   16  O   UNL     1      -8.951  14.141  67.881  1.00  0.00    -0.171 OA 
HETATM   17  N   UNL     1     -10.698  14.623  66.483  1.00  0.00    -0.306 N  
ENDROOT
BRANCH   7  18
HETATM   18  C   UNL     1      -9.906   8.758  67.718  1.00  0.00    -0.174 C  
HETATM   19  H   UNL     1      -7.906   8.567  67.140  1.00  0.00     0.000 HD 
HETATM   20  N   UNL     1      -8.631   8.242  67.780  1.00  0.00    -0.130 N  
HETATM   21  O   UNL     1     -10.783   8.326  68.462  1.00  0.00    -0.142 OA 
BRANCH  20  22
HETATM   22  C   UNL     1      -8.338   7.226  68.774  1.00  0.00    -0.129 C  
BRANCH  22  23
HETATM   23  C   UNL     1      -7.668   7.738  70.023  1.00  0.00    -0.091 A  
HETATM   24  C   UNL     1      -7.879   7.067  71.242  1.00  0.00    -0.099 A  
HETATM   25  C   UNL     1      -6.755   8.804  69.989  1.00  0.00    -0.039 A  
HETATM   26  C   UNL     1      -7.243   7.493  72.409  1.00  0.00    -0.075 A  
HETATM   27  C   UNL     1      -6.383   8.582  72.357  1.00  0.00    -0.080 A  
HETATM   28  C   UNL     1      -6.125   9.233  71.158  1.00  0.00    -0.071 A  
HETATM   29  F   UNL     1      -5.785   9.004  73.479  1.00  0.00    -0.103 F  
ENDBRANCH  22  23
ENDBRANCH  20  22
ENDBRANCH   7  18
BRANCH  12  30
HETATM   30  C   UNL     1      -9.064  16.306  66.906  1.00  0.00    -0.220 A  
HETATM   31  N   UNL     1      -9.245  16.989  65.790  1.00  0.00    -0.521 NA 
HETATM   32  C   UNL     1      -8.124  18.195  67.191  1.00  0.00    -0.221 A  
HETATM   33  N   UNL     1      -8.634  18.213  65.978  1.00  0.00    -0.511 NA 
HETATM   34  C   UNL     1      -7.344  19.231  67.896  1.00  0.00    -0.289 C  
HETATM   35  O   UNL     1      -8.362  17.016  67.852  1.00  0.00    -0.194 OA 
ENDBRANCH  12  30
TORSDOF 4
ENDMDL
MODEL       58
REMARK 921   NORMALIZED FREE ENERGY PREDICTED BY IDOCK:   -5.71 KCAL/MOL
REMARK 922        TOTAL FREE ENERGY PREDICTED BY IDOCK:   -7.86 KCAL/MOL
REMARK 923 INTER-LIGAND FREE ENERGY PREDICTED BY IDOCK:   -7.30 KCAL/MOL
REMARK 924 INTRA-LIGAND FREE ENERGY PREDICTED BY IDOCK:   -0.56 KCAL/MOL
REMARK 927      BINDING AFFINITY PREDICTED BY RF-SCORE:    0.00 PKD
ROOT
HETATM    1  C   UNL     1     -10.895   9.358  67.547  1.00  0.00    -0.138 C  
HETATM    2  N   UNL     1     -10.072  10.555  67.654  1.00  0.00    -0.173 N  
HETATM    3  C   UNL     1     -10.748  11.731  67.400  1.00  0.00    -0.236 C  
HETATM    4  O   UNL     1     -11.929  11.820  67.061  1.00  0.00    -0.610 OA 
HETATM    5  C   UNL     1     -10.000  12.987  67.534  1.00  0.00    -0.212 C  
HETATM    6  O   UNL     1     -10.717  14.153  67.330  1.00  0.00    -0.275 OA 
HETATM    7  C   UNL     1      -8.697  12.897  67.829  1.00  0.00    -0.188 C  
HETATM    8  N   UNL     1      -8.034  11.691  68.009  1.00  0.00    -0.124 NA 
HETATM    9  H   UNL     1      -8.873   7.439  68.849  1.00  0.00     0.000 HD 
HETATM   10  H   UNL     1     -10.233  14.966  67.417  1.00  0.00     0.000 HD 
HETATM   11  C   UNL     1      -8.710  10.573  67.932  1.00  0.00    -0.126 C  
HETATM   12  C   UNL     1      -8.372   8.548  70.516  1.00  0.00    -0.135 C  
HETATM   13  C   UNL     1      -7.936   8.401  66.764  1.00  0.00    -0.098 C  
HETATM   14  C   UNL     1      -6.403   9.485  68.342  1.00  0.00    -0.052 C  
HETATM   15  C   UNL     1      -7.903   9.197  68.091  1.00  0.00    -0.099 C  
HETATM   16  O   UNL     1      -8.033   9.638  70.970  1.00  0.00    -0.301 OA 
HETATM   17  N   UNL     1      -8.429   8.307  69.150  1.00  0.00    -0.126 N  
ENDROOT
BRANCH   7  18
HETATM   18  C   UNL     1      -7.953  14.221  67.986  1.00  0.00    -0.142 C  
HETATM   19  H   UNL     1      -9.143  14.749  69.622  1.00  0.00     0.000 HD 
HETATM   20  N   UNL     1      -8.356  15.021  69.033  1.00  0.00    -0.186 N  
HETATM   21  O   UNL     1      -7.033  14.580  67.255  1.00  0.00    -0.214 OA 
BRANCH  20  22
HETATM   22  C   UNL     1      -7.639  16.258  69.281  1.00  0.00    -0.203 C  
BRANCH  22  23
HETATM   23  C   UNL     1      -8.298  17.493  68.721  1.00  0.00    -0.219 A  
HETATM   24  C   UNL     1      -7.504  18.610  68.400  1.00  0.00    -0.320 A  
HETATM   25  C   UNL     1      -9.667  17.526  68.413  1.00  0.00    -0.316 A  
HETATM   26  C   UNL     1      -8.078  19.755  67.845  1.00  0.00    -0.336 A  
HETATM   27  C   UNL     1      -9.444  19.780  67.595  1.00  0.00    -0.352 A  
HETATM   28  C   UNL     1     -10.240  18.674  67.864  1.00  0.00    -0.433 A  
HETATM   29  F   UNL     1     -10.000  20.884  67.079  1.00  0.00    -0.602 F  
ENDBRANCH  22  23
ENDBRANCH  20  22
ENDBRANCH   7  18
BRANCH  12  30
HETATM   30  C   UNL     1      -8.751   7.400  71.331  1.00  0.00    -0.125 A  
HETATM   31  N   UNL     1      -7.917   6.516  71.850  1.00  0.00    -0.103 NA 
HETATM   32  C   UNL     1      -9.946   5.977  72.369  1.00  0.00    -0.170 A  
HETATM   33  N   UNL     1      -8.696   5.595  72.523  1.00  0.00    -0.124 NA 
HETATM   34  C   UNL     1     -11.186   5.345  72.858  1.00  0.00    -0.372 C  
HETATM   35  O   UNL     1     -10.065   7.126  71.627  1.00  0.00    -0.185 OA 
ENDBRANCH  12  30
TORSDOF 4
ENDMDL
MODEL       59
REMARK 921   NORMALIZED FREE ENERGY PREDICTED BY IDOCK:   -5.71 KCAL/MOL
REMARK 922        TOTAL FREE ENERGY PREDICTED BY IDOCK:   -7.86 KCAL/MOL
REMARK 923 INTER-LIGAND FREE ENERGY PREDICTED BY IDOCK:   -6.96 KCAL/MOL
REMARK 924 INTRA-LIGAND FREE ENERGY PREDICTED BY IDOCK:   -0.90 KCAL/MOL
REMARK 927      BINDING AFFINITY PREDICTED BY RF-SCORE:    0.00 PKD
ROOT
HETATM    1  C   UNL     1      -9.776  17.667  69.701  1.00  0.00     0.471 C  
HETATM    2  N   UNL     1      -9.985  16.287  69.282  1.00  0.00    -0.257 N  
HETATM    3  C   UNL     1     -11.247  15.799  69.553  1.00  0.00    -0.317 C  
HETATM    4  O   UNL     1     -12.143  16.411  70.138  1.00  0.00     0.078 OA 
HETATM    5  C   UNL     1     -11.554  14.431  69.118  1.00  0.00    -0.307 C  
HETATM    6  O   UNL     1     -12.844  13.987  69.351  1.00  0.00    -0.299 OA 
HETATM    7  C   UNL     1     -10.564  13.731  68.549  1.00  0.00    -0.253 C  
HETATM    8  N   UNL     1      -9.284  14.233  68.355  1.00  0.00    -0.193 NA 
HETATM    9  H   UNL     1      -7.127  18.081  68.193  1.00  0.00     0.000 HD 
HETATM   10  H   UNL     1     -13.043  13.102  69.069  1.00  0.00     0.000 HD 
HETATM   11  C   UNL     1      -9.023  15.467  68.704  1.00  0.00    -0.191 C  
HETATM   12  C   UNL     1      -7.663  17.333  66.345  1.00  0.00    -0.311 C  
HETATM   13  C   UNL     1      -6.884  16.294  69.896  1.00  0.00     0.108 C  
HETATM   14  C   UNL     1      -6.637  14.885  67.905  1.00  0.00    -0.173 C  
HETATM   15  C   UNL     1      -7.521  15.997  68.517  1.00  0.00    -0.156 C  
HETATM   16  O   UNL     1      -8.189  16.422  65.712  1.00  0.00    -0.187 OA 
HETATM   17  N   UNL     1      -7.412  17.230  67.707  1.00  0.00    -0.173 N  
ENDROOT
BRANCH   7  18
HETATM   18  C   UNL     1     -10.921  12.321  68.085  1.00  0.00    -0.231 C  
HETATM   19  H   UNL     1      -9.319  11.513  69.158  1.00  0.00     0.000 HD 
HETATM   20  N   UNL     1     -10.126  11.306  68.569  1.00  0.00    -0.198 N  
HETATM   21  O   UNL     1     -11.863  12.064  67.338  1.00  0.00    -0.546 OA 
BRANCH  20  22
HETATM   22  C   UNL     1     -10.458   9.936  68.225  1.00  0.00    -0.210 C  
BRANCH  22  23
HETATM   23  C   UNL     1     -10.727   9.036  69.404  1.00  0.00    -0.202 A  
HETATM   24  C   UNL     1     -11.039   9.610  70.650  1.00  0.00    -0.384 A  
HETATM   25  C   UNL     1     -10.778   7.639  69.272  1.00  0.00    -0.169 A  
HETATM   26  C   UNL     1     -11.330   8.805  71.753  1.00  0.00    -0.409 A  
HETATM   27  C   UNL     1     -11.325   7.423  71.607  1.00  0.00    -0.256 A  
HETATM   28  C   UNL     1     -11.062   6.835  70.377  1.00  0.00    -0.357 A  
HETATM   29  F   UNL     1     -11.587   6.648  72.667  1.00  0.00    -0.281 F  
ENDBRANCH  22  23
ENDBRANCH  20  22
ENDBRANCH   7  18
BRANCH  12  30
HETATM   30  C   UNL     1      -7.249  18.605  65.767  1.00  0.00    -0.193 A  
HETATM   31  N   UNL     1      -7.749  19.789  66.072  1.00  0.00    -0.327 NA 
HETATM   32  C   UNL     1      -6.233  20.025  64.549  1.00  0.00    -0.261 A  
HETATM   33  N   UNL     1      -7.088  20.707  65.281  1.00  0.00    -0.099 NA 
HETATM   34  C   UNL     1      -5.292  20.502  63.517  1.00  0.00    -0.248 C  
HETATM   35  O   UNL     1      -6.268  18.677  64.806  1.00  0.00    -0.426 OA 
ENDBRANCH  12  30
TORSDOF 4
ENDMDL
MODEL       60
REMARK 921   NORMALIZED FREE ENERGY PREDICTED BY IDOCK:   -5.66 KCAL/MOL
REMARK 922        TOTAL FREE ENERGY PREDICTED BY IDOCK:   -7.80 KCAL/MOL
REMARK 923 INTER-LIGAND FREE ENERGY PREDICTED BY IDOCK:   -6.96 KCAL/MOL
REMARK 924 INTRA-LIGAND FREE ENERGY PREDICTED BY IDOCK:   -0.84 KCAL/MOL
REMARK 927      BINDING AFFINITY PREDICTED BY RF-SCORE:    0.00 PKD
ROOT
HETATM    1  C   UNL     1     -12.054  13.470  70.212  1.00  0.00    -0.355 C  
HETATM    2  N   UNL     1     -11.936  12.032  70.406  1.00  0.00    -0.337 N  
HETATM    3  C   UNL     1     -12.729  11.530  71.417  1.00  0.00    -0.364 C  
HETATM    4  O   UNL     1     -13.456  12.197  72.156  1.00  0.00    -0.494 OA 
HETATM    5  C   UNL     1     -12.704  10.080  71.645  1.00  0.00    -0.435 C  
HETATM    6  O   UNL     1     -13.552   9.598  72.627  1.00  0.00    -0.676 OA 
HETATM    7  C   UNL     1     -11.862   9.356  70.897  1.00  0.00    -0.294 C  
HETATM    8  N   UNL     1     -11.026   9.905  69.935  1.00  0.00    -0.264 NA 
HETATM    9  H   UNL     1     -10.565  13.573  67.522  1.00  0.00     0.000 HD 
HETATM   10  H   UNL     1     -13.536   8.660  72.774  1.00  0.00     0.000 HD 
HETATM   11  C   UNL     1     -11.079  11.192  69.703  1.00  0.00    -0.232 C  
HETATM   12  C   UNL     1     -11.522  12.029  66.541  1.00  0.00    -0.349 C  
HETATM   13  C   UNL     1      -9.058  12.756  69.315  1.00  0.00     0.957 C  
HETATM   14  C   UNL     1      -9.186  10.676  68.022  1.00  0.00    -0.148 C  
HETATM   15  C   UNL     1     -10.062  11.801  68.623  1.00  0.00    -0.189 C  
HETATM   16  O   UNL     1     -11.919  10.868  66.580  1.00  0.00     0.310 OA 
HETATM   17  N   UNL     1     -10.717  12.564  67.538  1.00  0.00    -0.222 N  
ENDROOT
BRANCH   7  18
HETATM   18  C   UNL     1     -11.877   7.849  71.140  1.00  0.00    -0.287 C  
HETATM   19  H   UNL     1      -9.937   7.907  71.917  1.00  0.00     0.000 HD 
HETATM   20  N   UNL     1     -10.746   7.318  71.720  1.00  0.00    -0.217 N  
HETATM   21  O   UNL     1     -12.828   7.121  70.864  1.00  0.00    -0.294 OA 
BRANCH  20  22
HETATM   22  C   UNL     1     -10.727   5.904  72.045  1.00  0.00    -0.233 C  
BRANCH  22  23
HETATM   23  C   UNL     1      -9.437   5.412  72.651  1.00  0.00    -0.162 A  
HETATM   24  C   UNL     1      -9.457   4.832  73.933  1.00  0.00    -0.131 A  
HETATM   25  C   UNL     1      -8.231   5.420  71.932  1.00  0.00    -0.119 A  
HETATM   26  C   UNL     1      -8.287   4.332  74.507  1.00  0.00    -0.090 A  
HETATM   27  C   UNL     1      -7.097   4.398  73.794  1.00  0.00    -0.067 A  
HETATM   28  C   UNL     1      -7.060   4.926  72.510  1.00  0.00    -0.077 A  
HETATM   29  F   UNL     1      -5.969   3.935  74.350  1.00  0.00    -0.015 F  
ENDBRANCH  22  23
ENDBRANCH  20  22
ENDBRANCH   7  18
BRANCH  12  30
HETATM   30  C   UNL     1     -11.838  12.970  65.474  1.00  0.00    -0.395 A  
HETATM   31  N   UNL     1     -12.451  12.674  64.341  1.00  0.00    -0.583 NA 
HETATM   32  C   UNL     1     -11.955  14.778  64.356  1.00  0.00    -0.417 A  
HETATM   33  N   UNL     1     -12.525  13.849  63.619  1.00  0.00    -0.805 NA 
HETATM   34  C   UNL     1     -11.737  16.208  64.059  1.00  0.00     0.335 C  
HETATM   35  O   UNL     1     -11.497  14.300  65.558  1.00  0.00    -0.316 OA 
ENDBRANCH  12  30
TORSDOF 4
ENDMDL
MODEL       61
REMARK 921   NORMALIZED FREE ENERGY PREDICTED BY IDOCK:   -5.66 KCAL/MOL
REMARK 922        TOTAL FREE ENERGY PREDICTED BY IDOCK:   -7.80 KCAL/MOL
REMARK 923 INTER-LIGAND FREE ENERGY PREDICTED BY IDOCK:   -7.00 KCAL/MOL
REMARK 924 INTRA-LIGAND FREE ENERGY PREDICTED BY IDOCK:   -0.80 KCAL/MOL
REMARK 927      BINDING AFFINITY PREDICTED BY RF-SCORE:    0.00 PKD
ROOT
HETATM    1  C   UNL     1     -11.319  14.902  65.705  1.00  0.00    -0.314 C  
HETATM    2  N   UNL     1     -10.522  13.789  66.203  1.00  0.00    -0.292 N  
HETATM    3  C   UNL     1     -10.748  12.595  65.551  1.00  0.00    -0.274 C  
HETATM    4  O   UNL     1     -11.573  12.413  64.653  1.00  0.00    -0.320 OA 
HETATM    5  C   UNL     1      -9.948  11.434  65.960  1.00  0.00    -0.231 C  
HETATM    6  O   UNL     1     -10.155  10.264  65.251  1.00  0.00    -0.303 OA 
HETATM    7  C   UNL     1      -9.103  11.603  66.985  1.00  0.00    -0.179 C  
HETATM    8  N   UNL     1      -8.953  12.804  67.665  1.00  0.00    -0.181 NA 
HETATM    9  H   UNL     1      -9.768  17.115  67.176  1.00  0.00     0.000 HD 
HETATM   10  H   UNL     1      -9.637   9.513  65.516  1.00  0.00     0.000 HD 
HETATM   11  C   UNL     1      -9.634  13.849  67.272  1.00  0.00    -0.243 C  
HETATM   12  C   UNL     1      -7.839  16.558  66.696  1.00  0.00    -0.285 C  
HETATM   13  C   UNL     1     -10.816  15.563  68.804  1.00  0.00    -0.256 C  
HETATM   14  C   UNL     1      -8.476  15.000  69.274  1.00  0.00    -0.167 C  
HETATM   15  C   UNL     1      -9.478  15.206  68.113  1.00  0.00    -0.201 C  
HETATM   16  O   UNL     1      -7.010  15.655  66.627  1.00  0.00    -0.135 OA 
HETATM   17  N   UNL     1      -9.075  16.376  67.302  1.00  0.00    -0.198 N  
ENDROOT
BRANCH   7  18
HETATM   18  C   UNL     1      -8.268  10.385  67.372  1.00  0.00    -0.117 C  
HETATM   19  H   UNL     1      -9.608   9.893  68.900  1.00  0.00     0.000 HD 
HETATM   20  N   UNL     1      -8.761   9.616  68.403  1.00  0.00    -0.119 N  
HETATM   21  O   UNL     1      -7.222  10.067  66.811  1.00  0.00    -0.089 OA 
BRANCH  20  22
HETATM   22  C   UNL     1      -8.053   8.403  68.769  1.00  0.00    -0.121 C  
BRANCH  22  23
HETATM   23  C   UNL     1      -8.583   7.144  68.131  1.00  0.00    -0.129 A  
HETATM   24  C   UNL     1      -7.764   6.001  68.083  1.00  0.00    -0.102 A  
HETATM   25  C   UNL     1      -9.907   7.047  67.676  1.00  0.00    -0.180 A  
HETATM   26  C   UNL     1      -8.239   4.808  67.534  1.00  0.00    -0.105 A  
HETATM   27  C   UNL     1      -9.538   4.753  67.045  1.00  0.00    -0.171 A  
HETATM   28  C   UNL     1     -10.378   5.856  67.121  1.00  0.00    -0.286 A  
HETATM   29  F   UNL     1      -9.990   3.615  66.502  1.00  0.00    -0.196 F  
ENDBRANCH  22  23
ENDBRANCH  20  22
ENDBRANCH   7  18
BRANCH  12  30
HETATM   30  C   UNL     1      -7.639  17.901  66.164  1.00  0.00    -0.260 A  
HETATM   31  N   UNL     1      -8.567  18.836  66.065  1.00  0.00    -0.484 NA 
HETATM   32  C   UNL     1      -6.701  19.595  65.282  1.00  0.00    -0.268 A  
HETATM   33  N   UNL     1      -7.955  19.933  65.493  1.00  0.00    -0.305 NA 
HETATM   34  C   UNL     1      -5.609  20.378  64.670  1.00  0.00    -0.240 C  
HETATM   35  O   UNL     1      -6.417  18.316  65.690  1.00  0.00    -0.249 OA 
ENDBRANCH  12  30
TORSDOF 4
ENDMDL
MODEL       62
REMARK 921   NORMALIZED FREE ENERGY PREDICTED BY IDOCK:   -5.64 KCAL/MOL
REMARK 922        TOTAL FREE ENERGY PREDICTED BY IDOCK:   -7.77 KCAL/MOL
REMARK 923 INTER-LIGAND FREE ENERGY PREDICTED BY IDOCK:   -6.82 KCAL/MOL
REMARK 924 INTRA-LIGAND FREE ENERGY PREDICTED BY IDOCK:   -0.95 KCAL/MOL
REMARK 927      BINDING AFFINITY PREDICTED BY RF-SCORE:    0.00 PKD
ROOT
HETATM    1  C   UNL     1      -7.531   5.305  68.016  1.00  0.00    -0.076 C  
HETATM    2  N   UNL     1      -7.846   6.522  67.280  1.00  0.00    -0.104 N  
HETATM    3  C   UNL     1      -7.887   6.360  65.911  1.00  0.00    -0.102 C  
HETATM    4  O   UNL     1      -7.641   5.315  65.304  1.00  0.00    -0.079 OA 
HETATM    5  C   UNL     1      -8.246   7.529  65.098  1.00  0.00    -0.120 C  
HETATM    6  O   UNL     1      -8.336   7.323  63.733  1.00  0.00    -0.356 OA 
HETATM    7  C   UNL     1      -8.443   8.687  65.742  1.00  0.00    -0.151 C  
HETATM    8  N   UNL     1      -8.324   8.828  67.117  1.00  0.00    -0.104 NA 
HETATM    9  H   UNL     1      -8.278   6.389  70.797  1.00  0.00     0.000 HD 
HETATM   10  H   UNL     1      -8.569   8.080  63.207  1.00  0.00     0.000 HD 
HETATM   11  C   UNL     1      -8.046   7.777  67.845  1.00  0.00    -0.126 C  
HETATM   12  C   UNL     1     -10.114   7.225  70.358  1.00  0.00    -0.192 C  
HETATM   13  C   UNL     1      -6.399   7.692  69.836  1.00  0.00    -0.027 C  
HETATM   14  C   UNL     1      -8.086   9.471  69.795  1.00  0.00    -0.143 C  
HETATM   15  C   UNL     1      -7.862   7.986  69.425  1.00  0.00    -0.113 C  
HETATM   16  O   UNL     1     -10.771   7.942  69.609  1.00  0.00    -0.244 OA 
HETATM   17  N   UNL     1      -8.733   7.123  70.254  1.00  0.00    -0.143 N  
ENDROOT
BRANCH   7  18
HETATM   18  C   UNL     1      -8.838   9.878  64.873  1.00  0.00    -0.193 C  
HETATM   19  H   UNL     1     -10.839   9.694  65.451  1.00  0.00     0.000 HD 
HETATM   20  N   UNL     1     -10.167  10.239  64.910  1.00  0.00    -0.281 N  
HETATM   21  O   UNL     1      -8.046  10.513  64.181  1.00  0.00    -0.129 OA 
BRANCH  20  22
HETATM   22  C   UNL     1     -10.593  11.408  64.164  1.00  0.00    -0.369 C  
BRANCH  22  23
HETATM   23  C   UNL     1     -10.975  12.594  65.013  1.00  0.00    -0.323 A  
HETATM   24  C   UNL     1     -11.574  12.377  66.268  1.00  0.00    -0.449 A  
HETATM   25  C   UNL     1     -10.656  13.908  64.634  1.00  0.00    -0.432 A  
HETATM   26  C   UNL     1     -11.904  13.453  67.094  1.00  0.00    -0.429 A  
HETATM   27  C   UNL     1     -11.622  14.746  66.674  1.00  0.00    -0.313 A  
HETATM   28  C   UNL     1     -10.993  14.982  65.459  1.00  0.00    -0.364 A  
HETATM   29  F   UNL     1     -11.954  15.781  67.457  1.00  0.00    -0.090 F  
ENDBRANCH  22  23
ENDBRANCH  20  22
ENDBRANCH   7  18
BRANCH  12  30
HETATM   30  C   UNL     1     -10.683   6.407  71.422  1.00  0.00    -0.245 A  
HETATM   31  N   UNL     1     -11.891   6.548  71.939  1.00  0.00    -0.324 NA 
HETATM   32  C   UNL     1     -10.869   4.927  72.941  1.00  0.00    -0.248 A  
HETATM   33  N   UNL     1     -12.008   5.587  72.924  1.00  0.00    -0.118 NA 
HETATM   34  C   UNL     1     -10.442   3.816  73.814  1.00  0.00    -0.268 C  
HETATM   35  O   UNL     1      -9.974   5.385  72.007  1.00  0.00    -0.174 OA 
ENDBRANCH  12  30
TORSDOF 4
ENDMDL
MODEL       63
REMARK 921   NORMALIZED FREE ENERGY PREDICTED BY IDOCK:   -5.62 KCAL/MOL
REMARK 922        TOTAL FREE ENERGY PREDICTED BY IDOCK:   -7.75 KCAL/MOL
REMARK 923 INTER-LIGAND FREE ENERGY PREDICTED BY IDOCK:   -6.91 KCAL/MOL
REMARK 924 INTRA-LIGAND FREE ENERGY PREDICTED BY IDOCK:   -0.84 KCAL/MOL
REMARK 927      BINDING AFFINITY PREDICTED BY RF-SCORE:    0.00 PKD
ROOT
HETATM    1  C   UNL     1      -8.445   7.207  70.467  1.00  0.00    -0.139 C  
HETATM    2  N   UNL     1      -8.944   8.184  69.509  1.00  0.00    -0.150 N  
HETATM    3  C   UNL     1      -8.566   9.484  69.779  1.00  0.00    -0.192 C  
HETATM    4  O   UNL     1      -7.907   9.852  70.753  1.00  0.00    -0.275 OA 
HETATM    5  C   UNL     1      -8.987  10.524  68.832  1.00  0.00    -0.172 C  
HETATM    6  O   UNL     1      -8.545  11.809  69.095  1.00  0.00    -0.360 OA 
HETATM    7  C   UNL     1      -9.766  10.145  67.811  1.00  0.00    -0.153 C  
HETATM    8  N   UNL     1     -10.185   8.837  67.611  1.00  0.00    -0.223 NA 
HETATM    9  H   UNL     1      -9.158   4.715  68.810  1.00  0.00     0.000 HD 
HETATM   10  H   UNL     1      -8.818  12.482  68.483  1.00  0.00     0.000 HD 
HETATM   11  C   UNL     1      -9.774   7.903  68.430  1.00  0.00    -0.160 C  
HETATM   12  C   UNL     1      -8.381   5.283  66.984  1.00  0.00    -0.107 C  
HETATM   13  C   UNL     1     -11.209   5.982  69.395  1.00  0.00    -0.397 C  
HETATM   14  C   UNL     1     -11.261   6.372  66.974  1.00  0.00    -0.274 C  
HETATM   15  C   UNL     1     -10.321   6.413  68.202  1.00  0.00    -0.192 C  
HETATM   16  O   UNL     1      -8.292   6.156  66.125  1.00  0.00    -0.117 OA 
HETATM   17  N   UNL     1      -9.257   5.395  68.056  1.00  0.00    -0.109 N  
ENDROOT
BRANCH   7  18
HETATM   18  C   UNL     1     -10.167  11.245  66.831  1.00  0.00    -0.219 C  
HETATM   19  H   UNL     1     -12.055  11.407  67.714  1.00  0.00     0.000 HD 
HETATM   20  N   UNL     1     -11.426  11.778  67.002  1.00  0.00    -0.319 N  
HETATM   21  O   UNL     1      -9.435  11.668  65.940  1.00  0.00    -0.223 OA 
BRANCH  20  22
HETATM   22  C   UNL     1     -11.839  12.877  66.150  1.00  0.00    -0.429 C  
BRANCH  22  23
HETATM   23  C   UNL     1     -11.484  14.248  66.669  1.00  0.00    -0.374 A  
HETATM   24  C   UNL     1     -11.669  14.534  68.035  1.00  0.00    -0.373 A  
HETATM   25  C   UNL     1     -10.875  15.214  65.853  1.00  0.00    -0.342 A  
HETATM   26  C   UNL     1     -11.313  15.780  68.555  1.00  0.00    -0.374 A  
HETATM   27  C   UNL     1     -10.759  16.736  67.714  1.00  0.00    -0.321 A  
HETATM   28  C   UNL     1     -10.527  16.461  66.373  1.00  0.00    -0.288 A  
HETATM   29  F   UNL     1     -10.434  17.939  68.207  1.00  0.00    -0.338 F  
ENDBRANCH  22  23
ENDBRANCH  20  22
ENDBRANCH   7  18
BRANCH  12  30
HETATM   30  C   UNL     1      -7.600   4.053  66.991  1.00  0.00    -0.084 A  
HETATM   31  N   UNL     1      -7.268   3.345  65.926  1.00  0.00    -0.066 NA 
HETATM   32  C   UNL     1      -6.496   2.375  67.697  1.00  0.00    -0.032 A  
HETATM   33  N   UNL     1      -6.552   2.258  66.387  1.00  0.00    -0.034 NA 
HETATM   34  C   UNL     1      -5.876   1.479  68.693  1.00  0.00    -0.023 C  
HETATM   35  O   UNL     1      -7.134   3.499  68.160  1.00  0.00    -0.050 OA 
ENDBRANCH  12  30
TORSDOF 4
ENDMDL
MODEL       64
REMARK 921   NORMALIZED FREE ENERGY PREDICTED BY IDOCK:   -5.61 KCAL/MOL
REMARK 922        TOTAL FREE ENERGY PREDICTED BY IDOCK:   -7.74 KCAL/MOL
REMARK 923 INTER-LIGAND FREE ENERGY PREDICTED BY IDOCK:   -6.87 KCAL/MOL
REMARK 924 INTRA-LIGAND FREE ENERGY PREDICTED BY IDOCK:   -0.87 KCAL/MOL
REMARK 927      BINDING AFFINITY PREDICTED BY RF-SCORE:    0.00 PKD
ROOT
HETATM    1  C   UNL     1     -11.549  12.273  69.935  1.00  0.00    -0.203 C  
HETATM    2  N   UNL     1     -11.230  10.856  69.815  1.00  0.00    -0.270 N  
HETATM    3  C   UNL     1     -11.878  10.051  70.728  1.00  0.00    -0.346 C  
HETATM    4  O   UNL     1     -12.634  10.442  71.620  1.00  0.00    -0.395 OA 
HETATM    5  C   UNL     1     -11.647   8.603  70.642  1.00  0.00    -0.200 C  
HETATM    6  O   UNL     1     -12.354   7.815  71.533  1.00  0.00    -0.302 OA 
HETATM    7  C   UNL     1     -10.770   8.176  69.726  1.00  0.00    -0.229 C  
HETATM    8  N   UNL     1     -10.082   9.024  68.869  1.00  0.00    -0.190 NA 
HETATM    9  H   UNL     1     -10.276  13.134  67.270  1.00  0.00     0.000 HD 
HETATM   10  H   UNL     1     -12.204   6.878  71.477  1.00  0.00     0.000 HD 
HETATM   11  C   UNL     1     -10.320  10.310  68.916  1.00  0.00    -0.204 C  
HETATM   12  C   UNL     1     -11.087  11.702  66.024  1.00  0.00    -0.270 C  
HETATM   13  C   UNL     1      -8.555  12.193  68.788  1.00  0.00     0.101 C  
HETATM   14  C   UNL     1      -8.497  10.425  67.090  1.00  0.00    -0.126 C  
HETATM   15  C   UNL     1      -9.469  11.266  67.951  1.00  0.00    -0.178 C  
HETATM   16  O   UNL     1     -11.324  10.513  65.832  1.00  0.00     0.336 OA 
HETATM   17  N   UNL     1     -10.293  12.132  67.079  1.00  0.00    -0.210 N  
ENDROOT
BRANCH   7  18
HETATM   18  C   UNL     1     -10.569   6.665  69.644  1.00  0.00    -0.234 C  
HETATM   19  H   UNL     1      -8.632   6.915  68.898  1.00  0.00     0.000 HD 
HETATM   20  N   UNL     1      -9.336   6.241  69.200  1.00  0.00    -0.131 N  
HETATM   21  O   UNL     1     -11.426   5.843  69.962  1.00  0.00    -0.300 OA 
BRANCH  20  22
HETATM   22  C   UNL     1      -9.057   4.817  69.171  1.00  0.00    -0.110 C  
BRANCH  22  23
HETATM   23  C   UNL     1      -9.152   4.183  67.806  1.00  0.00    -0.164 A  
HETATM   24  C   UNL     1      -8.734   2.850  67.637  1.00  0.00    -0.138 A  
HETATM   25  C   UNL     1      -9.744   4.848  66.721  1.00  0.00    -0.195 A  
HETATM   26  C   UNL     1      -8.845   2.221  66.396  1.00  0.00    -0.126 A  
HETATM   27  C   UNL     1      -9.389   2.919  65.325  1.00  0.00    -0.110 A  
HETATM   28  C   UNL     1      -9.848   4.220  65.479  1.00  0.00    -0.221 A  
HETATM   29  F   UNL     1      -9.480   2.323  64.129  1.00  0.00    -0.115 F  
ENDBRANCH  22  23
ENDBRANCH  20  22
ENDBRANCH   7  18
BRANCH  12  30
HETATM   30  C   UNL     1     -11.597  12.787  65.194  1.00  0.00    -0.338 A  
HETATM   31  N   UNL     1     -12.345  12.644  64.114  1.00  0.00    -0.532 NA 
HETATM   32  C   UNL     1     -11.963  14.745  64.446  1.00  0.00    -0.417 A  
HETATM   33  N   UNL     1     -12.581  13.916  63.632  1.00  0.00    -0.794 NA 
HETATM   34  C   UNL     1     -11.864  16.217  64.387  1.00  0.00     0.051 C  
HETATM   35  O   UNL     1     -11.318  14.103  65.473  1.00  0.00    -0.308 OA 
ENDBRANCH  12  30
TORSDOF 4
ENDMDL
MODEL       65
REMARK 921   NORMALIZED FREE ENERGY PREDICTED BY IDOCK:   -5.61 KCAL/MOL
REMARK 922        TOTAL FREE ENERGY PREDICTED BY IDOCK:   -7.74 KCAL/MOL
REMARK 923 INTER-LIGAND FREE ENERGY PREDICTED BY IDOCK:   -7.50 KCAL/MOL
REMARK 924 INTRA-LIGAND FREE ENERGY PREDICTED BY IDOCK:   -0.24 KCAL/MOL
REMARK 927      BINDING AFFINITY PREDICTED BY RF-SCORE:    0.00 PKD
ROOT
HETATM    1  C   UNL     1     -11.220  13.959  70.066  1.00  0.00     0.031 C  
HETATM    2  N   UNL     1     -11.012  12.599  69.589  1.00  0.00     0.097 N  
HETATM    3  C   UNL     1     -11.847  11.664  70.166  1.00  0.00    -0.344 C  
HETATM    4  O   UNL     1     -12.679  11.891  71.046  1.00  0.00    -0.342 OA 
HETATM    5  C   UNL     1     -11.735  10.275  69.702  1.00  0.00    -0.160 C  
HETATM    6  O   UNL     1     -12.623   9.369  70.256  1.00  0.00    -0.394 OA 
HETATM    7  C   UNL     1     -10.782  10.004  68.801  1.00  0.00    -0.223 C  
HETATM    8  N   UNL     1      -9.913  10.960  68.294  1.00  0.00    -0.170 NA 
HETATM    9  H   UNL     1      -9.526  15.340  67.900  1.00  0.00     0.000 HD 
HETATM   10  H   UNL     1     -12.550   8.471  69.956  1.00  0.00     0.000 HD 
HETATM   11  C   UNL     1     -10.042  12.205  68.674  1.00  0.00    -0.151 C  
HETATM   12  C   UNL     1     -10.284  14.403  66.223  1.00  0.00    -0.299 C  
HETATM   13  C   UNL     1      -8.116  13.825  69.267  1.00  0.00     0.418 C  
HETATM   14  C   UNL     1      -7.984  12.581  67.158  1.00  0.00    -0.140 C  
HETATM   15  C   UNL     1      -8.986  13.274  68.111  1.00  0.00    -0.195 C  
HETATM   16  O   UNL     1     -10.596  13.346  65.682  1.00  0.00    -0.272 OA 
HETATM   17  N   UNL     1      -9.605  14.435  67.435  1.00  0.00    -0.213 N  
ENDROOT
BRANCH   7  18
HETATM   18  C   UNL     1     -10.707   8.557  68.321  1.00  0.00    -0.036 C  
HETATM   19  H   UNL     1     -10.682   7.856  70.290  1.00  0.00     0.000 HD 
HETATM   20  N   UNL     1     -10.694   7.593  69.305  1.00  0.00    -0.200 N  
HETATM   21  O   UNL     1     -10.674   8.230  67.137  1.00  0.00    -0.302 OA 
BRANCH  20  22
HETATM   22  C   UNL     1     -10.698   6.196  68.913  1.00  0.00    -0.312 C  
BRANCH  22  23
HETATM   23  C   UNL     1     -10.338   5.230  70.013  1.00  0.00    -0.365 A  
HETATM   24  C   UNL     1     -10.714   5.525  71.337  1.00  0.00    -0.290 A  
HETATM   25  C   UNL     1      -9.731   3.994  69.743  1.00  0.00    -0.254 A  
HETATM   26  C   UNL     1     -10.430   4.633  72.373  1.00  0.00    -0.250 A  
HETATM   27  C   UNL     1      -9.783   3.438  72.085  1.00  0.00    -0.158 A  
HETATM   28  C   UNL     1      -9.441   3.106  70.781  1.00  0.00    -0.231 A  
HETATM   29  F   UNL     1      -9.494   2.589  73.079  1.00  0.00    -0.095 F  
ENDBRANCH  22  23
ENDBRANCH  20  22
ENDBRANCH   7  18
BRANCH  12  30
HETATM   30  C   UNL     1     -10.579  15.723  65.682  1.00  0.00    -0.377 A  
HETATM   31  N   UNL     1     -11.135  15.968  64.508  1.00  0.00    -0.590 NA 
HETATM   32  C   UNL     1     -10.698  17.841  65.495  1.00  0.00    -0.009 A  
HETATM   33  N   UNL     1     -11.210  17.341  64.391  1.00  0.00    -0.833 NA 
HETATM   34  C   UNL     1     -10.506  19.251  65.886  1.00  0.00    -0.534 C  
HETATM   35  O   UNL     1     -10.279  16.873  66.374  1.00  0.00    -0.302 OA 
ENDBRANCH  12  30
TORSDOF 4
ENDMDL
MODEL       66
REMARK 921   NORMALIZED FREE ENERGY PREDICTED BY IDOCK:   -5.61 KCAL/MOL
REMARK 922        TOTAL FREE ENERGY PREDICTED BY IDOCK:   -7.74 KCAL/MOL
REMARK 923 INTER-LIGAND FREE ENERGY PREDICTED BY IDOCK:   -6.98 KCAL/MOL
REMARK 924 INTRA-LIGAND FREE ENERGY PREDICTED BY IDOCK:   -0.76 KCAL/MOL
REMARK 927      BINDING AFFINITY PREDICTED BY RF-SCORE:    0.00 PKD
ROOT
HETATM    1  C   UNL     1     -11.131  16.554  65.089  1.00  0.00    -0.129 C  
HETATM    2  N   UNL     1     -10.917  15.210  65.607  1.00  0.00    -0.345 N  
HETATM    3  C   UNL     1     -11.442  14.209  64.815  1.00  0.00    -0.383 C  
HETATM    4  O   UNL     1     -12.085  14.377  63.778  1.00  0.00    -0.439 OA 
HETATM    5  C   UNL     1     -11.226  12.821  65.243  1.00  0.00    -0.293 C  
HETATM    6  O   UNL     1     -11.712  11.836  64.401  1.00  0.00    -0.300 OA 
HETATM    7  C   UNL     1     -10.593  12.629  66.408  1.00  0.00    -0.251 C  
HETATM    8  N   UNL     1     -10.141  13.665  67.214  1.00  0.00    -0.237 NA 
HETATM    9  H   UNL     1      -9.183  17.969  67.004  1.00  0.00     0.000 HD 
HETATM   10  H   UNL     1     -11.572  10.938  64.678  1.00  0.00     0.000 HD 
HETATM   11  C   UNL     1     -10.295  14.900  66.811  1.00  0.00    -0.269 C  
HETATM   12  C   UNL     1      -7.546  16.727  66.807  1.00  0.00    -0.248 C  
HETATM   13  C   UNL     1     -11.025  16.901  68.276  1.00  0.00    -0.298 C  
HETATM   14  C   UNL     1      -9.201  15.473  69.080  1.00  0.00    -0.246 C  
HETATM   15  C   UNL     1      -9.810  16.074  67.791  1.00  0.00    -0.231 C  
HETATM   16  O   UNL     1      -7.117  15.577  66.794  1.00  0.00    -0.174 OA 
HETATM   17  N   UNL     1      -8.853  17.019  67.174  1.00  0.00    -0.213 N  
ENDROOT
BRANCH   7  18
HETATM   18  C   UNL     1     -10.362  11.176  66.813  1.00  0.00    -0.241 C  
HETATM   19  H   UNL     1      -8.438  11.205  65.997  1.00  0.00     0.000 HD 
HETATM   20  N   UNL     1      -9.125  10.652  66.511  1.00  0.00    -0.159 N  
HETATM   21  O   UNL     1     -11.199  10.485  67.391  1.00  0.00    -0.313 OA 
BRANCH  20  22
HETATM   22  C   UNL     1      -8.817   9.299  66.936  1.00  0.00    -0.127 C  
BRANCH  22  23
HETATM   23  C   UNL     1      -8.001   8.498  65.953  1.00  0.00    -0.105 A  
HETATM   24  C   UNL     1      -6.833   7.850  66.396  1.00  0.00    -0.062 A  
HETATM   25  C   UNL     1      -8.428   8.293  64.631  1.00  0.00    -0.069 A  
HETATM   26  C   UNL     1      -6.077   7.069  65.520  1.00  0.00    -0.037 A  
HETATM   27  C   UNL     1      -6.495   6.923  64.204  1.00  0.00    -0.039 A  
HETATM   28  C   UNL     1      -7.666   7.518  63.755  1.00  0.00    -0.126 A  
HETATM   29  F   UNL     1      -5.761   6.189  63.357  1.00  0.00    -0.020 F  
ENDBRANCH  22  23
ENDBRANCH  20  22
ENDBRANCH   7  18
BRANCH  12  30
HETATM   30  C   UNL     1      -6.763  17.902  66.446  1.00  0.00    -0.237 A  
HETATM   31  N   UNL     1      -5.756  18.401  67.142  1.00  0.00    -0.138 NA 
HETATM   32  C   UNL     1      -6.086  19.621  65.389  1.00  0.00    -0.219 A  
HETATM   33  N   UNL     1      -5.320  19.515  66.454  1.00  0.00    -0.159 NA 
HETATM   34  C   UNL     1      -6.075  20.644  64.324  1.00  0.00    -0.351 C  
HETATM   35  O   UNL     1      -7.027  18.625  65.307  1.00  0.00    -0.523 OA 
ENDBRANCH  12  30
TORSDOF 4
ENDMDL
MODEL       67
REMARK 921   NORMALIZED FREE ENERGY PREDICTED BY IDOCK:   -5.60 KCAL/MOL
REMARK 922        TOTAL FREE ENERGY PREDICTED BY IDOCK:   -7.73 KCAL/MOL
REMARK 923 INTER-LIGAND FREE ENERGY PREDICTED BY IDOCK:   -6.84 KCAL/MOL
REMARK 924 INTRA-LIGAND FREE ENERGY PREDICTED BY IDOCK:   -0.89 KCAL/MOL
REMARK 927      BINDING AFFINITY PREDICTED BY RF-SCORE:    0.00 PKD
ROOT
HETATM    1  C   UNL     1      -8.996  14.511  66.673  1.00  0.00    -0.219 C  
HETATM    2  N   UNL     1      -9.808  13.905  67.720  1.00  0.00    -0.231 N  
HETATM    3  C   UNL     1     -10.883  14.672  68.118  1.00  0.00    -0.252 C  
HETATM    4  O   UNL     1     -11.156  15.798  67.696  1.00  0.00    -0.323 OA 
HETATM    5  C   UNL     1     -11.780  14.110  69.136  1.00  0.00    -0.327 C  
HETATM    6  O   UNL     1     -12.882  14.876  69.474  1.00  0.00    -0.552 OA 
HETATM    7  C   UNL     1     -11.449  12.920  69.654  1.00  0.00    -0.181 C  
HETATM    8  N   UNL     1     -10.319  12.208  69.279  1.00  0.00     0.128 NA 
HETATM    9  H   UNL     1      -7.367  11.989  66.004  1.00  0.00     0.000 HD 
HETATM   10  H   UNL     1     -13.462  14.512  70.132  1.00  0.00     0.000 HD 
HETATM   11  C   UNL     1      -9.544  12.689  68.341  1.00  0.00    -0.173 C  
HETATM   12  C   UNL     1      -8.904  10.618  65.852  1.00  0.00    -0.174 C  
HETATM   13  C   UNL     1      -6.959  12.686  68.348  1.00  0.00    -0.094 C  
HETATM   14  C   UNL     1      -8.127  10.585  68.831  1.00  0.00    -0.138 C  
HETATM   15  C   UNL     1      -8.217  11.868  67.970  1.00  0.00    -0.157 C  
HETATM   16  O   UNL     1      -9.925  10.150  66.348  1.00  0.00    -0.212 OA 
HETATM   17  N   UNL     1      -8.102  11.522  66.536  1.00  0.00    -0.147 N  
ENDROOT
BRANCH   7  18
HETATM   18  C   UNL     1     -12.413  12.351  70.692  1.00  0.00    -0.234 C  
HETATM   19  H   UNL     1     -12.064  10.404  70.017  1.00  0.00     0.000 HD 
HETATM   20  N   UNL     1     -12.549  10.981  70.705  1.00  0.00    -0.366 N  
HETATM   21  O   UNL     1     -13.037  13.040  71.496  1.00  0.00    -0.373 OA 
BRANCH  20  22
HETATM   22  C   UNL     1     -13.393  10.373  71.717  1.00  0.00    -0.354 C  
BRANCH  22  23
HETATM   23  C   UNL     1     -13.052   8.941  72.047  1.00  0.00    -0.454 A  
HETATM   24  C   UNL     1     -13.976   7.926  71.735  1.00  0.00    -0.483 A  
HETATM   25  C   UNL     1     -11.798   8.579  72.561  1.00  0.00    -0.398 A  
HETATM   26  C   UNL     1     -13.675   6.587  71.992  1.00  0.00     0.124 A  
HETATM   27  C   UNL     1     -12.445   6.260  72.548  1.00  0.00     0.154 A  
HETATM   28  C   UNL     1     -11.501   7.241  72.825  1.00  0.00    -0.273 A  
HETATM   29  F   UNL     1     -12.161   4.978  72.812  1.00  0.00    -0.280 F  
ENDBRANCH  22  23
ENDBRANCH  20  22
ENDBRANCH   7  18
BRANCH  12  30
HETATM   30  C   UNL     1      -8.417  10.297  64.516  1.00  0.00    -0.179 A  
HETATM   31  N   UNL     1      -9.086  10.473  63.390  1.00  0.00    -0.223 NA 
HETATM   32  C   UNL     1      -7.157   9.601  62.947  1.00  0.00    -0.109 A  
HETATM   33  N   UNL     1      -8.266  10.020  62.375  1.00  0.00    -0.133 NA 
HETATM   34  C   UNL     1      -5.957   8.997  62.337  1.00  0.00    -0.091 C  
HETATM   35  O   UNL     1      -7.172   9.751  64.312  1.00  0.00    -0.118 OA 
ENDBRANCH  12  30
TORSDOF 4
ENDMDL
MODEL       68
REMARK 921   NORMALIZED FREE ENERGY PREDICTED BY IDOCK:   -5.55 KCAL/MOL
REMARK 922        TOTAL FREE ENERGY PREDICTED BY IDOCK:   -7.67 KCAL/MOL
REMARK 923 INTER-LIGAND FREE ENERGY PREDICTED BY IDOCK:   -7.16 KCAL/MOL
REMARK 924 INTRA-LIGAND FREE ENERGY PREDICTED BY IDOCK:   -0.51 KCAL/MOL
REMARK 927      BINDING AFFINITY PREDICTED BY RF-SCORE:    0.00 PKD
ROOT
HETATM    1  C   UNL     1     -11.763  11.834  68.142  1.00  0.00    -0.307 C  
HETATM    2  N   UNL     1     -10.739  12.855  68.316  1.00  0.00    -0.236 N  
HETATM    3  C   UNL     1     -11.204  14.036  68.856  1.00  0.00    -0.272 C  
HETATM    4  O   UNL     1     -12.378  14.281  69.141  1.00  0.00    -0.277 OA 
HETATM    5  C   UNL     1     -10.225  15.100  69.109  1.00  0.00    -0.249 C  
HETATM    6  O   UNL     1     -10.709  16.252  69.704  1.00  0.00    -0.296 OA 
HETATM    7  C   UNL     1      -8.960  14.871  68.734  1.00  0.00    -0.188 C  
HETATM    8  N   UNL     1      -8.541  13.695  68.128  1.00  0.00    -0.170 NA 
HETATM    9  H   UNL     1      -9.830   9.510  67.570  1.00  0.00     0.000 HD 
HETATM   10  H   UNL     1     -10.075  16.940  69.868  1.00  0.00     0.000 HD 
HETATM   11  C   UNL     1      -9.406  12.730  67.942  1.00  0.00    -0.208 C  
HETATM   12  C   UNL     1      -8.494   9.785  69.121  1.00  0.00    -0.143 C  
HETATM   13  C   UNL     1      -9.618  11.261  65.826  1.00  0.00    -0.256 C  
HETATM   14  C   UNL     1      -7.401  11.534  66.836  1.00  0.00    -0.140 C  
HETATM   15  C   UNL     1      -8.901  11.406  67.190  1.00  0.00    -0.156 C  
HETATM   16  O   UNL     1      -7.789  10.568  69.751  1.00  0.00    -0.139 OA 
HETATM   17  N   UNL     1      -9.136  10.156  67.946  1.00  0.00    -0.131 N  
ENDROOT
BRANCH   7  18
HETATM   18  C   UNL     1      -7.961  15.986  69.032  1.00  0.00    -0.224 C  
HETATM   19  H   UNL     1      -8.917  17.267  67.686  1.00  0.00     0.000 HD 
HETATM   20  N   UNL     1      -8.167  17.177  68.370  1.00  0.00    -0.244 N  
HETATM   21  O   UNL     1      -7.025  15.874  69.821  1.00  0.00    -0.175 OA 
BRANCH  20  22
HETATM   22  C   UNL     1      -7.296  18.299  68.666  1.00  0.00    -0.290 C  
BRANCH  22  23
HETATM   23  C   UNL     1      -6.867  19.100  67.463  1.00  0.00    -0.224 A  
HETATM   24  C   UNL     1      -6.621  18.435  66.247  1.00  0.00    -0.255 A  
HETATM   25  C   UNL     1      -6.807  20.502  67.491  1.00  0.00    -0.360 A  
HETATM   26  C   UNL     1      -6.259  19.152  65.105  1.00  0.00    -0.317 A  
HETATM   27  C   UNL     1      -6.158  20.536  65.172  1.00  0.00    -0.254 A  
HETATM   28  C   UNL     1      -6.439  21.217  66.349  1.00  0.00    -0.280 A  
HETATM   29  F   UNL     1      -5.795  21.224  64.082  1.00  0.00    -0.274 F  
ENDBRANCH  22  23
ENDBRANCH  20  22
ENDBRANCH   7  18
BRANCH  12  30
HETATM   30  C   UNL     1      -8.746   8.404  69.515  1.00  0.00    -0.137 A  
HETATM   31  N   UNL     1      -7.879   7.410  69.436  1.00  0.00    -0.119 NA 
HETATM   32  C   UNL     1      -9.752   6.663  70.214  1.00  0.00    -0.171 A  
HETATM   33  N   UNL     1      -8.535   6.284  69.890  1.00  0.00    -0.128 NA 
HETATM   34  C   UNL     1     -10.879   5.861  70.728  1.00  0.00    -0.352 C  
HETATM   35  O   UNL     1      -9.964   8.004  70.011  1.00  0.00    -0.187 OA 
ENDBRANCH  12  30
TORSDOF 4
ENDMDL
MODEL       69
REMARK 921   NORMALIZED FREE ENERGY PREDICTED BY IDOCK:   -5.52 KCAL/MOL
REMARK 922        TOTAL FREE ENERGY PREDICTED BY IDOCK:   -7.63 KCAL/MOL
REMARK 923 INTER-LIGAND FREE ENERGY PREDICTED BY IDOCK:   -6.70 KCAL/MOL
REMARK 924 INTRA-LIGAND FREE ENERGY PREDICTED BY IDOCK:   -0.92 KCAL/MOL
REMARK 927      BINDING AFFINITY PREDICTED BY RF-SCORE:    0.00 PKD
ROOT
HETATM    1  C   UNL     1      -7.877   6.058  70.453  1.00  0.00    -0.106 C  
HETATM    2  N   UNL     1      -8.241   7.364  69.921  1.00  0.00    -0.130 N  
HETATM    3  C   UNL     1      -7.578   8.420  70.512  1.00  0.00    -0.074 C  
HETATM    4  O   UNL     1      -6.776   8.332  71.443  1.00  0.00    -0.047 OA 
HETATM    5  C   UNL     1      -7.852   9.768  69.998  1.00  0.00    -0.178 C  
HETATM    6  O   UNL     1      -7.131  10.801  70.570  1.00  0.00    -0.471 OA 
HETATM    7  C   UNL     1      -8.778   9.881  69.037  1.00  0.00    -0.151 C  
HETATM    8  N   UNL     1      -9.477   8.802  68.515  1.00  0.00    -0.144 NA 
HETATM    9  H   UNL     1      -9.235   4.403  68.243  1.00  0.00     0.000 HD 
HETATM   10  H   UNL     1      -7.308  11.674  70.237  1.00  0.00     0.000 HD 
HETATM   11  C   UNL     1      -9.201   7.596  68.942  1.00  0.00    -0.139 C  
HETATM   12  C   UNL     1      -8.516   5.394  66.581  1.00  0.00    -0.108 C  
HETATM   13  C   UNL     1     -10.918   5.740  69.481  1.00  0.00    -0.374 C  
HETATM   14  C   UNL     1     -11.094   6.901  67.328  1.00  0.00    -0.355 C  
HETATM   15  C   UNL     1     -10.065   6.378  68.357  1.00  0.00    -0.157 C  
HETATM   16  O   UNL     1      -8.320   6.470  66.024  1.00  0.00    -0.120 OA 
HETATM   17  N   UNL     1      -9.254   5.298  67.754  1.00  0.00    -0.110 N  
ENDROOT
BRANCH   7  18
HETATM   18  C   UNL     1      -9.023  11.292  68.507  1.00  0.00    -0.166 C  
HETATM   19  H   UNL     1     -11.060  11.157  68.957  1.00  0.00     0.000 HD 
HETATM   20  N   UNL     1     -10.316  11.757  68.600  1.00  0.00    -0.220 N  
HETATM   21  O   UNL     1      -8.143  12.007  68.032  1.00  0.00    -0.135 OA 
BRANCH  20  22
HETATM   22  C   UNL     1     -10.599  13.117  68.182  1.00  0.00    -0.245 C  
BRANCH  22  23
HETATM   23  C   UNL     1     -11.060  13.256  66.752  1.00  0.00    -0.313 A  
HETATM   24  C   UNL     1     -11.608  12.138  66.096  1.00  0.00    -0.418 A  
HETATM   25  C   UNL     1     -11.054  14.494  66.090  1.00  0.00    -0.334 A  
HETATM   26  C   UNL     1     -12.079  12.243  64.786  1.00  0.00    -0.436 A  
HETATM   27  C   UNL     1     -12.016  13.469  64.135  1.00  0.00    -0.448 A  
HETATM   28  C   UNL     1     -11.519  14.595  64.778  1.00  0.00    -0.410 A  
HETATM   29  F   UNL     1     -12.451  13.568  62.872  1.00  0.00    -0.521 F  
ENDBRANCH  22  23
ENDBRANCH  20  22
ENDBRANCH   7  18
BRANCH  12  30
HETATM   30  C   UNL     1      -8.011   4.114  66.100  1.00  0.00    -0.098 A  
HETATM   31  N   UNL     1      -8.665   2.966  66.134  1.00  0.00    -0.127 NA 
HETATM   32  C   UNL     1      -6.705   2.647  65.279  1.00  0.00    -0.039 A  
HETATM   33  N   UNL     1      -7.815   2.017  65.600  1.00  0.00    -0.072 NA 
HETATM   34  C   UNL     1      -5.459   2.112  64.696  1.00  0.00    -0.009 C  
HETATM   35  O   UNL     1      -6.753   3.990  65.559  1.00  0.00    -0.049 OA 
ENDBRANCH  12  30
TORSDOF 4
ENDMDL
MODEL       70
REMARK 921   NORMALIZED FREE ENERGY PREDICTED BY IDOCK:   -5.48 KCAL/MOL
REMARK 922        TOTAL FREE ENERGY PREDICTED BY IDOCK:   -7.58 KCAL/MOL
REMARK 923 INTER-LIGAND FREE ENERGY PREDICTED BY IDOCK:   -6.78 KCAL/MOL
REMARK 924 INTRA-LIGAND FREE ENERGY PREDICTED BY IDOCK:   -0.80 KCAL/MOL
REMARK 927      BINDING AFFINITY PREDICTED BY RF-SCORE:    0.00 PKD
ROOT
HETATM    1  C   UNL     1     -10.088  12.549  67.768  1.00  0.00    -0.218 C  
HETATM    2  N   UNL     1     -10.343  11.581  68.827  1.00  0.00    -0.207 N  
HETATM    3  C   UNL     1     -11.551  11.752  69.471  1.00  0.00    -0.332 C  
HETATM    4  O   UNL     1     -12.362  12.653  69.247  1.00  0.00    -0.102 OA 
HETATM    5  C   UNL     1     -11.906  10.786  70.518  1.00  0.00    -0.356 C  
HETATM    6  O   UNL     1     -13.148  10.947  71.107  1.00  0.00    -0.355 OA 
HETATM    7  C   UNL     1     -10.999   9.848  70.820  1.00  0.00    -0.337 C  
HETATM    8  N   UNL     1      -9.762   9.750  70.198  1.00  0.00    -0.254 NA 
HETATM    9  H   UNL     1      -7.676  11.084  66.543  1.00  0.00     0.000 HD 
HETATM   10  H   UNL     1     -13.377  10.322  71.785  1.00  0.00     0.000 HD 
HETATM   11  C   UNL     1      -9.464  10.583  69.234  1.00  0.00    -0.173 C  
HETATM   12  C   UNL     1      -8.458   9.176  66.423  1.00  0.00    -0.123 C  
HETATM   13  C   UNL     1      -7.187  11.753  68.881  1.00  0.00    -0.107 C  
HETATM   14  C   UNL     1      -7.207   9.327  69.232  1.00  0.00    -0.065 C  
HETATM   15  C   UNL     1      -8.006  10.476  68.575  1.00  0.00    -0.118 C  
HETATM   16  O   UNL     1      -9.060   8.269  66.990  1.00  0.00    -0.137 OA 
HETATM   17  N   UNL     1      -8.020  10.305  67.105  1.00  0.00    -0.113 N  
ENDROOT
BRANCH   7  18
HETATM   18  C   UNL     1     -11.406   8.844  71.896  1.00  0.00    -0.376 C  
HETATM   19  H   UNL     1      -9.423   8.231  72.141  1.00  0.00     0.000 HD 
HETATM   20  N   UNL     1     -10.382   8.123  72.469  1.00  0.00    -0.308 N  
HETATM   21  O   UNL     1     -12.565   8.672  72.268  1.00  0.00    -0.365 OA 
BRANCH  20  22
HETATM   22  C   UNL     1     -10.695   7.206  73.550  1.00  0.00    -0.333 C  
BRANCH  22  23
HETATM   23  C   UNL     1     -10.537   5.747  73.206  1.00  0.00    -0.279 A  
HETATM   24  C   UNL     1     -10.770   4.777  74.199  1.00  0.00    -0.329 A  
HETATM   25  C   UNL     1     -10.266   5.320  71.896  1.00  0.00    -0.264 A  
HETATM   26  C   UNL     1     -10.670   3.417  73.903  1.00  0.00    -0.297 A  
HETATM   27  C   UNL     1     -10.351   3.023  72.610  1.00  0.00    -0.133 A  
HETATM   28  C   UNL     1     -10.159   3.960  71.603  1.00  0.00    -0.167 A  
HETATM   29  F   UNL     1     -10.237   1.718  72.327  1.00  0.00    -0.192 F  
ENDBRANCH  22  23
ENDBRANCH  20  22
ENDBRANCH   7  18
BRANCH  12  30
HETATM   30  C   UNL     1      -8.137   9.190  65.002  1.00  0.00    -0.130 A  
HETATM   31  N   UNL     1      -9.005   9.344  64.017  1.00  0.00    -0.186 NA 
HETATM   32  C   UNL     1      -7.026   9.080  63.189  1.00  0.00    -0.089 A  
HETATM   33  N   UNL     1      -8.281   9.272  62.844  1.00  0.00    -0.163 NA 
HETATM   34  C   UNL     1      -5.834   8.906  62.335  1.00  0.00    -0.091 C  
HETATM   35  O   UNL     1      -6.849   9.024  64.549  1.00  0.00    -0.080 OA 
ENDBRANCH  12  30
TORSDOF 4
ENDMDL
MODEL       71
REMARK 921   NORMALIZED FREE ENERGY PREDICTED BY IDOCK:   -5.48 KCAL/MOL
REMARK 922        TOTAL FREE ENERGY PREDICTED BY IDOCK:   -7.57 KCAL/MOL
REMARK 923 INTER-LIGAND FREE ENERGY PREDICTED BY IDOCK:   -7.05 KCAL/MOL
REMARK 924 INTRA-LIGAND FREE ENERGY PREDICTED BY IDOCK:   -0.52 KCAL/MOL
REMARK 927      BINDING AFFINITY PREDICTED BY RF-SCORE:    0.00 PKD
ROOT
HETATM    1  C   UNL     1      -7.421   7.464  70.371  1.00  0.00    -0.085 C  
HETATM    2  N   UNL     1      -8.442   8.438  70.011  1.00  0.00    -0.123 N  
HETATM    3  C   UNL     1      -7.948   9.690  69.707  1.00  0.00    -0.151 C  
HETATM    4  O   UNL     1      -6.764  10.027  69.765  1.00  0.00    -0.062 OA 
HETATM    5  C   UNL     1      -8.910  10.716  69.287  1.00  0.00    -0.077 C  
HETATM    6  O   UNL     1      -8.380  11.945  68.933  1.00  0.00    -0.350 OA 
HETATM    7  C   UNL     1     -10.206  10.382  69.293  1.00  0.00    -0.230 C  
HETATM    8  N   UNL     1     -10.673   9.131  69.673  1.00  0.00    -0.230 NA 
HETATM    9  H   UNL     1      -9.245   4.991  70.225  1.00  0.00     0.000 HD 
HETATM   10  H   UNL     1      -9.003  12.610  68.661  1.00  0.00     0.000 HD 
HETATM   11  C   UNL     1      -9.813   8.203  70.006  1.00  0.00    -0.182 C  
HETATM   12  C   UNL     1     -10.149   5.338  68.402  1.00  0.00    -0.159 C  
HETATM   13  C   UNL     1     -10.041   6.551  71.981  1.00  0.00    -0.201 C  
HETATM   14  C   UNL     1     -11.934   6.796  70.443  1.00  0.00    -0.343 C  
HETATM   15  C   UNL     1     -10.388   6.787  70.491  1.00  0.00    -0.201 C  
HETATM   16  O   UNL     1     -10.726   6.137  67.670  1.00  0.00    -0.245 OA 
HETATM   17  N   UNL     1      -9.867   5.630  69.730  1.00  0.00    -0.172 N  
ENDROOT
BRANCH   7  18
HETATM   18  C   UNL     1     -11.179  11.462  68.827  1.00  0.00    -0.247 C  
HETATM   19  H   UNL     1     -10.372  11.423  66.899  1.00  0.00     0.000 HD 
HETATM   20  N   UNL     1     -11.090  11.827  67.502  1.00  0.00    -0.254 N  
HETATM   21  O   UNL     1     -12.017  11.988  69.556  1.00  0.00    -0.303 OA 
BRANCH  20  22
HETATM   22  C   UNL     1     -12.036  12.795  66.980  1.00  0.00    -0.295 C  
BRANCH  22  23
HETATM   23  C   UNL     1     -11.517  14.209  66.905  1.00  0.00    -0.373 A  
HETATM   24  C   UNL     1     -11.515  15.002  68.067  1.00  0.00    -0.357 A  
HETATM   25  C   UNL     1     -10.938  14.724  65.735  1.00  0.00    -0.334 A  
HETATM   26  C   UNL     1     -11.006  16.302  68.041  1.00  0.00    -0.328 A  
HETATM   27  C   UNL     1     -10.484  16.805  66.856  1.00  0.00    -0.269 A  
HETATM   28  C   UNL     1     -10.436  16.026  65.708  1.00  0.00    -0.391 A  
HETATM   29  F   UNL     1     -10.011  18.058  66.824  1.00  0.00    -0.286 F  
ENDBRANCH  22  23
ENDBRANCH  20  22
ENDBRANCH   7  18
BRANCH  12  30
HETATM   30  C   UNL     1      -9.694   4.018  67.983  1.00  0.00    -0.080 A  
HETATM   31  N   UNL     1      -9.490   2.984  68.781  1.00  0.00    -0.163 NA 
HETATM   32  C   UNL     1      -9.012   2.423  66.749  1.00  0.00    -0.125 A  
HETATM   33  N   UNL     1      -9.049   1.952  67.977  1.00  0.00    -0.146 NA 
HETATM   34  C   UNL     1      -8.592   1.756  65.501  1.00  0.00    -0.109 C  
HETATM   35  O   UNL     1      -9.417   3.732  66.667  1.00  0.00    -0.184 OA 
ENDBRANCH  12  30
TORSDOF 4
ENDMDL
MODEL       72
REMARK 921   NORMALIZED FREE ENERGY PREDICTED BY IDOCK:   -5.41 KCAL/MOL
REMARK 922        TOTAL FREE ENERGY PREDICTED BY IDOCK:   -7.50 KCAL/MOL
REMARK 923 INTER-LIGAND FREE ENERGY PREDICTED BY IDOCK:   -6.96 KCAL/MOL
REMARK 924 INTRA-LIGAND FREE ENERGY PREDICTED BY IDOCK:   -0.53 KCAL/MOL
REMARK 927      BINDING AFFINITY PREDICTED BY RF-SCORE:    0.00 PKD
ROOT
HETATM    1  C   UNL     1     -10.517  14.999  70.031  1.00  0.00    -0.114 C  
HETATM    2  N   UNL     1     -10.415  13.775  69.249  1.00  0.00    -0.022 N  
HETATM    3  C   UNL     1     -11.486  12.918  69.398  1.00  0.00    -0.260 C  
HETATM    4  O   UNL     1     -12.448  13.096  70.148  1.00  0.00    -0.233 OA 
HETATM    5  C   UNL     1     -11.484  11.682  68.605  1.00  0.00    -0.290 C  
HETATM    6  O   UNL     1     -12.597  10.870  68.731  1.00  0.00    -0.699 OA 
HETATM    7  C   UNL     1     -10.408  11.444  67.844  1.00  0.00    -0.182 C  
HETATM    8  N   UNL     1      -9.315  12.297  67.774  1.00  0.00    -0.187 NA 
HETATM    9  H   UNL     1      -8.202  16.479  68.647  1.00  0.00     0.000 HD 
HETATM   10  H   UNL     1     -12.595  10.070  68.217  1.00  0.00     0.000 HD 
HETATM   11  C   UNL     1      -9.337  13.419  68.446  1.00  0.00    -0.165 C  
HETATM   12  C   UNL     1      -8.703  16.131  66.675  1.00  0.00    -0.265 C  
HETATM   13  C   UNL     1      -7.369  14.435  69.780  1.00  0.00     0.110 C  
HETATM   14  C   UNL     1      -6.964  13.718  67.470  1.00  0.00    -0.161 C  
HETATM   15  C   UNL     1      -8.036  14.355  68.385  1.00  0.00    -0.143 C  
HETATM   16  O   UNL     1      -9.042  15.314  65.823  1.00  0.00    -0.234 OA 
HETATM   17  N   UNL     1      -8.311  15.742  67.949  1.00  0.00    -0.148 N  
ENDROOT
BRANCH   7  18
HETATM   18  C   UNL     1     -10.445  10.164  67.013  1.00  0.00    -0.240 C  
HETATM   19  H   UNL     1     -10.375   8.986  68.739  1.00  0.00     0.000 HD 
HETATM   20  N   UNL     1     -10.448   8.982  67.722  1.00  0.00    -0.248 N  
HETATM   21  O   UNL     1     -10.487  10.146  65.785  1.00  0.00    -0.183 OA 
BRANCH  20  22
HETATM   22  C   UNL     1     -10.558   7.733  66.993  1.00  0.00    -0.326 C  
BRANCH  22  23
HETATM   23  C   UNL     1      -9.398   6.788  67.181  1.00  0.00    -0.154 A  
HETATM   24  C   UNL     1      -9.388   5.564  66.485  1.00  0.00    -0.154 A  
HETATM   25  C   UNL     1      -8.276   7.137  67.950  1.00  0.00    -0.119 A  
HETATM   26  C   UNL     1      -8.311   4.685  66.608  1.00  0.00    -0.106 A  
HETATM   27  C   UNL     1      -7.235   5.033  67.415  1.00  0.00    -0.070 A  
HETATM   28  C   UNL     1      -7.203   6.253  68.077  1.00  0.00    -0.087 A  
HETATM   29  F   UNL     1      -6.209   4.183  67.548  1.00  0.00    -0.031 F  
ENDBRANCH  22  23
ENDBRANCH  20  22
ENDBRANCH   7  18
BRANCH  12  30
HETATM   30  C   UNL     1      -8.671  17.573  66.465  1.00  0.00    -0.262 A  
HETATM   31  N   UNL     1      -7.799  18.223  65.714  1.00  0.00    -0.520 NA 
HETATM   32  C   UNL     1      -9.161  19.639  66.618  1.00  0.00    -0.363 A  
HETATM   33  N   UNL     1      -8.120  19.562  65.815  1.00  0.00    -0.422 NA 
HETATM   34  C   UNL     1      -9.895  20.829  67.090  1.00  0.00    -0.402 C  
HETATM   35  O   UNL     1      -9.578  18.411  67.069  1.00  0.00    -0.282 OA 
ENDBRANCH  12  30
TORSDOF 4
ENDMDL
MODEL       73
REMARK 921   NORMALIZED FREE ENERGY PREDICTED BY IDOCK:   -5.41 KCAL/MOL
REMARK 922        TOTAL FREE ENERGY PREDICTED BY IDOCK:   -7.49 KCAL/MOL
REMARK 923 INTER-LIGAND FREE ENERGY PREDICTED BY IDOCK:   -6.66 KCAL/MOL
REMARK 924 INTRA-LIGAND FREE ENERGY PREDICTED BY IDOCK:   -0.83 KCAL/MOL
REMARK 927      BINDING AFFINITY PREDICTED BY RF-SCORE:    0.00 PKD
ROOT
HETATM    1  C   UNL     1     -12.085   8.685  72.271  1.00  0.00    -0.373 C  
HETATM    2  N   UNL     1     -11.773   9.606  71.187  1.00  0.00    -0.341 N  
HETATM    3  C   UNL     1     -12.487  10.786  71.223  1.00  0.00    -0.399 C  
HETATM    4  O   UNL     1     -13.358  11.071  72.047  1.00  0.00    -0.455 OA 
HETATM    5  C   UNL     1     -12.195  11.789  70.191  1.00  0.00    -0.263 C  
HETATM    6  O   UNL     1     -12.885  12.985  70.286  1.00  0.00     0.026 OA 
HETATM    7  C   UNL     1     -11.304  11.458  69.248  1.00  0.00    -0.289 C  
HETATM    8  N   UNL     1     -10.656  10.231  69.203  1.00  0.00    -0.215 NA 
HETATM    9  H   UNL     1      -9.712   6.785  71.796  1.00  0.00     0.000 HD 
HETATM   10  H   UNL     1     -12.696  13.634  69.619  1.00  0.00     0.000 HD 
HETATM   11  C   UNL     1     -10.884   9.355  70.147  1.00  0.00    -0.249 C  
HETATM   12  C   UNL     1      -8.189   8.170  71.641  1.00  0.00    -0.126 C  
HETATM   13  C   UNL     1     -11.210   6.811  69.819  1.00  0.00    -0.368 C  
HETATM   14  C   UNL     1      -9.268   7.881  68.772  1.00  0.00    -0.143 C  
HETATM   15  C   UNL     1     -10.160   7.928  70.035  1.00  0.00    -0.199 C  
HETATM   16  O   UNL     1      -7.793   9.219  71.142  1.00  0.00    -0.289 OA 
HETATM   17  N   UNL     1      -9.365   7.558  71.227  1.00  0.00    -0.150 N  
ENDROOT
BRANCH   7  18
HETATM   18  C   UNL     1     -11.005  12.530  68.204  1.00  0.00    -0.228 C  
HETATM   19  H   UNL     1      -9.260  13.090  69.211  1.00  0.00     0.000 HD 
HETATM   20  N   UNL     1      -9.843  13.247  68.389  1.00  0.00    -0.235 N  
HETATM   21  O   UNL     1     -11.723  12.760  67.234  1.00  0.00    -0.348 OA 
BRANCH  20  22
HETATM   22  C   UNL     1      -9.464  14.230  67.391  1.00  0.00    -0.211 C  
BRANCH  22  23
HETATM   23  C   UNL     1      -8.324  15.132  67.794  1.00  0.00    -0.159 A  
HETATM   24  C   UNL     1      -7.874  15.116  69.127  1.00  0.00    -0.199 A  
HETATM   25  C   UNL     1      -7.629  15.910  66.855  1.00  0.00    -0.255 A  
HETATM   26  C   UNL     1      -6.796  15.910  69.523  1.00  0.00    -0.192 A  
HETATM   27  C   UNL     1      -6.158  16.710  68.584  1.00  0.00    -0.140 A  
HETATM   28  C   UNL     1      -6.557  16.709  67.254  1.00  0.00    -0.213 A  
HETATM   29  F   UNL     1      -5.135  17.486  68.965  1.00  0.00    -0.148 F  
ENDBRANCH  22  23
ENDBRANCH  20  22
ENDBRANCH   7  18
BRANCH  12  30
HETATM   30  C   UNL     1      -7.498   7.453  72.705  1.00  0.00    -0.077 A  
HETATM   31  N   UNL     1      -6.729   8.000  73.630  1.00  0.00    -0.108 NA 
HETATM   32  C   UNL     1      -6.780   5.859  73.919  1.00  0.00    -0.080 A  
HETATM   33  N   UNL     1      -6.265   6.964  74.415  1.00  0.00    -0.075 NA 
HETATM   34  C   UNL     1      -6.595   4.460  74.354  1.00  0.00    -0.059 C  
HETATM   35  O   UNL     1      -7.585   6.086  72.831  1.00  0.00    -0.100 OA 
ENDBRANCH  12  30
TORSDOF 4
ENDMDL
MODEL       74
REMARK 921   NORMALIZED FREE ENERGY PREDICTED BY IDOCK:   -5.41 KCAL/MOL
REMARK 922        TOTAL FREE ENERGY PREDICTED BY IDOCK:   -7.49 KCAL/MOL
REMARK 923 INTER-LIGAND FREE ENERGY PREDICTED BY IDOCK:   -7.12 KCAL/MOL
REMARK 924 INTRA-LIGAND FREE ENERGY PREDICTED BY IDOCK:   -0.37 KCAL/MOL
REMARK 927      BINDING AFFINITY PREDICTED BY RF-SCORE:    0.00 PKD
ROOT
HETATM    1  C   UNL     1     -11.326  16.409  70.959  1.00  0.00    -0.166 C  
HETATM    2  N   UNL     1     -11.614  14.986  70.837  1.00  0.00    -0.305 N  
HETATM    3  C   UNL     1     -12.574  14.526  71.716  1.00  0.00    -0.346 C  
HETATM    4  O   UNL     1     -13.136  15.201  72.580  1.00  0.00    -0.350 OA 
HETATM    5  C   UNL     1     -12.957  13.112  71.624  1.00  0.00    -0.335 C  
HETATM    6  O   UNL     1     -13.962  12.692  72.478  1.00  0.00    -0.581 OA 
HETATM    7  C   UNL     1     -12.297  12.354  70.739  1.00  0.00    -0.286 C  
HETATM    8  N   UNL     1     -11.287  12.837  69.919  1.00  0.00    -0.051 NA 
HETATM    9  H   UNL     1      -9.704  16.650  68.356  1.00  0.00     0.000 HD 
HETATM   10  H   UNL     1     -14.209  11.776  72.418  1.00  0.00     0.000 HD 
HETATM   11  C   UNL     1     -10.976  14.107  69.970  1.00  0.00     0.122 C  
HETATM   12  C   UNL     1     -10.982  15.670  67.063  1.00  0.00    -0.261 C  
HETATM   13  C   UNL     1      -8.587  15.094  69.932  1.00  0.00     0.201 C  
HETATM   14  C   UNL     1      -9.194  13.447  68.220  1.00  0.00    -0.198 C  
HETATM   15  C   UNL     1      -9.767  14.620  69.049  1.00  0.00    -0.160 C  
HETATM   16  O   UNL     1     -11.680  14.683  66.850  1.00  0.00    -0.375 OA 
HETATM   17  N   UNL     1     -10.125  15.742  68.154  1.00  0.00    -0.218 N  
ENDROOT
BRANCH   7  18
HETATM   18  C   UNL     1     -12.735  10.894  70.650  1.00  0.00    -0.309 C  
HETATM   19  H   UNL     1     -12.501  10.650  72.713  1.00  0.00     0.000 HD 
HETATM   20  N   UNL     1     -12.791  10.206  71.842  1.00  0.00    -0.429 N  
HETATM   21  O   UNL     1     -13.042  10.334  69.600  1.00  0.00     0.123 OA 
BRANCH  20  22
HETATM   22  C   UNL     1     -13.270   8.836  71.834  1.00  0.00    -0.381 C  
BRANCH  22  23
HETATM   23  C   UNL     1     -12.191   7.788  71.936  1.00  0.00    -0.341 A  
HETATM   24  C   UNL     1     -12.160   6.741  70.997  1.00  0.00    -0.426 A  
HETATM   25  C   UNL     1     -11.153   7.884  72.877  1.00  0.00    -0.442 A  
HETATM   26  C   UNL     1     -11.151   5.776  71.040  1.00  0.00    -0.264 A  
HETATM   27  C   UNL     1     -10.164   5.866  72.013  1.00  0.00    -0.197 A  
HETATM   28  C   UNL     1     -10.150   6.915  72.923  1.00  0.00    -0.212 A  
HETATM   29  F   UNL     1      -9.205   4.932  72.067  1.00  0.00    -0.138 F  
ENDBRANCH  22  23
ENDBRANCH  20  22
ENDBRANCH   7  18
BRANCH  12  30
HETATM   30  C   UNL     1     -10.965  16.863  66.225  1.00  0.00     0.171 A  
HETATM   31  N   UNL     1     -11.232  16.898  64.931  1.00  0.00    -0.606 NA 
HETATM   32  C   UNL     1     -10.731  18.888  65.612  1.00  0.00    -0.151 A  
HETATM   33  N   UNL     1     -11.079  18.213  64.538  1.00  0.00     0.405 NA 
HETATM   34  C   UNL     1     -10.416  20.323  65.758  1.00  0.00    -0.259 C  
HETATM   35  O   UNL     1     -10.643  18.099  66.732  1.00  0.00    -0.357 OA 
ENDBRANCH  12  30
TORSDOF 4
ENDMDL
MODEL       75
REMARK 921   NORMALIZED FREE ENERGY PREDICTED BY IDOCK:   -5.33 KCAL/MOL
REMARK 922        TOTAL FREE ENERGY PREDICTED BY IDOCK:   -7.39 KCAL/MOL
REMARK 923 INTER-LIGAND FREE ENERGY PREDICTED BY IDOCK:   -6.53 KCAL/MOL
REMARK 924 INTRA-LIGAND FREE ENERGY PREDICTED BY IDOCK:   -0.86 KCAL/MOL
REMARK 927      BINDING AFFINITY PREDICTED BY RF-SCORE:    0.00 PKD
ROOT
HETATM    1  C   UNL     1     -10.358   6.806  74.118  1.00  0.00    -0.291 C  
HETATM    2  N   UNL     1      -9.973   5.892  73.051  1.00  0.00    -0.172 N  
HETATM    3  C   UNL     1     -10.314   4.576  73.283  1.00  0.00    -0.181 C  
HETATM    4  O   UNL     1     -10.852   4.143  74.304  1.00  0.00    -0.229 OA 
HETATM    5  C   UNL     1     -10.004   3.598  72.232  1.00  0.00    -0.169 C  
HETATM    6  O   UNL     1     -10.408   2.295  72.467  1.00  0.00    -0.153 OA 
HETATM    7  C   UNL     1      -9.351   4.045  71.152  1.00  0.00    -0.146 C  
HETATM    8  N   UNL     1      -8.961   5.366  70.984  1.00  0.00    -0.138 NA 
HETATM    9  H   UNL     1      -9.851   9.399  72.543  1.00  0.00     0.000 HD 
HETATM   10  H   UNL     1     -10.208   1.663  71.787  1.00  0.00     0.000 HD 
HETATM   11  C   UNL     1      -9.276   6.246  71.901  1.00  0.00    -0.146 C  
HETATM   12  C   UNL     1     -10.836   8.934  70.789  1.00  0.00    -0.241 C  
HETATM   13  C   UNL     1      -7.743   8.120  72.806  1.00  0.00    -0.184 C  
HETATM   14  C   UNL     1      -7.974   7.875  70.377  1.00  0.00    -0.097 C  
HETATM   15  C   UNL     1      -8.764   7.752  71.702  1.00  0.00    -0.118 C  
HETATM   16  O   UNL     1     -11.023   8.114  69.896  1.00  0.00    -0.240 OA 
HETATM   17  N   UNL     1      -9.840   8.767  71.743  1.00  0.00    -0.298 N  
ENDROOT
BRANCH   7  18
HETATM   18  C   UNL     1      -9.065   3.010  70.067  1.00  0.00    -0.124 C  
HETATM   19  H   UNL     1      -9.185   4.471  68.576  1.00  0.00     0.000 HD 
HETATM   20  N   UNL     1      -8.998   3.489  68.777  1.00  0.00    -0.116 N  
HETATM   21  O   UNL     1      -8.883   1.815  70.291  1.00  0.00    -0.058 OA 
BRANCH  20  22
HETATM   22  C   UNL     1      -8.656   2.568  67.708  1.00  0.00    -0.096 C  
BRANCH  22  23
HETATM   23  C   UNL     1      -9.285   2.886  66.375  1.00  0.00    -0.113 A  
HETATM   24  C   UNL     1      -9.968   4.105  66.211  1.00  0.00    -0.185 A  
HETATM   25  C   UNL     1      -9.120   2.048  65.261  1.00  0.00    -0.107 A  
HETATM   26  C   UNL     1     -10.528   4.446  64.978  1.00  0.00    -0.157 A  
HETATM   27  C   UNL     1     -10.394   3.576  63.904  1.00  0.00    -0.244 A  
HETATM   28  C   UNL     1      -9.687   2.388  64.031  1.00  0.00    -0.140 A  
HETATM   29  F   UNL     1     -10.946   3.893  62.726  1.00  0.00    -0.200 F  
ENDBRANCH  22  23
ENDBRANCH  20  22
ENDBRANCH   7  18
BRANCH  12  30
HETATM   30  C   UNL     1     -11.614  10.154  70.963  1.00  0.00    -0.376 A  
HETATM   31  N   UNL     1     -12.684  10.283  71.728  1.00  0.00    -0.433 NA 
HETATM   32  C   UNL     1     -12.281  12.163  70.741  1.00  0.00    -0.271 A  
HETATM   33  N   UNL     1     -13.113  11.587  71.581  1.00  0.00    -0.439 NA 
HETATM   34  C   UNL     1     -12.286  13.542  70.213  1.00  0.00    -0.417 C  
HETATM   35  O   UNL     1     -11.291  11.318  70.306  1.00  0.00    -0.248 OA 
ENDBRANCH  12  30
TORSDOF 4
ENDMDL
MODEL       76
REMARK 921   NORMALIZED FREE ENERGY PREDICTED BY IDOCK:   -5.32 KCAL/MOL
REMARK 922        TOTAL FREE ENERGY PREDICTED BY IDOCK:   -7.37 KCAL/MOL
REMARK 923 INTER-LIGAND FREE ENERGY PREDICTED BY IDOCK:   -6.56 KCAL/MOL
REMARK 924 INTRA-LIGAND FREE ENERGY PREDICTED BY IDOCK:   -0.82 KCAL/MOL
REMARK 927      BINDING AFFINITY PREDICTED BY RF-SCORE:    0.00 PKD
ROOT
HETATM    1  C   UNL     1      -6.733  12.591  67.091  1.00  0.00    -0.054 C  
HETATM    2  N   UNL     1      -6.930  11.488  68.021  1.00  0.00    -0.073 N  
HETATM    3  C   UNL     1      -6.222  11.607  69.199  1.00  0.00    -0.077 C  
HETATM    4  O   UNL     1      -5.439  12.518  69.476  1.00  0.00    -0.075 OA 
HETATM    5  C   UNL     1      -6.404  10.559  70.211  1.00  0.00    -0.137 C  
HETATM    6  O   UNL     1      -5.726  10.734  71.405  1.00  0.00    -0.327 OA 
HETATM    7  C   UNL     1      -7.194   9.527  69.890  1.00  0.00    -0.093 C  
HETATM    8  N   UNL     1      -7.836   9.405  68.665  1.00  0.00    -0.088 NA 
HETATM    9  H   UNL     1      -9.048  11.859  65.201  1.00  0.00     0.000 HD 
HETATM   10  H   UNL     1      -5.844  10.055  72.060  1.00  0.00     0.000 HD 
HETATM   11  C   UNL     1      -7.708  10.361  67.780  1.00  0.00    -0.089 C  
HETATM   12  C   UNL     1     -10.544  11.560  66.591  1.00  0.00    -0.253 C  
HETATM   13  C   UNL     1      -7.354  10.047  65.239  1.00  0.00    -0.137 C  
HETATM   14  C   UNL     1      -9.177   8.815  66.322  1.00  0.00    -0.261 C  
HETATM   15  C   UNL     1      -8.419  10.164  66.356  1.00  0.00    -0.131 C  
HETATM   16  O   UNL     1     -10.885  11.031  67.646  1.00  0.00    -0.219 OA 
HETATM   17  N   UNL     1      -9.333  11.265  65.980  1.00  0.00    -0.208 N  
ENDROOT
BRANCH   7  18
HETATM   18  C   UNL     1      -7.383   8.466  70.971  1.00  0.00    -0.069 C  
HETATM   19  H   UNL     1      -7.736   6.993  69.530  1.00  0.00     0.000 HD 
HETATM   20  N   UNL     1      -7.634   7.186  70.527  1.00  0.00    -0.088 N  
HETATM   21  O   UNL     1      -7.307   8.696  72.176  1.00  0.00    -0.217 OA 
BRANCH  20  22
HETATM   22  C   UNL     1      -7.749   6.119  71.503  1.00  0.00    -0.101 C  
BRANCH  22  23
HETATM   23  C   UNL     1      -9.163   5.774  71.898  1.00  0.00    -0.155 A  
HETATM   24  C   UNL     1      -9.390   4.678  72.750  1.00  0.00    -0.148 A  
HETATM   25  C   UNL     1     -10.252   6.577  71.525  1.00  0.00    -0.215 A  
HETATM   26  C   UNL     1     -10.684   4.355  73.165  1.00  0.00    -0.296 A  
HETATM   27  C   UNL     1     -11.750   5.138  72.741  1.00  0.00    -0.101 A  
HETATM   28  C   UNL     1     -11.545   6.250  71.935  1.00  0.00    -0.369 A  
HETATM   29  F   UNL     1     -12.994   4.820  73.124  1.00  0.00    -0.086 F  
ENDBRANCH  22  23
ENDBRANCH  20  22
ENDBRANCH   7  18
BRANCH  12  30
HETATM   30  C   UNL     1     -11.342  12.542  65.867  1.00  0.00    -0.340 A  
HETATM   31  N   UNL     1     -12.567  12.351  65.408  1.00  0.00    -0.557 NA 
HETATM   32  C   UNL     1     -11.911  14.345  64.890  1.00  0.00    -0.426 A  
HETATM   33  N   UNL     1     -12.932  13.523  64.775  1.00  0.00    -0.686 NA 
HETATM   34  C   UNL     1     -11.752  15.720  64.376  1.00  0.00    -0.201 C  
HETATM   35  O   UNL     1     -10.860  13.797  65.581  1.00  0.00    -0.280 OA 
ENDBRANCH  12  30
TORSDOF 4
ENDMDL
MODEL       77
REMARK 921   NORMALIZED FREE ENERGY PREDICTED BY IDOCK:   -5.29 KCAL/MOL
REMARK 922        TOTAL FREE ENERGY PREDICTED BY IDOCK:   -7.35 KCAL/MOL
REMARK 923 INTER-LIGAND FREE ENERGY PREDICTED BY IDOCK:   -6.45 KCAL/MOL
REMARK 924 INTRA-LIGAND FREE ENERGY PREDICTED BY IDOCK:   -0.90 KCAL/MOL
REMARK 927      BINDING AFFINITY PREDICTED BY RF-SCORE:    0.00 PKD
ROOT
HETATM    1  C   UNL     1     -11.066  10.187  70.658  1.00  0.00    -0.322 C  
HETATM    2  N   UNL     1     -10.669   8.795  70.490  1.00  0.00    -0.215 N  
HETATM    3  C   UNL     1     -11.367   7.908  71.284  1.00  0.00    -0.260 C  
HETATM    4  O   UNL     1     -12.226   8.211  72.115  1.00  0.00    -0.319 OA 
HETATM    5  C   UNL     1     -11.060   6.480  71.139  1.00  0.00    -0.282 C  
HETATM    6  O   UNL     1     -11.815   5.609  71.905  1.00  0.00    -0.082 OA 
HETATM    7  C   UNL     1     -10.077   6.146  70.293  1.00  0.00    -0.188 C  
HETATM    8  N   UNL     1      -9.347   7.074  69.563  1.00  0.00    -0.148 NA 
HETATM    9  H   UNL     1      -9.575  11.264  68.192  1.00  0.00     0.000 HD 
HETATM   10  H   UNL     1     -11.617   4.684  71.811  1.00  0.00     0.000 HD 
HETATM   11  C   UNL     1      -9.650   8.343  69.659  1.00  0.00    -0.163 C  
HETATM   12  C   UNL     1     -10.188   9.880  66.788  1.00  0.00    -0.236 C  
HETATM   13  C   UNL     1      -7.971  10.302  69.822  1.00  0.00    -0.139 C  
HETATM   14  C   UNL     1      -7.660   8.647  68.040  1.00  0.00    -0.098 C  
HETATM   15  C   UNL     1      -8.752   9.392  68.843  1.00  0.00    -0.132 C  
HETATM   16  O   UNL     1     -10.348   8.696  66.505  1.00  0.00    -0.282 OA 
HETATM   17  N   UNL     1      -9.525  10.276  67.943  1.00  0.00    -0.141 N  
ENDROOT
BRANCH   7  18
HETATM   18  C   UNL     1      -9.798   4.653  70.146  1.00  0.00    -0.236 C  
HETATM   19  H   UNL     1      -9.524   4.860  68.084  1.00  0.00     0.000 HD 
HETATM   20  N   UNL     1      -9.500   4.215  68.874  1.00  0.00    -0.164 N  
HETATM   21  O   UNL     1      -9.812   3.858  71.083  1.00  0.00    -0.180 OA 
BRANCH  20  22
HETATM   22  C   UNL     1      -9.153   2.820  68.680  1.00  0.00    -0.158 C  
BRANCH  22  23
HETATM   23  C   UNL     1      -8.674   2.476  67.292  1.00  0.00    -0.137 A  
HETATM   24  C   UNL     1      -9.385   2.962  66.179  1.00  0.00    -0.053 A  
HETATM   25  C   UNL     1      -7.479   1.771  67.076  1.00  0.00    -0.060 A  
HETATM   26  C   UNL     1      -8.945   2.694  64.882  1.00  0.00    -0.126 A  
HETATM   27  C   UNL     1      -7.786   1.951  64.695  1.00  0.00    -0.069 A  
HETATM   28  C   UNL     1      -7.045   1.497  65.778  1.00  0.00    -0.046 A  
HETATM   29  F   UNL     1      -7.372   1.677  63.451  1.00  0.00    -0.041 F  
ENDBRANCH  22  23
ENDBRANCH  20  22
ENDBRANCH   7  18
BRANCH  12  30
HETATM   30  C   UNL     1     -10.663  10.992  65.975  1.00  0.00    -0.177 A  
HETATM   31  N   UNL     1     -10.175  11.351  64.800  1.00  0.00    -0.267 NA 
HETATM   32  C   UNL     1     -11.776  12.696  65.349  1.00  0.00    -0.387 A  
HETATM   33  N   UNL     1     -10.899  12.455  64.398  1.00  0.00    -0.314 NA 
HETATM   34  C   UNL     1     -12.782  13.772  65.447  1.00  0.00    -0.513 C  
HETATM   35  O   UNL     1     -11.695  11.802  66.387  1.00  0.00    -0.511 OA 
ENDBRANCH  12  30
TORSDOF 4
ENDMDL
MODEL       78
REMARK 921   NORMALIZED FREE ENERGY PREDICTED BY IDOCK:   -5.26 KCAL/MOL
REMARK 922        TOTAL FREE ENERGY PREDICTED BY IDOCK:   -7.31 KCAL/MOL
REMARK 923 INTER-LIGAND FREE ENERGY PREDICTED BY IDOCK:   -6.41 KCAL/MOL
REMARK 924 INTRA-LIGAND FREE ENERGY PREDICTED BY IDOCK:   -0.90 KCAL/MOL
REMARK 927      BINDING AFFINITY PREDICTED BY RF-SCORE:    0.00 PKD
ROOT
HETATM    1  C   UNL     1      -6.864  11.882  67.224  1.00  0.00    -0.142 C  
HETATM    2  N   UNL     1      -7.163  10.501  67.578  1.00  0.00    -0.089 N  
HETATM    3  C   UNL     1      -6.625  10.097  68.783  1.00  0.00    -0.052 C  
HETATM    4  O   UNL     1      -5.907  10.783  69.514  1.00  0.00    -0.038 OA 
HETATM    5  C   UNL     1      -6.922   8.733  69.237  1.00  0.00    -0.058 C  
HETATM    6  O   UNL     1      -6.418   8.374  70.475  1.00  0.00    -0.035 OA 
HETATM    7  C   UNL     1      -7.638   7.955  68.414  1.00  0.00    -0.108 C  
HETATM    8  N   UNL     1      -8.104   8.374  67.176  1.00  0.00    -0.104 NA 
HETATM    9  H   UNL     1      -8.881  12.082  64.910  1.00  0.00     0.000 HD 
HETATM   10  H   UNL     1      -6.610   7.491  70.768  1.00  0.00     0.000 HD 
HETATM   11  C   UNL     1      -7.876   9.604  66.791  1.00  0.00    -0.102 C  
HETATM   12  C   UNL     1     -10.547  11.293  65.838  1.00  0.00    -0.253 C  
HETATM   13  C   UNL     1      -7.170  10.354  64.420  1.00  0.00     0.002 C  
HETATM   14  C   UNL     1      -9.097   8.854  64.642  1.00  0.00     0.052 C  
HETATM   15  C   UNL     1      -8.381  10.039  65.332  1.00  0.00    -0.151 C  
HETATM   16  O   UNL     1     -11.018  10.389  66.522  1.00  0.00    -0.097 OA 
HETATM   17  N   UNL     1      -9.257  11.230  65.326  1.00  0.00    -0.204 N  
ENDROOT
BRANCH   7  18
HETATM   18  C   UNL     1      -7.951   6.551  68.924  1.00  0.00    -0.111 C  
HETATM   19  H   UNL     1      -9.935   6.710  68.286  1.00  0.00     0.000 HD 
HETATM   20  N   UNL     1      -9.236   6.102  68.712  1.00  0.00    -0.125 N  
HETATM   21  O   UNL     1      -7.129   5.826  69.481  1.00  0.00    -0.061 OA 
BRANCH  20  22
HETATM   22  C   UNL     1      -9.576   4.748  69.107  1.00  0.00    -0.167 C  
BRANCH  22  23
HETATM   23  C   UNL     1      -9.988   4.594  70.549  1.00  0.00    -0.295 A  
HETATM   24  C   UNL     1      -9.610   3.435  71.252  1.00  0.00    -0.232 A  
HETATM   25  C   UNL     1     -10.648   5.621  71.243  1.00  0.00    -0.321 A  
HETATM   26  C   UNL     1      -9.943   3.280  72.599  1.00  0.00    -0.221 A  
HETATM   27  C   UNL     1     -10.641   4.290  73.249  1.00  0.00    -0.204 A  
HETATM   28  C   UNL     1     -10.986   5.461  72.588  1.00  0.00    -0.321 A  
HETATM   29  F   UNL     1     -10.976   4.135  74.537  1.00  0.00    -0.249 F  
ENDBRANCH  22  23
ENDBRANCH  20  22
ENDBRANCH   7  18
BRANCH  12  30
HETATM   30  C   UNL     1     -11.259  12.515  65.485  1.00  0.00    -0.314 A  
HETATM   31  N   UNL     1     -12.569  12.633  65.355  1.00  0.00    -0.642 NA 
HETATM   32  C   UNL     1     -11.634  14.535  64.930  1.00  0.00    -0.401 A  
HETATM   33  N   UNL     1     -12.808  13.944  64.996  1.00  0.00    -0.733 NA 
HETATM   34  C   UNL     1     -11.304  15.927  64.567  1.00  0.00    -0.316 C  
HETATM   35  O   UNL     1     -10.595  13.692  65.237  1.00  0.00    -0.313 OA 
ENDBRANCH  12  30
TORSDOF 4
ENDMDL
MODEL       79
REMARK 921   NORMALIZED FREE ENERGY PREDICTED BY IDOCK:   -5.25 KCAL/MOL
REMARK 922        TOTAL FREE ENERGY PREDICTED BY IDOCK:   -7.30 KCAL/MOL
REMARK 923 INTER-LIGAND FREE ENERGY PREDICTED BY IDOCK:   -6.43 KCAL/MOL
REMARK 924 INTRA-LIGAND FREE ENERGY PREDICTED BY IDOCK:   -0.86 KCAL/MOL
REMARK 927      BINDING AFFINITY PREDICTED BY RF-SCORE:    0.00 PKD
ROOT
HETATM    1  C   UNL     1      -7.574   3.720  66.986  1.00  0.00    -0.080 C  
HETATM    2  N   UNL     1      -7.668   4.972  66.247  1.00  0.00    -0.091 N  
HETATM    3  C   UNL     1      -8.045   4.823  64.928  1.00  0.00    -0.105 C  
HETATM    4  O   UNL     1      -8.249   3.750  64.358  1.00  0.00    -0.089 OA 
HETATM    5  C   UNL     1      -8.210   6.042  64.127  1.00  0.00    -0.053 C  
HETATM    6  O   UNL     1      -8.644   5.867  62.825  1.00  0.00    -0.300 OA 
HETATM    7  C   UNL     1      -7.917   7.208  64.717  1.00  0.00    -0.122 C  
HETATM    8  N   UNL     1      -7.472   7.314  66.027  1.00  0.00    -0.078 NA 
HETATM    9  H   UNL     1      -7.361   4.991  69.780  1.00  0.00     0.000 HD 
HETATM   10  H   UNL     1      -8.751   6.656  62.306  1.00  0.00     0.000 HD 
HETATM   11  C   UNL     1      -7.367   6.231  66.754  1.00  0.00    -0.079 C  
HETATM   12  C   UNL     1      -8.922   6.338  69.664  1.00  0.00    -0.135 C  
HETATM   13  C   UNL     1      -5.433   5.665  68.373  1.00  0.00    -0.008 C  
HETATM   14  C   UNL     1      -6.493   7.868  68.552  1.00  0.00    -0.053 C  
HETATM   15  C   UNL     1      -6.798   6.382  68.246  1.00  0.00    -0.071 C  
HETATM   16  O   UNL     1      -9.484   7.216  69.015  1.00  0.00    -0.144 OA 
HETATM   17  N   UNL     1      -7.686   5.825  69.290  1.00  0.00    -0.088 N  
ENDROOT
BRANCH   7  18
HETATM   18  C   UNL     1      -8.122   8.459  63.866  1.00  0.00    -0.143 C  
HETATM   19  H   UNL     1      -9.693   9.091  65.092  1.00  0.00     0.000 HD 
HETATM   20  N   UNL     1      -9.110   9.322  64.287  1.00  0.00    -0.116 N  
HETATM   21  O   UNL     1      -7.456   8.724  62.868  1.00  0.00    -0.098 OA 
BRANCH  20  22
HETATM   22  C   UNL     1      -9.305  10.565  63.564  1.00  0.00    -0.293 C  
BRANCH  22  23
HETATM   23  C   UNL     1     -10.317  11.500  64.177  1.00  0.00    -0.386 A  
HETATM   24  C   UNL     1     -11.228  12.171  63.340  1.00  0.00    -0.494 A  
HETATM   25  C   UNL     1     -10.446  11.642  65.568  1.00  0.00    -0.321 A  
HETATM   26  C   UNL     1     -12.202  13.013  63.879  1.00  0.00    -0.511 A  
HETATM   27  C   UNL     1     -12.276  13.175  65.256  1.00  0.00    -0.455 A  
HETATM   28  C   UNL     1     -11.416  12.490  66.104  1.00  0.00    -0.426 A  
HETATM   29  F   UNL     1     -13.198  13.997  65.775  1.00  0.00    -0.537 F  
ENDBRANCH  22  23
ENDBRANCH  20  22
ENDBRANCH   7  18
BRANCH  12  30
HETATM   30  C   UNL     1      -9.466   5.733  70.874  1.00  0.00    -0.165 A  
HETATM   31  N   UNL     1      -9.939   4.504  70.975  1.00  0.00    -0.199 NA 
HETATM   32  C   UNL     1     -10.125   5.500  72.884  1.00  0.00    -0.176 A  
HETATM   33  N   UNL     1     -10.365   4.356  72.280  1.00  0.00    -0.182 NA 
HETATM   34  C   UNL     1     -10.405   5.903  74.276  1.00  0.00    -0.284 C  
HETATM   35  O   UNL     1      -9.544   6.429  72.057  1.00  0.00    -0.153 OA 
ENDBRANCH  12  30
TORSDOF 4
ENDMDL
MODEL       80
REMARK 921   NORMALIZED FREE ENERGY PREDICTED BY IDOCK:   -5.09 KCAL/MOL
REMARK 922        TOTAL FREE ENERGY PREDICTED BY IDOCK:   -7.10 KCAL/MOL
REMARK 923 INTER-LIGAND FREE ENERGY PREDICTED BY IDOCK:   -6.20 KCAL/MOL
REMARK 924 INTRA-LIGAND FREE ENERGY PREDICTED BY IDOCK:   -0.90 KCAL/MOL
REMARK 927      BINDING AFFINITY PREDICTED BY RF-SCORE:    0.00 PKD
ROOT
HETATM    1  C   UNL     1      -7.164   6.987  65.653  1.00  0.00    -0.073 C  
HETATM    2  N   UNL     1      -7.935   8.218  65.767  1.00  0.00    -0.094 N  
HETATM    3  C   UNL     1      -8.526   8.626  64.589  1.00  0.00    -0.132 C  
HETATM    4  O   UNL     1      -8.409   8.068  63.497  1.00  0.00    -0.085 OA 
HETATM    5  C   UNL     1      -9.362   9.833  64.631  1.00  0.00    -0.256 C  
HETATM    6  O   UNL     1      -9.989  10.187  63.449  1.00  0.00    -0.487 OA 
HETATM    7  C   UNL     1      -9.434  10.489  65.796  1.00  0.00    -0.201 C  
HETATM    8  N   UNL     1      -8.767  10.087  66.945  1.00  0.00    -0.129 NA 
HETATM    9  H   UNL     1      -6.816   6.524  68.674  1.00  0.00     0.000 HD 
HETATM   10  H   UNL     1     -10.529  10.968  63.476  1.00  0.00     0.000 HD 
HETATM   11  C   UNL     1      -8.058   8.987  66.919  1.00  0.00    -0.112 C  
HETATM   12  C   UNL     1      -8.767   6.805  69.292  1.00  0.00    -0.135 C  
HETATM   13  C   UNL     1      -5.732   8.648  67.993  1.00  0.00    -0.035 C  
HETATM   14  C   UNL     1      -7.518   9.618  69.365  1.00  0.00    -0.093 C  
HETATM   15  C   UNL     1      -7.257   8.580  68.247  1.00  0.00    -0.086 C  
HETATM   16  O   UNL     1      -9.775   7.503  69.245  1.00  0.00    -0.161 OA 
HETATM   17  N   UNL     1      -7.560   7.220  68.742  1.00  0.00    -0.101 N  
ENDROOT
BRANCH   7  18
HETATM   18  C   UNL     1     -10.329  11.726  65.814  1.00  0.00    -0.253 C  
HETATM   19  H   UNL     1      -8.906  12.798  66.906  1.00  0.00     0.000 HD 
HETATM   20  N   UNL     1      -9.813  12.838  66.441  1.00  0.00    -0.264 N  
HETATM   21  O   UNL     1     -11.443  11.771  65.297  1.00  0.00    -0.284 OA 
BRANCH  20  22
HETATM   22  C   UNL     1     -10.583  14.067  66.427  1.00  0.00    -0.280 C  
BRANCH  22  23
HETATM   23  C   UNL     1     -10.922  14.615  67.790  1.00  0.00    -0.291 A  
HETATM   24  C   UNL     1     -10.143  15.659  68.325  1.00  0.00    -0.218 A  
HETATM   25  C   UNL     1     -12.056  14.188  68.499  1.00  0.00    -0.312 A  
HETATM   26  C   UNL     1     -10.454  16.215  69.567  1.00  0.00    -0.295 A  
HETATM   27  C   UNL     1     -11.553  15.739  70.271  1.00  0.00    -0.365 A  
HETATM   28  C   UNL     1     -12.361  14.740  69.744  1.00  0.00    -0.291 A  
HETATM   29  F   UNL     1     -11.843  16.258  71.471  1.00  0.00    -0.442 F  
ENDBRANCH  22  23
ENDBRANCH  20  22
ENDBRANCH   7  18
BRANCH  12  30
HETATM   30  C   UNL     1      -8.707   5.486  69.909  1.00  0.00    -0.123 A  
HETATM   31  N   UNL     1      -7.951   4.480  69.505  1.00  0.00    -0.061 NA 
HETATM   32  C   UNL     1      -9.117   3.856  71.215  1.00  0.00    -0.115 A  
HETATM   33  N   UNL     1      -8.220   3.425  70.354  1.00  0.00    -0.052 NA 
HETATM   34  C   UNL     1      -9.776   3.136  72.322  1.00  0.00    -0.224 C  
HETATM   35  O   UNL     1      -9.475   5.164  71.003  1.00  0.00    -0.148 OA 
ENDBRANCH  12  30
TORSDOF 4
ENDMDL
MODEL       81
REMARK 921   NORMALIZED FREE ENERGY PREDICTED BY IDOCK:   -5.06 KCAL/MOL
REMARK 922        TOTAL FREE ENERGY PREDICTED BY IDOCK:   -7.06 KCAL/MOL
REMARK 923 INTER-LIGAND FREE ENERGY PREDICTED BY IDOCK:   -6.35 KCAL/MOL
REMARK 924 INTRA-LIGAND FREE ENERGY PREDICTED BY IDOCK:   -0.71 KCAL/MOL
REMARK 927      BINDING AFFINITY PREDICTED BY RF-SCORE:    0.00 PKD
ROOT
HETATM    1  C   UNL     1     -11.348   8.563  70.965  1.00  0.00    -0.271 C  
HETATM    2  N   UNL     1     -11.237   9.559  69.908  1.00  0.00    -0.214 N  
HETATM    3  C   UNL     1     -11.822  10.772  70.209  1.00  0.00    -0.349 C  
HETATM    4  O   UNL     1     -12.440  11.033  71.243  1.00  0.00    -0.370 OA 
HETATM    5  C   UNL     1     -11.711  11.846  69.213  1.00  0.00    -0.328 C  
HETATM    6  O   UNL     1     -12.257  13.068  69.566  1.00  0.00    -0.248 OA 
HETATM    7  C   UNL     1     -11.108  11.549  68.056  1.00  0.00    -0.254 C  
HETATM    8  N   UNL     1     -10.592  10.295  67.760  1.00  0.00    -0.230 NA 
HETATM    9  H   UNL     1      -9.326   6.575  69.772  1.00  0.00     0.000 HD 
HETATM   10  H   UNL     1     -12.185  13.762  68.922  1.00  0.00     0.000 HD 
HETATM   11  C   UNL     1     -10.652   9.351  68.664  1.00  0.00    -0.200 C  
HETATM   12  C   UNL     1      -7.779   7.874  69.344  1.00  0.00    -0.105 C  
HETATM   13  C   UNL     1     -11.254   6.872  68.241  1.00  0.00    -0.070 C  
HETATM   14  C   UNL     1      -9.546   7.914  66.823  1.00  0.00    -0.278 C  
HETATM   15  C   UNL     1     -10.096   7.899  68.269  1.00  0.00    -0.194 C  
HETATM   16  O   UNL     1      -7.434   8.939  68.840  1.00  0.00    -0.079 OA 
HETATM   17  N   UNL     1      -9.067   7.375  69.194  1.00  0.00    -0.135 N  
ENDROOT
BRANCH   7  18
HETATM   18  C   UNL     1     -10.986  12.692  67.051  1.00  0.00    -0.265 C  
HETATM   19  H   UNL     1      -9.190  13.323  67.916  1.00  0.00     0.000 HD 
HETATM   20  N   UNL     1      -9.862  13.480  67.164  1.00  0.00    -0.240 N  
HETATM   21  O   UNL     1     -11.812  12.920  66.170  1.00  0.00    -0.387 OA 
BRANCH  20  22
HETATM   22  C   UNL     1      -9.651  14.537  66.193  1.00  0.00    -0.297 C  
BRANCH  22  23
HETATM   23  C   UNL     1      -8.523  15.482  66.523  1.00  0.00    -0.283 A  
HETATM   24  C   UNL     1      -8.602  16.821  66.099  1.00  0.00    -0.299 A  
HETATM   25  C   UNL     1      -7.443  15.091  67.331  1.00  0.00    -0.234 A  
HETATM   26  C   UNL     1      -7.593  17.730  66.421  1.00  0.00    -0.313 A  
HETATM   27  C   UNL     1      -6.510  17.305  67.181  1.00  0.00    -0.168 A  
HETATM   28  C   UNL     1      -6.431  16.000  67.646  1.00  0.00    -0.189 A  
HETATM   29  F   UNL     1      -5.531  18.171  67.476  1.00  0.00    -0.133 F  
ENDBRANCH  22  23
ENDBRANCH  20  22
ENDBRANCH   7  18
BRANCH  12  30
HETATM   30  C   UNL     1      -6.910   7.022  70.145  1.00  0.00    -0.060 A  
HETATM   31  N   UNL     1      -5.958   7.442  70.960  1.00  0.00    -0.035 NA 
HETATM   32  C   UNL     1      -6.007   5.281  70.973  1.00  0.00    -0.021 A  
HETATM   33  N   UNL     1      -5.375   6.311  71.495  1.00  0.00    -0.022 NA 
HETATM   34  C   UNL     1      -5.777   3.838  71.177  1.00  0.00    -0.013 C  
HETATM   35  O   UNL     1      -7.006   5.651  70.108  1.00  0.00    -0.060 OA 
ENDBRANCH  12  30
TORSDOF 4
ENDMDL
MODEL       82
REMARK 921   NORMALIZED FREE ENERGY PREDICTED BY IDOCK:   -5.03 KCAL/MOL
REMARK 922        TOTAL FREE ENERGY PREDICTED BY IDOCK:   -7.02 KCAL/MOL
REMARK 923 INTER-LIGAND FREE ENERGY PREDICTED BY IDOCK:   -6.13 KCAL/MOL
REMARK 924 INTRA-LIGAND FREE ENERGY PREDICTED BY IDOCK:   -0.89 KCAL/MOL
REMARK 927      BINDING AFFINITY PREDICTED BY RF-SCORE:    0.00 PKD
ROOT
HETATM    1  C   UNL     1      -8.037   6.040  70.503  1.00  0.00    -0.112 C  
HETATM    2  N   UNL     1      -8.321   7.350  69.932  1.00  0.00    -0.132 N  
HETATM    3  C   UNL     1      -7.565   8.375  70.463  1.00  0.00    -0.074 C  
HETATM    4  O   UNL     1      -6.743   8.262  71.374  1.00  0.00    -0.047 OA 
HETATM    5  C   UNL     1      -7.757   9.720  69.906  1.00  0.00    -0.157 C  
HETATM    6  O   UNL     1      -6.945  10.717  70.417  1.00  0.00    -0.456 OA 
HETATM    7  C   UNL     1      -8.702   9.866  68.968  1.00  0.00    -0.151 C  
HETATM    8  N   UNL     1      -9.493   8.823  68.508  1.00  0.00    -0.144 NA 
HETATM    9  H   UNL     1      -9.580   4.411  68.398  1.00  0.00     0.000 HD 
HETATM   10  H   UNL     1      -7.069  11.588  70.056  1.00  0.00     0.000 HD 
HETATM   11  C   UNL     1      -9.292   7.617  68.973  1.00  0.00    -0.146 C  
HETATM   12  C   UNL     1      -8.843   5.286  66.679  1.00  0.00    -0.113 C  
HETATM   13  C   UNL     1     -11.121   5.913  69.631  1.00  0.00    -0.414 C  
HETATM   14  C   UNL     1     -11.281   7.005  67.441  1.00  0.00    -0.150 C  
HETATM   15  C   UNL     1     -10.260   6.445  68.460  1.00  0.00    -0.175 C  
HETATM   16  O   UNL     1      -8.588   6.324  66.076  1.00  0.00    -0.136 OA 
HETATM   17  N   UNL     1      -9.549   5.287  67.876  1.00  0.00    -0.128 N  
ENDROOT
BRANCH   7  18
HETATM   18  C   UNL     1      -8.860  11.271  68.392  1.00  0.00    -0.159 C  
HETATM   19  H   UNL     1     -10.859  10.897  67.907  1.00  0.00     0.000 HD 
HETATM   20  N   UNL     1     -10.112  11.591  67.914  1.00  0.00    -0.184 N  
HETATM   21  O   UNL     1      -7.955  12.101  68.352  1.00  0.00    -0.147 OA 
BRANCH  20  22
HETATM   22  C   UNL     1     -10.348  12.935  67.421  1.00  0.00    -0.233 C  
BRANCH  22  23
HETATM   23  C   UNL     1     -10.941  13.884  68.432  1.00  0.00    -0.272 A  
HETATM   24  C   UNL     1     -11.755  13.373  69.459  1.00  0.00    -0.385 A  
HETATM   25  C   UNL     1     -10.620  15.251  68.441  1.00  0.00    -0.246 A  
HETATM   26  C   UNL     1     -12.288  14.219  70.433  1.00  0.00    -0.419 A  
HETATM   27  C   UNL     1     -11.995  15.577  70.390  1.00  0.00    -0.367 A  
HETATM   28  C   UNL     1     -11.159  16.097  69.411  1.00  0.00    -0.335 A  
HETATM   29  F   UNL     1     -12.520  16.394  71.313  1.00  0.00    -0.367 F  
ENDBRANCH  22  23
ENDBRANCH  20  22
ENDBRANCH   7  18
BRANCH  12  30
HETATM   30  C   UNL     1      -8.448   3.956  66.233  1.00  0.00    -0.109 A  
HETATM   31  N   UNL     1      -8.687   2.826  66.874  1.00  0.00    -0.110 NA 
HETATM   32  C   UNL     1      -7.583   2.401  65.065  1.00  0.00    -0.072 A  
HETATM   33  N   UNL     1      -8.126   1.819  66.113  1.00  0.00    -0.077 NA 
HETATM   34  C   UNL     1      -6.831   1.802  63.945  1.00  0.00    -0.031 C  
HETATM   35  O   UNL     1      -7.752   3.763  65.063  1.00  0.00    -0.083 OA 
ENDBRANCH  12  30
TORSDOF 4
ENDMDL
MODEL       83
REMARK 921   NORMALIZED FREE ENERGY PREDICTED BY IDOCK:   -5.02 KCAL/MOL
REMARK 922        TOTAL FREE ENERGY PREDICTED BY IDOCK:   -7.01 KCAL/MOL
REMARK 923 INTER-LIGAND FREE ENERGY PREDICTED BY IDOCK:   -6.38 KCAL/MOL
REMARK 924 INTRA-LIGAND FREE ENERGY PREDICTED BY IDOCK:   -0.64 KCAL/MOL
REMARK 927      BINDING AFFINITY PREDICTED BY RF-SCORE:    0.00 PKD
ROOT
HETATM    1  C   UNL     1     -11.752   6.912  71.448  1.00  0.00    -0.316 C  
HETATM    2  N   UNL     1     -11.080   7.950  70.678  1.00  0.00    -0.257 N  
HETATM    3  C   UNL     1     -11.610   9.212  70.846  1.00  0.00    -0.291 C  
HETATM    4  O   UNL     1     -12.593   9.492  71.535  1.00  0.00    -0.326 OA 
HETATM    5  C   UNL     1     -10.958  10.323  70.140  1.00  0.00    -0.314 C  
HETATM    6  O   UNL     1     -11.475  11.585  70.372  1.00  0.00    -0.495 OA 
HETATM    7  C   UNL     1      -9.936  10.019  69.330  1.00  0.00    -0.223 C  
HETATM    8  N   UNL     1      -9.474   8.725  69.131  1.00  0.00    -0.156 NA 
HETATM    9  H   UNL     1      -9.626   4.733  71.008  1.00  0.00     0.000 HD 
HETATM   10  H   UNL     1     -11.053  12.304  69.916  1.00  0.00     0.000 HD 
HETATM   11  C   UNL     1     -10.027   7.742  69.794  1.00  0.00    -0.189 C  
HETATM   12  C   UNL     1      -7.926   5.815  71.458  1.00  0.00    -0.113 C  
HETATM   13  C   UNL     1     -10.629   5.414  68.844  1.00  0.00    -0.197 C  
HETATM   14  C   UNL     1      -8.371   6.285  68.448  1.00  0.00    -0.115 C  
HETATM   15  C   UNL     1      -9.505   6.254  69.500  1.00  0.00    -0.141 C  
HETATM   16  O   UNL     1      -7.285   6.848  71.292  1.00  0.00    -0.074 OA 
HETATM   17  N   UNL     1      -9.056   5.522  70.704  1.00  0.00    -0.143 N  
ENDROOT
BRANCH   7  18
HETATM   18  C   UNL     1      -9.263  11.197  68.630  1.00  0.00    -0.171 C  
HETATM   19  H   UNL     1     -10.884  11.409  67.328  1.00  0.00     0.000 HD 
HETATM   20  N   UNL     1      -9.981  11.787  67.614  1.00  0.00    -0.191 N  
HETATM   21  O   UNL     1      -8.156  11.633  68.936  1.00  0.00    -0.108 OA 
BRANCH  20  22
HETATM   22  C   UNL     1      -9.429  12.958  66.958  1.00  0.00    -0.235 C  
BRANCH  22  23
HETATM   23  C   UNL     1      -9.729  14.267  67.645  1.00  0.00    -0.220 A  
HETATM   24  C   UNL     1      -8.664  15.119  67.993  1.00  0.00    -0.165 A  
HETATM   25  C   UNL     1     -11.044  14.709  67.853  1.00  0.00    -0.301 A  
HETATM   26  C   UNL     1      -8.910  16.355  68.595  1.00  0.00    -0.234 A  
HETATM   27  C   UNL     1     -10.220  16.747  68.835  1.00  0.00    -0.304 A  
HETATM   28  C   UNL     1     -11.288  15.942  68.461  1.00  0.00    -0.374 A  
HETATM   29  F   UNL     1     -10.458  17.924  69.429  1.00  0.00    -0.349 F  
ENDBRANCH  22  23
ENDBRANCH  20  22
ENDBRANCH   7  18
BRANCH  12  30
HETATM   30  C   UNL     1      -7.597   4.792  72.443  1.00  0.00    -0.086 A  
HETATM   31  N   UNL     1      -6.424   4.638  73.031  1.00  0.00    -0.041 NA 
HETATM   32  C   UNL     1      -7.781   3.109  73.733  1.00  0.00    -0.064 A  
HETATM   33  N   UNL     1      -6.547   3.546  73.867  1.00  0.00    -0.033 NA 
HETATM   34  C   UNL     1      -8.442   1.954  74.373  1.00  0.00    -0.057 C  
HETATM   35  O   UNL     1      -8.518   3.855  72.848  1.00  0.00    -0.093 OA 
ENDBRANCH  12  30
TORSDOF 4
ENDMDL
MODEL       84
REMARK 921   NORMALIZED FREE ENERGY PREDICTED BY IDOCK:   -5.01 KCAL/MOL
REMARK 922        TOTAL FREE ENERGY PREDICTED BY IDOCK:   -6.99 KCAL/MOL
REMARK 923 INTER-LIGAND FREE ENERGY PREDICTED BY IDOCK:   -5.97 KCAL/MOL
REMARK 924 INTRA-LIGAND FREE ENERGY PREDICTED BY IDOCK:   -1.02 KCAL/MOL
REMARK 927      BINDING AFFINITY PREDICTED BY RF-SCORE:    0.00 PKD
ROOT
HETATM    1  C   UNL     1      -7.435  11.732  68.575  1.00  0.00    -0.110 C  
HETATM    2  N   UNL     1      -7.632  10.289  68.584  1.00  0.00    -0.085 N  
HETATM    3  C   UNL     1      -7.447   9.700  69.818  1.00  0.00    -0.110 C  
HETATM    4  O   UNL     1      -7.099  10.284  70.846  1.00  0.00    -0.278 OA 
HETATM    5  C   UNL     1      -7.676   8.253  69.922  1.00  0.00    -0.097 C  
HETATM    6  O   UNL     1      -7.539   7.699  71.183  1.00  0.00    -0.077 OA 
HETATM    7  C   UNL     1      -7.981   7.598  68.795  1.00  0.00    -0.126 C  
HETATM    8  N   UNL     1      -8.090   8.214  67.556  1.00  0.00    -0.121 NA 
HETATM    9  H   UNL     1      -8.633  12.221  65.784  1.00  0.00     0.000 HD 
HETATM   10  H   UNL     1      -7.687   6.763  71.250  1.00  0.00     0.000 HD 
HETATM   11  C   UNL     1      -7.929   9.510  67.471  1.00  0.00    -0.106 C  
HETATM   12  C   UNL     1     -10.378  11.131  65.964  1.00  0.00    -0.254 C  
HETATM   13  C   UNL     1      -6.630  10.767  65.624  1.00  0.00    -0.026 C  
HETATM   14  C   UNL     1      -8.298   9.102  64.947  1.00  0.00    -0.169 C  
HETATM   15  C   UNL     1      -8.008  10.182  66.017  1.00  0.00    -0.124 C  
HETATM   16  O   UNL     1     -10.907  10.075  66.299  1.00  0.00    -0.009 OA 
HETATM   17  N   UNL     1      -8.997  11.276  65.910  1.00  0.00    -0.206 N  
ENDROOT
BRANCH   7  18
HETATM   18  C   UNL     1      -8.236   6.100  68.940  1.00  0.00    -0.112 C  
HETATM   19  H   UNL     1     -10.089   6.276  67.988  1.00  0.00     0.000 HD 
HETATM   20  N   UNL     1      -9.416   5.633  68.404  1.00  0.00    -0.118 N  
HETATM   21  O   UNL     1      -7.454   5.322  69.480  1.00  0.00    -0.063 OA 
BRANCH  20  22
HETATM   22  C   UNL     1      -9.683   4.207  68.443  1.00  0.00    -0.081 C  
BRANCH  22  23
HETATM   23  C   UNL     1      -9.466   3.487  67.136  1.00  0.00    -0.219 A  
HETATM   24  C   UNL     1      -9.613   4.196  65.929  1.00  0.00    -0.193 A  
HETATM   25  C   UNL     1      -9.020   2.157  67.089  1.00  0.00    -0.160 A  
HETATM   26  C   UNL     1      -9.381   3.569  64.703  1.00  0.00    -0.150 A  
HETATM   27  C   UNL     1      -8.988   2.237  64.683  1.00  0.00    -0.121 A  
HETATM   28  C   UNL     1      -8.796   1.530  65.862  1.00  0.00    -0.119 A  
HETATM   29  F   UNL     1      -8.783   1.628  63.507  1.00  0.00    -0.076 F  
ENDBRANCH  22  23
ENDBRANCH  20  22
ENDBRANCH   7  18
BRANCH  12  30
HETATM   30  C   UNL     1     -11.108  12.337  65.594  1.00  0.00    -0.317 A  
HETATM   31  N   UNL     1     -12.412  12.417  65.395  1.00  0.00    -0.613 NA 
HETATM   32  C   UNL     1     -11.518  14.355  65.056  1.00  0.00    -0.372 A  
HETATM   33  N   UNL     1     -12.674  13.727  65.046  1.00  0.00    -0.688 NA 
HETATM   34  C   UNL     1     -11.213  15.764  64.735  1.00  0.00    -0.375 C  
HETATM   35  O   UNL     1     -10.470  13.540  65.404  1.00  0.00    -0.294 OA 
ENDBRANCH  12  30
TORSDOF 4
ENDMDL
MODEL       85
REMARK 921   NORMALIZED FREE ENERGY PREDICTED BY IDOCK:   -4.98 KCAL/MOL
REMARK 922        TOTAL FREE ENERGY PREDICTED BY IDOCK:   -6.96 KCAL/MOL
REMARK 923 INTER-LIGAND FREE ENERGY PREDICTED BY IDOCK:   -6.18 KCAL/MOL
REMARK 924 INTRA-LIGAND FREE ENERGY PREDICTED BY IDOCK:   -0.78 KCAL/MOL
REMARK 927      BINDING AFFINITY PREDICTED BY RF-SCORE:    0.00 PKD
ROOT
HETATM    1  C   UNL     1     -11.436   9.771  69.029  1.00  0.00     0.133 C  
HETATM    2  N   UNL     1     -11.233  11.208  69.146  1.00  0.00    -0.240 N  
HETATM    3  C   UNL     1     -12.029  11.817  70.094  1.00  0.00    -0.339 C  
HETATM    4  O   UNL     1     -12.888  11.255  70.777  1.00  0.00    -0.277 OA 
HETATM    5  C   UNL     1     -11.850  13.258  70.308  1.00  0.00    -0.234 C  
HETATM    6  O   UNL     1     -12.621  13.832  71.304  1.00  0.00    -0.342 OA 
HETATM    7  C   UNL     1     -10.973  13.891  69.519  1.00  0.00    -0.063 C  
HETATM    8  N   UNL     1     -10.239  13.257  68.526  1.00  0.00    -0.239 NA 
HETATM    9  H   UNL     1      -8.951   9.216  67.303  1.00  0.00     0.000 HD 
HETATM   10  H   UNL     1     -12.505  14.764  71.443  1.00  0.00     0.000 HD 
HETATM   11  C   UNL     1     -10.367  11.965  68.365  1.00  0.00    -0.209 C  
HETATM   12  C   UNL     1      -7.539  10.262  68.388  1.00  0.00    -0.092 C  
HETATM   13  C   UNL     1     -10.519  10.719  66.105  1.00  0.00    -0.278 C  
HETATM   14  C   UNL     1      -8.700  12.331  66.426  1.00  0.00    -0.019 C  
HETATM   15  C   UNL     1      -9.545  11.274  67.173  1.00  0.00    -0.177 C  
HETATM   16  O   UNL     1      -7.240  11.308  68.956  1.00  0.00    -0.103 OA 
HETATM   17  N   UNL     1      -8.682  10.153  67.606  1.00  0.00    -0.122 N  
ENDROOT
BRANCH   7  18
HETATM   18  C   UNL     1     -10.791  15.384  69.782  1.00  0.00    -0.288 C  
HETATM   19  H   UNL     1      -9.049  15.423  68.627  1.00  0.00     0.000 HD 
HETATM   20  N   UNL     1      -9.708  15.979  69.173  1.00  0.00    -0.238 N  
HETATM   21  O   UNL     1     -11.553  16.054  70.475  1.00  0.00    -0.354 OA 
BRANCH  20  22
HETATM   22  C   UNL     1      -9.522  17.410  69.323  1.00  0.00     0.083 C  
BRANCH  22  23
HETATM   23  C   UNL     1      -9.858  18.222  68.098  1.00  0.00    -0.356 A  
HETATM   24  C   UNL     1     -10.221  17.559  66.911  1.00  0.00    -0.329 A  
HETATM   25  C   UNL     1      -9.921  19.624  68.135  1.00  0.00    -0.547 A  
HETATM   26  C   UNL     1     -10.575  18.282  65.771  1.00  0.00    -0.205 A  
HETATM   27  C   UNL     1     -10.581  19.671  65.820  1.00  0.00    -0.438 A  
HETATM   28  C   UNL     1     -10.268  20.346  66.992  1.00  0.00    -0.421 A  
HETATM   29  F   UNL     1     -10.903  20.367  64.722  1.00  0.00    -0.254 F  
ENDBRANCH  22  23
ENDBRANCH  20  22
ENDBRANCH   7  18
BRANCH  12  30
HETATM   30  C   UNL     1      -6.759   9.033  68.460  1.00  0.00    -0.059 A  
HETATM   31  N   UNL     1      -5.794   8.683  67.627  1.00  0.00    -0.042 NA 
HETATM   32  C   UNL     1      -6.061   7.129  69.106  1.00  0.00    -0.026 A  
HETATM   33  N   UNL     1      -5.344   7.448  68.049  1.00  0.00    -0.024 NA 
HETATM   34  C   UNL     1      -6.017   5.908  69.935  1.00  0.00    -0.025 C  
HETATM   35  O   UNL     1      -6.981   8.092  69.437  1.00  0.00    -0.049 OA 
ENDBRANCH  12  30
TORSDOF 4
ENDMDL
MODEL       86
REMARK 921   NORMALIZED FREE ENERGY PREDICTED BY IDOCK:   -4.92 KCAL/MOL
REMARK 922        TOTAL FREE ENERGY PREDICTED BY IDOCK:   -6.88 KCAL/MOL
REMARK 923 INTER-LIGAND FREE ENERGY PREDICTED BY IDOCK:   -6.00 KCAL/MOL
REMARK 924 INTRA-LIGAND FREE ENERGY PREDICTED BY IDOCK:   -0.88 KCAL/MOL
REMARK 927      BINDING AFFINITY PREDICTED BY RF-SCORE:    0.00 PKD
ROOT
HETATM    1  C   UNL     1      -8.419   7.933  71.349  1.00  0.00    -0.119 C  
HETATM    2  N   UNL     1      -8.660   8.515  70.036  1.00  0.00    -0.131 N  
HETATM    3  C   UNL     1      -8.042   9.732  69.834  1.00  0.00    -0.182 C  
HETATM    4  O   UNL     1      -7.374  10.345  70.670  1.00  0.00    -0.197 OA 
HETATM    5  C   UNL     1      -8.196  10.363  68.517  1.00  0.00    -0.119 C  
HETATM    6  O   UNL     1      -7.519  11.554  68.324  1.00  0.00    -0.090 OA 
HETATM    7  C   UNL     1      -8.982   9.742  67.628  1.00  0.00    -0.128 C  
HETATM    8  N   UNL     1      -9.645   8.551  67.891  1.00  0.00    -0.149 NA 
HETATM    9  H   UNL     1      -9.532   5.142  70.693  1.00  0.00     0.000 HD 
HETATM   10  H   UNL     1      -7.619  11.962  67.471  1.00  0.00     0.000 HD 
HETATM   11  C   UNL     1      -9.473   7.968  69.050  1.00  0.00    -0.151 C  
HETATM   12  C   UNL     1      -8.563   4.798  68.903  1.00  0.00    -0.084 C  
HETATM   13  C   UNL     1     -11.313   6.855  70.484  1.00  0.00    -0.374 C  
HETATM   14  C   UNL     1     -11.160   6.251  68.113  1.00  0.00    -0.364 C  
HETATM   15  C   UNL     1     -10.296   6.622  69.341  1.00  0.00    -0.199 C  
HETATM   16  O   UNL     1      -8.256   5.228  67.795  1.00  0.00    -0.099 OA 
HETATM   17  N   UNL     1      -9.453   5.471  69.731  1.00  0.00    -0.143 N  
ENDROOT
BRANCH   7  18
HETATM   18  C   UNL     1      -9.102  10.409  66.260  1.00  0.00    -0.158 C  
HETATM   19  H   UNL     1     -11.157  10.685  66.524  1.00  0.00     0.000 HD 
HETATM   20  N   UNL     1     -10.359  10.852  65.911  1.00  0.00    -0.257 N  
HETATM   21  O   UNL     1      -8.156  10.574  65.494  1.00  0.00    -0.157 OA 
BRANCH  20  22
HETATM   22  C   UNL     1     -10.525  11.561  64.656  1.00  0.00    -0.301 C  
BRANCH  22  23
HETATM   23  C   UNL     1     -10.727  13.049  64.793  1.00  0.00    -0.370 A  
HETATM   24  C   UNL     1      -9.803  13.802  65.541  1.00  0.00    -0.189 A  
HETATM   25  C   UNL     1     -11.751  13.722  64.109  1.00  0.00    -0.397 A  
HETATM   26  C   UNL     1      -9.939  15.186  65.654  1.00  0.00    -0.387 A  
HETATM   27  C   UNL     1     -10.992  15.822  65.008  1.00  0.00    -0.417 A  
HETATM   28  C   UNL     1     -11.891  15.106  64.229  1.00  0.00    -0.263 A  
HETATM   29  F   UNL     1     -11.135  17.149  65.130  1.00  0.00    -0.356 F  
ENDBRANCH  22  23
ENDBRANCH  20  22
ENDBRANCH   7  18
BRANCH  12  30
HETATM   30  C   UNL     1      -8.047   3.562  69.478  1.00  0.00    -0.053 A  
HETATM   31  N   UNL     1      -8.777   2.587  69.989  1.00  0.00    -0.063 NA 
HETATM   32  C   UNL     1      -6.683   2.081  70.167  1.00  0.00    -0.033 A  
HETATM   33  N   UNL     1      -7.889   1.628  70.435  1.00  0.00    -0.039 NA 
HETATM   34  C   UNL     1      -5.369   1.472  70.452  1.00  0.00    -0.004 C  
HETATM   35  O   UNL     1      -6.698   3.306  69.549  1.00  0.00    -0.033 OA 
ENDBRANCH  12  30
TORSDOF 4
ENDMDL
MODEL       87
REMARK 921   NORMALIZED FREE ENERGY PREDICTED BY IDOCK:   -4.89 KCAL/MOL
REMARK 922        TOTAL FREE ENERGY PREDICTED BY IDOCK:   -6.85 KCAL/MOL
REMARK 923 INTER-LIGAND FREE ENERGY PREDICTED BY IDOCK:   -6.10 KCAL/MOL
REMARK 924 INTRA-LIGAND FREE ENERGY PREDICTED BY IDOCK:   -0.75 KCAL/MOL
REMARK 927      BINDING AFFINITY PREDICTED BY RF-SCORE:    0.00 PKD
ROOT
HETATM    1  C   UNL     1     -10.154  10.695  69.424  1.00  0.00    -0.174 C  
HETATM    2  N   UNL     1     -10.092   9.396  68.767  1.00  0.00    -0.186 N  
HETATM    3  C   UNL     1     -10.698   8.376  69.472  1.00  0.00    -0.175 C  
HETATM    4  O   UNL     1     -11.220   8.484  70.583  1.00  0.00    -0.252 OA 
HETATM    5  C   UNL     1     -10.721   7.044  68.855  1.00  0.00    -0.200 C  
HETATM    6  O   UNL     1     -11.386   6.054  69.557  1.00  0.00    -0.405 OA 
HETATM    7  C   UNL     1     -10.091   6.900  67.682  1.00  0.00    -0.161 C  
HETATM    8  N   UNL     1      -9.429   7.935  67.036  1.00  0.00    -0.163 NA 
HETATM    9  H   UNL     1      -9.226  12.345  66.999  1.00  0.00     0.000 HD 
HETATM   10  H   UNL     1     -11.401   5.192  69.158  1.00  0.00     0.000 HD 
HETATM   11  C   UNL     1      -9.447   9.132  67.564  1.00  0.00    -0.139 C  
HETATM   12  C   UNL     1     -10.454  11.542  65.547  1.00  0.00    -0.275 C  
HETATM   13  C   UNL     1      -7.448  10.765  67.704  1.00  0.00    -0.095 C  
HETATM   14  C   UNL     1      -7.962   9.735  65.538  1.00  0.00    -0.123 C  
HETATM   15  C   UNL     1      -8.627  10.292  66.819  1.00  0.00    -0.127 C  
HETATM   16  O   UNL     1     -10.908  10.530  65.021  1.00  0.00    -0.052 OA 
HETATM   17  N   UNL     1      -9.435  11.486  66.489  1.00  0.00    -0.199 N  
ENDROOT
BRANCH   7  18
HETATM   18  C   UNL     1     -10.153   5.510  67.055  1.00  0.00    -0.194 C  
HETATM   19  H   UNL     1      -8.522   4.871  68.195  1.00  0.00     0.000 HD 
HETATM   20  N   UNL     1      -9.230   4.597  67.514  1.00  0.00    -0.125 N  
HETATM   21  O   UNL     1     -10.973   5.181  66.200  1.00  0.00    -0.237 OA 
BRANCH  20  22
HETATM   22  C   UNL     1      -9.284   3.237  67.012  1.00  0.00    -0.180 C  
BRANCH  22  23
HETATM   23  C   UNL     1      -8.444   2.982  65.786  1.00  0.00    -0.110 A  
HETATM   24  C   UNL     1      -9.069   2.542  64.604  1.00  0.00    -0.130 A  
HETATM   25  C   UNL     1      -7.071   3.271  65.756  1.00  0.00    -0.066 A  
HETATM   26  C   UNL     1      -8.326   2.334  63.441  1.00  0.00    -0.081 A  
HETATM   27  C   UNL     1      -6.959   2.580  63.453  1.00  0.00    -0.036 A  
HETATM   28  C   UNL     1      -6.328   3.056  64.594  1.00  0.00    -0.023 A  
HETATM   29  F   UNL     1      -6.241   2.365  62.343  1.00  0.00    -0.008 F  
ENDBRANCH  22  23
ENDBRANCH  20  22
ENDBRANCH   7  18
BRANCH  12  30
HETATM   30  C   UNL     1     -10.915  12.895  65.261  1.00  0.00    -0.283 A  
HETATM   31  N   UNL     1     -11.995  13.211  64.568  1.00  0.00    -0.369 NA 
HETATM   32  C   UNL     1     -10.991  15.021  65.191  1.00  0.00    -0.406 A  
HETATM   33  N   UNL     1     -12.041  14.590  64.525  1.00  0.00    -0.476 NA 
HETATM   34  C   UNL     1     -10.539  16.405  65.436  1.00  0.00    -0.338 C  
HETATM   35  O   UNL     1     -10.226  14.001  65.700  1.00  0.00    -0.308 OA 
ENDBRANCH  12  30
TORSDOF 4
ENDMDL
MODEL       88
REMARK 921   NORMALIZED FREE ENERGY PREDICTED BY IDOCK:   -4.89 KCAL/MOL
REMARK 922        TOTAL FREE ENERGY PREDICTED BY IDOCK:   -6.85 KCAL/MOL
REMARK 923 INTER-LIGAND FREE ENERGY PREDICTED BY IDOCK:   -6.55 KCAL/MOL
REMARK 924 INTRA-LIGAND FREE ENERGY PREDICTED BY IDOCK:   -0.30 KCAL/MOL
REMARK 927      BINDING AFFINITY PREDICTED BY RF-SCORE:    0.00 PKD
ROOT
HETATM    1  C   UNL     1     -11.130   5.891  70.029  1.00  0.00    -0.341 C  
HETATM    2  N   UNL     1     -10.797   7.249  69.621  1.00  0.00    -0.238 N  
HETATM    3  C   UNL     1     -11.284   8.228  70.462  1.00  0.00    -0.239 C  
HETATM    4  O   UNL     1     -11.985   8.034  71.457  1.00  0.00    -0.280 OA 
HETATM    5  C   UNL     1     -10.950   9.623  70.147  1.00  0.00    -0.275 C  
HETATM    6  O   UNL     1     -11.403  10.579  71.039  1.00  0.00    -0.312 OA 
HETATM    7  C   UNL     1     -10.252   9.848  69.027  1.00  0.00    -0.200 C  
HETATM    8  N   UNL     1      -9.839   8.842  68.166  1.00  0.00    -0.162 NA 
HETATM    9  H   UNL     1      -9.201   4.474  68.096  1.00  0.00     0.000 HD 
HETATM   10  H   UNL     1     -11.187  11.481  70.835  1.00  0.00     0.000 HD 
HETATM   11  C   UNL     1     -10.099   7.596  68.469  1.00  0.00    -0.190 C  
HETATM   12  C   UNL     1      -7.490   5.573  68.451  1.00  0.00    -0.077 C  
HETATM   13  C   UNL     1     -10.902   5.763  66.832  1.00  0.00    -0.337 C  
HETATM   14  C   UNL     1      -8.945   7.104  66.211  1.00  0.00    -0.181 C  
HETATM   15  C   UNL     1      -9.654   6.461  67.426  1.00  0.00    -0.120 C  
HETATM   16  O   UNL     1      -6.981   6.684  68.566  1.00  0.00    -0.074 OA 
HETATM   17  N   UNL     1      -8.797   5.407  68.010  1.00  0.00    -0.106 N  
ENDROOT
BRANCH   7  18
HETATM   18  C   UNL     1      -9.900  11.306  68.739  1.00  0.00    -0.184 C  
HETATM   19  H   UNL     1     -11.886  11.891  69.026  1.00  0.00     0.000 HD 
HETATM   20  N   UNL     1     -10.937  12.208  68.830  1.00  0.00    -0.227 N  
HETATM   21  O   UNL     1      -8.768  11.693  68.457  1.00  0.00    -0.161 OA 
BRANCH  20  22
HETATM   22  C   UNL     1     -10.652  13.618  68.642  1.00  0.00    -0.248 C  
BRANCH  22  23
HETATM   23  C   UNL     1     -11.001  14.156  67.277  1.00  0.00    -0.304 A  
HETATM   24  C   UNL     1     -12.137  13.658  66.611  1.00  0.00    -0.459 A  
HETATM   25  C   UNL     1     -10.286  15.215  66.694  1.00  0.00    -0.274 A  
HETATM   26  C   UNL     1     -12.509  14.163  65.364  1.00  0.00    -0.488 A  
HETATM   27  C   UNL     1     -11.755  15.176  64.786  1.00  0.00    -0.331 A  
HETATM   28  C   UNL     1     -10.656  15.713  65.444  1.00  0.00    -0.436 A  
HETATM   29  F   UNL     1     -12.100  15.649  63.582  1.00  0.00    -0.131 F  
ENDBRANCH  22  23
ENDBRANCH  20  22
ENDBRANCH   7  18
BRANCH  12  30
HETATM   30  C   UNL     1      -6.810   4.321  68.756  1.00  0.00    -0.047 A  
HETATM   31  N   UNL     1      -6.044   3.637  67.923  1.00  0.00    -0.031 NA 
HETATM   32  C   UNL     1      -6.161   2.589  69.810  1.00  0.00    -0.025 A  
HETATM   33  N   UNL     1      -5.625   2.516  68.610  1.00  0.00    -0.017 NA 
HETATM   34  C   UNL     1      -6.065   1.644  70.940  1.00  0.00    -0.018 C  
HETATM   35  O   UNL     1      -6.925   3.716  69.985  1.00  0.00    -0.040 OA 
ENDBRANCH  12  30
TORSDOF 4
ENDMDL
MODEL       89
REMARK 921   NORMALIZED FREE ENERGY PREDICTED BY IDOCK:   -4.87 KCAL/MOL
REMARK 922        TOTAL FREE ENERGY PREDICTED BY IDOCK:   -6.82 KCAL/MOL
REMARK 923 INTER-LIGAND FREE ENERGY PREDICTED BY IDOCK:   -6.43 KCAL/MOL
REMARK 924 INTRA-LIGAND FREE ENERGY PREDICTED BY IDOCK:   -0.39 KCAL/MOL
REMARK 927      BINDING AFFINITY PREDICTED BY RF-SCORE:    0.00 PKD
ROOT
HETATM    1  C   UNL     1     -11.820  11.478  68.657  1.00  0.00    -0.318 C  
HETATM    2  N   UNL     1     -10.512  12.108  68.536  1.00  0.00    -0.230 N  
HETATM    3  C   UNL     1     -10.542  13.486  68.581  1.00  0.00    -0.244 C  
HETATM    4  O   UNL     1     -11.558  14.179  68.667  1.00  0.00    -0.278 OA 
HETATM    5  C   UNL     1      -9.259  14.197  68.515  1.00  0.00    -0.187 C  
HETATM    6  O   UNL     1      -9.314  15.575  68.621  1.00  0.00    -0.186 OA 
HETATM    7  C   UNL     1      -8.156  13.456  68.347  1.00  0.00    -0.138 C  
HETATM    8  N   UNL     1      -8.172  12.073  68.234  1.00  0.00    -0.156 NA 
HETATM    9  H   UNL     1     -10.778   8.618  69.104  1.00  0.00     0.000 HD 
HETATM   10  H   UNL     1      -8.483  16.035  68.578  1.00  0.00     0.000 HD 
HETATM   11  C   UNL     1      -9.311  11.437  68.337  1.00  0.00    -0.194 C  
HETATM   12  C   UNL     1      -9.358   8.993  70.555  1.00  0.00    -0.219 C  
HETATM   13  C   UNL     1     -10.086   9.453  66.873  1.00  0.00    -0.314 C  
HETATM   14  C   UNL     1      -7.857   9.349  67.891  1.00  0.00    -0.091 C  
HETATM   15  C   UNL     1      -9.300   9.844  68.148  1.00  0.00    -0.131 C  
HETATM   16  O   UNL     1      -8.409   9.681  70.918  1.00  0.00    -0.272 OA 
HETATM   17  N   UNL     1      -9.895   9.098  69.278  1.00  0.00    -0.170 N  
ENDROOT
BRANCH   7  18
HETATM   18  C   UNL     1      -6.835  14.221  68.306  1.00  0.00    -0.109 C  
HETATM   19  H   UNL     1      -7.475  15.329  66.653  1.00  0.00     0.000 HD 
HETATM   20  N   UNL     1      -6.726  15.188  67.331  1.00  0.00    -0.161 N  
HETATM   21  O   UNL     1      -5.908  14.027  69.089  1.00  0.00    -0.083 OA 
BRANCH  20  22
HETATM   22  C   UNL     1      -5.525  16.000  67.287  1.00  0.00     0.017 C  
BRANCH  22  23
HETATM   23  C   UNL     1      -5.747  17.434  66.877  1.00  0.00    -0.202 A  
HETATM   24  C   UNL     1      -5.267  17.875  65.629  1.00  0.00    -0.201 A  
HETATM   25  C   UNL     1      -6.510  18.317  67.657  1.00  0.00    -0.192 A  
HETATM   26  C   UNL     1      -5.490  19.185  65.203  1.00  0.00    -0.222 A  
HETATM   27  C   UNL     1      -6.206  20.054  66.018  1.00  0.00    -0.190 A  
HETATM   28  C   UNL     1      -6.726  19.629  67.233  1.00  0.00    -0.226 A  
HETATM   29  F   UNL     1      -6.406  21.317  65.619  1.00  0.00    -0.285 F  
ENDBRANCH  22  23
ENDBRANCH  20  22
ENDBRANCH   7  18
BRANCH  12  30
HETATM   30  C   UNL     1     -10.029   8.007  71.393  1.00  0.00    -0.178 A  
HETATM   31  N   UNL     1     -11.169   7.403  71.110  1.00  0.00    -0.253 NA 
HETATM   32  C   UNL     1     -10.460   6.724  73.036  1.00  0.00    -0.254 A  
HETATM   33  N   UNL     1     -11.446   6.572  72.177  1.00  0.00    -0.279 NA 
HETATM   34  C   UNL     1     -10.262   6.096  74.357  1.00  0.00    -0.332 C  
HETATM   35  O   UNL     1      -9.511   7.617  72.606  1.00  0.00    -0.150 OA 
ENDBRANCH  12  30
TORSDOF 4
ENDMDL
MODEL       90
REMARK 921   NORMALIZED FREE ENERGY PREDICTED BY IDOCK:   -4.86 KCAL/MOL
REMARK 922        TOTAL FREE ENERGY PREDICTED BY IDOCK:   -6.82 KCAL/MOL
REMARK 923 INTER-LIGAND FREE ENERGY PREDICTED BY IDOCK:   -5.90 KCAL/MOL
REMARK 924 INTRA-LIGAND FREE ENERGY PREDICTED BY IDOCK:   -0.92 KCAL/MOL
REMARK 927      BINDING AFFINITY PREDICTED BY RF-SCORE:    0.00 PKD
ROOT
HETATM    1  C   UNL     1      -7.606   5.178  69.108  1.00  0.00    -0.069 C  
HETATM    2  N   UNL     1      -8.173   6.512  68.960  1.00  0.00    -0.115 N  
HETATM    3  C   UNL     1      -8.515   6.840  67.664  1.00  0.00    -0.122 C  
HETATM    4  O   UNL     1      -8.336   6.129  66.673  1.00  0.00    -0.109 OA 
HETATM    5  C   UNL     1      -9.138   8.150  67.437  1.00  0.00    -0.134 C  
HETATM    6  O   UNL     1      -9.523   8.430  66.137  1.00  0.00    -0.248 OA 
HETATM    7  C   UNL     1      -9.267   8.960  68.495  1.00  0.00    -0.137 C  
HETATM    8  N   UNL     1      -8.846   8.622  69.774  1.00  0.00    -0.135 NA 
HETATM    9  H   UNL     1      -7.774   5.078  72.178  1.00  0.00     0.000 HD 
HETATM   10  H   UNL     1      -9.926   9.278  65.990  1.00  0.00     0.000 HD 
HETATM   11  C   UNL     1      -8.331   7.438  69.984  1.00  0.00    -0.137 C  
HETATM   12  C   UNL     1      -9.719   5.719  72.437  1.00  0.00    -0.159 C  
HETATM   13  C   UNL     1      -6.269   6.912  71.452  1.00  0.00    -0.037 C  
HETATM   14  C   UNL     1      -8.049   8.305  72.402  1.00  0.00    -0.204 C  
HETATM   15  C   UNL     1      -7.805   7.101  71.462  1.00  0.00    -0.093 C  
HETATM   16  O   UNL     1     -10.582   6.544  72.151  1.00  0.00    -0.207 OA 
HETATM   17  N   UNL     1      -8.395   5.877  72.048  1.00  0.00    -0.115 N  
ENDROOT
BRANCH   7  18
HETATM   18  C   UNL     1      -9.940  10.305  68.232  1.00  0.00    -0.147 C  
HETATM   19  H   UNL     1     -11.768   9.582  68.943  1.00  0.00     0.000 HD 
HETATM   20  N   UNL     1     -11.269  10.395  68.581  1.00  0.00    -0.260 N  
HETATM   21  O   UNL     1      -9.361  11.277  67.754  1.00  0.00    -0.157 OA 
BRANCH  20  22
HETATM   22  C   UNL     1     -11.947  11.668  68.425  1.00  0.00    -0.196 C  
BRANCH  22  23
HETATM   23  C   UNL     1     -12.259  12.381  69.717  1.00  0.00    -0.198 A  
HETATM   24  C   UNL     1     -12.612  11.625  70.851  1.00  0.00    -0.409 A  
HETATM   25  C   UNL     1     -12.106  13.770  69.851  1.00  0.00    -0.412 A  
HETATM   26  C   UNL     1     -12.869  12.252  72.071  1.00  0.00    -0.260 A  
HETATM   27  C   UNL     1     -12.759  13.633  72.165  1.00  0.00    -0.165 A  
HETATM   28  C   UNL     1     -12.371  14.395  71.071  1.00  0.00    -0.427 A  
HETATM   29  F   UNL     1     -13.023  14.238  73.330  1.00  0.00    -0.587 F  
ENDBRANCH  22  23
ENDBRANCH  20  22
ENDBRANCH   7  18
BRANCH  12  30
HETATM   30  C   UNL     1      -9.966   4.501  73.197  1.00  0.00    -0.144 A  
HETATM   31  N   UNL     1      -9.157   3.983  74.105  1.00  0.00    -0.096 NA 
HETATM   32  C   UNL     1     -10.899   2.719  73.895  1.00  0.00    -0.199 A  
HETATM   33  N   UNL     1      -9.766   2.828  74.556  1.00  0.00    -0.094 NA 
HETATM   34  C   UNL     1     -11.927   1.662  73.964  1.00  0.00    -0.003 C  
HETATM   35  O   UNL     1     -11.104   3.752  73.014  1.00  0.00    -0.125 OA 
ENDBRANCH  12  30
TORSDOF 4
ENDMDL
MODEL       91
REMARK 921   NORMALIZED FREE ENERGY PREDICTED BY IDOCK:   -4.85 KCAL/MOL
REMARK 922        TOTAL FREE ENERGY PREDICTED BY IDOCK:   -6.80 KCAL/MOL
REMARK 923 INTER-LIGAND FREE ENERGY PREDICTED BY IDOCK:   -5.94 KCAL/MOL
REMARK 924 INTRA-LIGAND FREE ENERGY PREDICTED BY IDOCK:   -0.86 KCAL/MOL
REMARK 927      BINDING AFFINITY PREDICTED BY RF-SCORE:    0.00 PKD
ROOT
HETATM    1  C   UNL     1      -9.968  15.377  70.144  1.00  0.00    -0.063 C  
HETATM    2  N   UNL     1      -9.947  14.316  69.146  1.00  0.00    -0.095 N  
HETATM    3  C   UNL     1     -11.075  13.521  69.142  1.00  0.00    -0.225 C  
HETATM    4  O   UNL     1     -12.026  13.622  69.921  1.00  0.00    -0.311 OA 
HETATM    5  C   UNL     1     -11.155  12.458  68.133  1.00  0.00    -0.247 C  
HETATM    6  O   UNL     1     -12.321  11.714  68.115  1.00  0.00    -0.429 OA 
HETATM    7  C   UNL     1     -10.095  12.293  67.332  1.00  0.00    -0.200 C  
HETATM    8  N   UNL     1      -8.946  13.068  67.411  1.00  0.00    -0.194 NA 
HETATM    9  H   UNL     1      -7.551  16.927  69.039  1.00  0.00     0.000 HD 
HETATM   10  H   UNL     1     -12.373  11.026  67.462  1.00  0.00     0.000 HD 
HETATM   11  C   UNL     1      -8.893  14.043  68.282  1.00  0.00    -0.184 C  
HETATM   12  C   UNL     1      -8.067  16.988  67.040  1.00  0.00    -0.205 C  
HETATM   13  C   UNL     1      -6.865  14.656  69.763  1.00  0.00    -0.154 C  
HETATM   14  C   UNL     1      -6.501  14.356  67.357  1.00  0.00     0.092 C  
HETATM   15  C   UNL     1      -7.531  14.884  68.384  1.00  0.00    -0.115 C  
HETATM   16  O   UNL     1      -8.459  16.370  66.055  1.00  0.00    -0.347 OA 
HETATM   17  N   UNL     1      -7.707  16.343  68.217  1.00  0.00    -0.156 N  
ENDROOT
BRANCH   7  18
HETATM   18  C   UNL     1     -10.217  11.196  66.277  1.00  0.00    -0.239 C  
HETATM   19  H   UNL     1      -8.787  12.131  65.072  1.00  0.00     0.000 HD 
HETATM   20  N   UNL     1      -9.395  11.318  65.179  1.00  0.00    -0.213 N  
HETATM   21  O   UNL     1     -10.979  10.237  66.373  1.00  0.00    -0.029 OA 
BRANCH  20  22
HETATM   22  C   UNL     1      -9.409  10.269  64.176  1.00  0.00    -0.287 C  
BRANCH  22  23
HETATM   23  C   UNL     1      -8.302   9.254  64.307  1.00  0.00    -0.180 A  
HETATM   24  C   UNL     1      -7.105   9.447  63.593  1.00  0.00    -0.101 A  
HETATM   25  C   UNL     1      -8.390   8.176  65.202  1.00  0.00    -0.152 A  
HETATM   26  C   UNL     1      -6.046   8.546  63.723  1.00  0.00    -0.072 A  
HETATM   27  C   UNL     1      -6.178   7.459  64.578  1.00  0.00    -0.037 A  
HETATM   28  C   UNL     1      -7.333   7.272  65.325  1.00  0.00    -0.080 A  
HETATM   29  F   UNL     1      -5.170   6.583  64.691  1.00  0.00    -0.019 F  
ENDBRANCH  22  23
ENDBRANCH  20  22
ENDBRANCH   7  18
BRANCH  12  30
HETATM   30  C   UNL     1      -7.935  18.438  67.103  1.00  0.00    -0.231 A  
HETATM   31  N   UNL     1      -8.877  19.311  66.792  1.00  0.00    -0.303 NA 
HETATM   32  C   UNL     1      -7.087  20.371  67.383  1.00  0.00    -0.304 A  
HETATM   33  N   UNL     1      -8.323  20.563  66.975  1.00  0.00    -0.283 NA 
HETATM   34  C   UNL     1      -6.040  21.361  67.702  1.00  0.00    -0.375 C  
HETATM   35  O   UNL     1      -6.765  19.042  67.498  1.00  0.00    -0.201 OA 
ENDBRANCH  12  30
TORSDOF 4
ENDMDL
MODEL       92
REMARK 921   NORMALIZED FREE ENERGY PREDICTED BY IDOCK:   -4.83 KCAL/MOL
REMARK 922        TOTAL FREE ENERGY PREDICTED BY IDOCK:   -6.77 KCAL/MOL
REMARK 923 INTER-LIGAND FREE ENERGY PREDICTED BY IDOCK:   -5.84 KCAL/MOL
REMARK 924 INTRA-LIGAND FREE ENERGY PREDICTED BY IDOCK:   -0.93 KCAL/MOL
REMARK 927      BINDING AFFINITY PREDICTED BY RF-SCORE:    0.00 PKD
ROOT
HETATM    1  C   UNL     1     -10.082   8.326  72.713  1.00  0.00    -0.263 C  
HETATM    2  N   UNL     1      -9.742   7.106  71.992  1.00  0.00    -0.158 N  
HETATM    3  C   UNL     1     -10.190   5.949  72.596  1.00  0.00    -0.183 C  
HETATM    4  O   UNL     1     -10.786   5.886  73.673  1.00  0.00    -0.262 OA 
HETATM    5  C   UNL     1      -9.931   4.679  71.907  1.00  0.00    -0.189 C  
HETATM    6  O   UNL     1     -10.441   3.540  72.505  1.00  0.00    -0.151 OA 
HETATM    7  C   UNL     1      -9.218   4.730  70.774  1.00  0.00    -0.139 C  
HETATM    8  N   UNL     1      -8.723   5.908  70.233  1.00  0.00    -0.140 NA 
HETATM    9  H   UNL     1      -9.335  10.274  70.453  1.00  0.00     0.000 HD 
HETATM   10  H   UNL     1     -10.273   2.718  72.059  1.00  0.00     0.000 HD 
HETATM   11  C   UNL     1      -8.991   7.044  70.824  1.00  0.00    -0.150 C  
HETATM   12  C   UNL     1     -10.308   9.362  68.877  1.00  0.00    -0.213 C  
HETATM   13  C   UNL     1      -7.340   8.999  71.191  1.00  0.00    -0.115 C  
HETATM   14  C   UNL     1      -7.528   8.040  68.942  1.00  0.00    -0.093 C  
HETATM   15  C   UNL     1      -8.358   8.381  70.202  1.00  0.00    -0.120 C  
HETATM   16  O   UNL     1     -10.536   8.321  68.266  1.00  0.00    -0.187 OA 
HETATM   17  N   UNL     1      -9.353   9.428  69.883  1.00  0.00    -0.198 N  
ENDROOT
BRANCH   7  18
HETATM   18  C   UNL     1      -8.986   3.396  70.068  1.00  0.00    -0.104 C  
HETATM   19  H   UNL     1      -9.916   4.099  68.333  1.00  0.00     0.000 HD 
HETATM   20  N   UNL     1      -9.421   3.318  68.764  1.00  0.00    -0.165 N  
HETATM   21  O   UNL     1      -8.432   2.432  70.592  1.00  0.00    -0.048 OA 
BRANCH  20  22
HETATM   22  C   UNL     1      -9.164   2.103  68.015  1.00  0.00    -0.196 C  
BRANCH  22  23
HETATM   23  C   UNL     1      -8.642   2.321  66.617  1.00  0.00    -0.117 A  
HETATM   24  C   UNL     1      -7.542   1.566  66.168  1.00  0.00    -0.061 A  
HETATM   25  C   UNL     1      -9.285   3.180  65.713  1.00  0.00    -0.138 A  
HETATM   26  C   UNL     1      -7.059   1.716  64.867  1.00  0.00    -0.047 A  
HETATM   27  C   UNL     1      -7.684   2.611  64.008  1.00  0.00    -0.072 A  
HETATM   28  C   UNL     1      -8.797   3.335  64.414  1.00  0.00    -0.103 A  
HETATM   29  F   UNL     1      -7.211   2.770  62.765  1.00  0.00    -0.038 F  
ENDBRANCH  22  23
ENDBRANCH  20  22
ENDBRANCH   7  18
BRANCH  12  30
HETATM   30  C   UNL     1     -10.994  10.625  68.635  1.00  0.00    -0.246 A  
HETATM   31  N   UNL     1     -11.467  11.034  67.471  1.00  0.00    -0.515 NA 
HETATM   32  C   UNL     1     -11.839  12.550  68.967  1.00  0.00    -0.296 A  
HETATM   33  N   UNL     1     -12.015  12.283  67.690  1.00  0.00    -0.512 NA 
HETATM   34  C   UNL     1     -12.208  13.758  69.731  1.00  0.00    -0.368 C  
HETATM   35  O   UNL     1     -11.202  11.539  69.641  1.00  0.00    -0.251 OA 
ENDBRANCH  12  30
TORSDOF 4
ENDMDL
MODEL       93
REMARK 921   NORMALIZED FREE ENERGY PREDICTED BY IDOCK:   -4.78 KCAL/MOL
REMARK 922        TOTAL FREE ENERGY PREDICTED BY IDOCK:   -6.71 KCAL/MOL
REMARK 923 INTER-LIGAND FREE ENERGY PREDICTED BY IDOCK:   -5.85 KCAL/MOL
REMARK 924 INTRA-LIGAND FREE ENERGY PREDICTED BY IDOCK:   -0.85 KCAL/MOL
REMARK 927      BINDING AFFINITY PREDICTED BY RF-SCORE:    0.00 PKD
ROOT
HETATM    1  C   UNL     1     -11.828  16.181  67.104  1.00  0.00     0.821 C  
HETATM    2  N   UNL     1     -11.172  14.906  66.845  1.00  0.00    -0.342 N  
HETATM    3  C   UNL     1     -11.852  14.088  65.966  1.00  0.00    -0.388 C  
HETATM    4  O   UNL     1     -12.944  14.339  65.451  1.00  0.00    -0.654 OA 
HETATM    5  C   UNL     1     -11.233  12.804  65.615  1.00  0.00    -0.301 C  
HETATM    6  O   UNL     1     -11.908  12.030  64.688  1.00  0.00    -0.330 OA 
HETATM    7  C   UNL     1     -10.084  12.489  66.227  1.00  0.00    -0.250 C  
HETATM    8  N   UNL     1      -9.464  13.307  67.161  1.00  0.00    -0.231 NA 
HETATM    9  H   UNL     1      -9.441  17.507  68.522  1.00  0.00     0.000 HD 
HETATM   10  H   UNL     1     -11.508  11.199  64.461  1.00  0.00     0.000 HD 
HETATM   11  C   UNL     1      -9.994  14.471  67.441  1.00  0.00    -0.227 C  
HETATM   12  C   UNL     1      -7.943  17.045  67.178  1.00  0.00    -0.188 C  
HETATM   13  C   UNL     1     -10.210  15.521  69.793  1.00  0.00    -0.301 C  
HETATM   14  C   UNL     1      -8.025  14.645  69.105  1.00  0.00    -0.097 C  
HETATM   15  C   UNL     1      -9.281  15.368  68.564  1.00  0.00    -0.198 C  
HETATM   16  O   UNL     1      -7.400  16.183  66.493  1.00  0.00    -0.187 OA 
HETATM   17  N   UNL     1      -8.923  16.730  68.112  1.00  0.00    -0.218 N  
ENDROOT
BRANCH   7  18
HETATM   18  C   UNL     1      -9.453  11.159  65.823  1.00  0.00    -0.221 C  
HETATM   19  H   UNL     1      -9.930  10.317  67.676  1.00  0.00     0.000 HD 
HETATM   20  N   UNL     1      -9.523  10.148  66.756  1.00  0.00    -0.163 N  
HETATM   21  O   UNL     1      -8.919  10.958  64.735  1.00  0.00    -0.191 OA 
BRANCH  20  22
HETATM   22  C   UNL     1      -9.008   8.838  66.405  1.00  0.00    -0.158 C  
BRANCH  22  23
HETATM   23  C   UNL     1      -8.070   8.235  67.420  1.00  0.00    -0.121 A  
HETATM   24  C   UNL     1      -8.279   6.910  67.847  1.00  0.00    -0.114 A  
HETATM   25  C   UNL     1      -6.932   8.920  67.875  1.00  0.00    -0.078 A  
HETATM   26  C   UNL     1      -7.406   6.310  68.756  1.00  0.00    -0.086 A  
HETATM   27  C   UNL     1      -6.315   7.027  69.230  1.00  0.00    -0.035 A  
HETATM   28  C   UNL     1      -6.065   8.321  68.790  1.00  0.00    -0.044 A  
HETATM   29  F   UNL     1      -5.487   6.460  70.116  1.00  0.00    -0.013 F  
ENDBRANCH  22  23
ENDBRANCH  20  22
ENDBRANCH   7  18
BRANCH  12  30
HETATM   30  C   UNL     1      -7.643  18.469  67.102  1.00  0.00    -0.223 A  
HETATM   31  N   UNL     1      -8.422  19.445  67.534  1.00  0.00    -0.286 NA 
HETATM   32  C   UNL     1      -6.635  20.291  66.660  1.00  0.00    -0.224 A  
HETATM   33  N   UNL     1      -7.765  20.624  67.246  1.00  0.00    -0.337 NA 
HETATM   34  C   UNL     1      -5.566  21.156  66.123  1.00  0.00    -0.285 C  
HETATM   35  O   UNL     1      -6.478  18.933  66.538  1.00  0.00    -0.185 OA 
ENDBRANCH  12  30
TORSDOF 4
ENDMDL
MODEL       94
REMARK 921   NORMALIZED FREE ENERGY PREDICTED BY IDOCK:   -4.72 KCAL/MOL
REMARK 922        TOTAL FREE ENERGY PREDICTED BY IDOCK:   -6.64 KCAL/MOL
REMARK 923 INTER-LIGAND FREE ENERGY PREDICTED BY IDOCK:   -5.85 KCAL/MOL
REMARK 924 INTRA-LIGAND FREE ENERGY PREDICTED BY IDOCK:   -0.79 KCAL/MOL
REMARK 927      BINDING AFFINITY PREDICTED BY RF-SCORE:    0.00 PKD
ROOT
HETATM    1  C   UNL     1      -8.079  10.870  65.737  1.00  0.00    -0.094 C  
HETATM    2  N   UNL     1      -8.145  10.403  67.115  1.00  0.00    -0.114 N  
HETATM    3  C   UNL     1      -7.064   9.638  67.505  1.00  0.00    -0.088 C  
HETATM    4  O   UNL     1      -6.122   9.307  66.783  1.00  0.00    -0.061 OA 
HETATM    5  C   UNL     1      -7.030   9.169  68.896  1.00  0.00    -0.064 C  
HETATM    6  O   UNL     1      -5.908   8.454  69.275  1.00  0.00    -0.033 OA 
HETATM    7  C   UNL     1      -8.085   9.460  69.668  1.00  0.00    -0.123 C  
HETATM    8  N   UNL     1      -9.189  10.172  69.220  1.00  0.00    -0.198 NA 
HETATM    9  H   UNL     1     -10.386  12.894  65.957  1.00  0.00     0.000 HD 
HETATM   10  H   UNL     1      -5.886   8.150  70.175  1.00  0.00     0.000 HD 
HETATM   11  C   UNL     1      -9.199  10.628  67.993  1.00  0.00    -0.148 C  
HETATM   12  C   UNL     1      -9.835  13.854  67.700  1.00  0.00    -0.236 C  
HETATM   13  C   UNL     1     -11.212  10.592  66.371  1.00  0.00     0.192 C  
HETATM   14  C   UNL     1     -11.554  11.476  68.633  1.00  0.00    -0.375 C  
HETATM   15  C   UNL     1     -10.512  11.400  67.491  1.00  0.00    -0.201 C  
HETATM   16  O   UNL     1      -9.464  13.747  68.865  1.00  0.00    -0.073 OA 
HETATM   17  N   UNL     1     -10.250  12.755  66.958  1.00  0.00    -0.240 N  
ENDROOT
BRANCH   7  18
HETATM   18  C   UNL     1      -8.009   8.980  71.115  1.00  0.00    -0.127 C  
HETATM   19  H   UNL     1      -9.452   7.511  70.751  1.00  0.00     0.000 HD 
HETATM   20  N   UNL     1      -8.812   7.909  71.440  1.00  0.00    -0.131 N  
HETATM   21  O   UNL     1      -7.276   9.480  71.964  1.00  0.00    -0.087 OA 
BRANCH  20  22
HETATM   22  C   UNL     1      -8.732   7.357  72.779  1.00  0.00    -0.126 C  
BRANCH  22  23
HETATM   23  C   UNL     1      -9.348   5.990  72.938  1.00  0.00    -0.147 A  
HETATM   24  C   UNL     1     -10.617   5.873  73.535  1.00  0.00    -0.289 A  
HETATM   25  C   UNL     1      -8.739   4.839  72.413  1.00  0.00    -0.124 A  
HETATM   26  C   UNL     1     -11.231   4.626  73.662  1.00  0.00    -0.347 A  
HETATM   27  C   UNL     1     -10.585   3.496  73.178  1.00  0.00    -0.179 A  
HETATM   28  C   UNL     1      -9.352   3.592  72.547  1.00  0.00    -0.165 A  
HETATM   29  F   UNL     1     -11.164   2.296  73.315  1.00  0.00    -0.248 F  
ENDBRANCH  22  23
ENDBRANCH  20  22
ENDBRANCH   7  18
BRANCH  12  30
HETATM   30  C   UNL     1      -9.885  15.111  66.963  1.00  0.00    -0.230 A  
HETATM   31  N   UNL     1      -9.827  15.236  65.649  1.00  0.00    -0.348 NA 
HETATM   32  C   UNL     1      -9.975  17.196  66.548  1.00  0.00    -0.302 A  
HETATM   33  N   UNL     1      -9.886  16.590  65.384  1.00  0.00    -0.503 NA 
HETATM   34  C   UNL     1     -10.041  18.639  66.851  1.00  0.00    -0.399 C  
HETATM   35  O   UNL     1      -9.988  16.322  67.606  1.00  0.00    -0.240 OA 
ENDBRANCH  12  30
TORSDOF 4
ENDMDL
MODEL       95
REMARK 921   NORMALIZED FREE ENERGY PREDICTED BY IDOCK:   -4.66 KCAL/MOL
REMARK 922        TOTAL FREE ENERGY PREDICTED BY IDOCK:   -6.57 KCAL/MOL
REMARK 923 INTER-LIGAND FREE ENERGY PREDICTED BY IDOCK:   -5.63 KCAL/MOL
REMARK 924 INTRA-LIGAND FREE ENERGY PREDICTED BY IDOCK:   -0.94 KCAL/MOL
REMARK 927      BINDING AFFINITY PREDICTED BY RF-SCORE:    0.00 PKD
ROOT
HETATM    1  C   UNL     1      -6.551  12.485  67.905  1.00  0.00    -0.104 C  
HETATM    2  N   UNL     1      -6.546  11.302  68.756  1.00  0.00    -0.057 N  
HETATM    3  C   UNL     1      -5.964  11.497  69.992  1.00  0.00    -0.143 C  
HETATM    4  O   UNL     1      -5.437  12.541  70.380  1.00  0.00    -0.118 OA 
HETATM    5  C   UNL     1      -5.963  10.366  70.928  1.00  0.00    -0.042 C  
HETATM    6  O   UNL     1      -5.425  10.606  72.181  1.00  0.00    -0.315 OA 
HETATM    7  C   UNL     1      -6.466   9.205  70.489  1.00  0.00    -0.056 C  
HETATM    8  N   UNL     1      -6.979   9.027  69.212  1.00  0.00    -0.056 NA 
HETATM    9  H   UNL     1      -8.499  11.377  65.798  1.00  0.00     0.000 HD 
HETATM   10  H   UNL     1      -5.424   9.874  72.786  1.00  0.00     0.000 HD 
HETATM   11  C   UNL     1      -7.021  10.047  68.393  1.00  0.00    -0.067 C  
HETATM   12  C   UNL     1      -9.973  10.645  67.044  1.00  0.00    -0.202 C  
HETATM   13  C   UNL     1      -6.435  10.004  65.875  1.00  0.00    -0.096 C  
HETATM   14  C   UNL     1      -7.987   8.313  66.739  1.00  0.00    -0.099 C  
HETATM   15  C   UNL     1      -7.570   9.793  66.907  1.00  0.00    -0.095 C  
HETATM   16  O   UNL     1     -10.250   9.978  68.037  1.00  0.00    -0.164 OA 
HETATM   17  N   UNL     1      -8.688  10.679  66.518  1.00  0.00    -0.142 N  
ENDROOT
BRANCH   7  18
HETATM   18  C   UNL     1      -6.473   8.056  71.493  1.00  0.00    -0.041 C  
HETATM   19  H   UNL     1      -8.516   8.316  71.849  1.00  0.00     0.000 HD 
HETATM   20  N   UNL     1      -7.691   7.755  72.061  1.00  0.00    -0.083 N  
HETATM   21  O   UNL     1      -5.476   7.402  71.791  1.00  0.00    -0.035 OA 
BRANCH  20  22
HETATM   22  C   UNL     1      -7.779   6.625  72.967  1.00  0.00    -0.095 C  
BRANCH  22  23
HETATM   23  C   UNL     1      -8.330   5.364  72.353  1.00  0.00    -0.118 A  
HETATM   24  C   UNL     1      -8.064   4.126  72.968  1.00  0.00    -0.090 A  
HETATM   25  C   UNL     1      -9.190   5.396  71.243  1.00  0.00    -0.173 A  
HETATM   26  C   UNL     1      -8.592   2.944  72.446  1.00  0.00    -0.085 A  
HETATM   27  C   UNL     1      -9.400   2.998  71.317  1.00  0.00    -0.138 A  
HETATM   28  C   UNL     1      -9.711   4.212  70.719  1.00  0.00    -0.266 A  
HETATM   29  F   UNL     1      -9.893   1.864  70.804  1.00  0.00    -0.199 F  
ENDBRANCH  22  23
ENDBRANCH  20  22
ENDBRANCH   7  18
BRANCH  12  30
HETATM   30  C   UNL     1     -10.929  11.466  66.312  1.00  0.00    -0.247 A  
HETATM   31  N   UNL     1     -11.937  12.135  66.844  1.00  0.00    -0.609 NA 
HETATM   32  C   UNL     1     -11.942  12.421  64.701  1.00  0.00    -0.394 A  
HETATM   33  N   UNL     1     -12.591  12.753  65.797  1.00  0.00    -0.510 NA 
HETATM   34  C   UNL     1     -12.225  12.781  63.298  1.00  0.00    -0.500 C  
HETATM   35  O   UNL     1     -10.864  11.607  64.946  1.00  0.00    -0.295 OA 
ENDBRANCH  12  30
TORSDOF 4
ENDMDL
MODEL       96
REMARK 921   NORMALIZED FREE ENERGY PREDICTED BY IDOCK:   -4.60 KCAL/MOL
REMARK 922        TOTAL FREE ENERGY PREDICTED BY IDOCK:   -6.49 KCAL/MOL
REMARK 923 INTER-LIGAND FREE ENERGY PREDICTED BY IDOCK:   -5.83 KCAL/MOL
REMARK 924 INTRA-LIGAND FREE ENERGY PREDICTED BY IDOCK:   -0.66 KCAL/MOL
REMARK 927      BINDING AFFINITY PREDICTED BY RF-SCORE:    0.00 PKD
ROOT
HETATM    1  C   UNL     1     -10.285   9.824  65.854  1.00  0.00    -0.174 C  
HETATM    2  N   UNL     1      -9.502  10.916  66.418  1.00  0.00    -0.182 N  
HETATM    3  C   UNL     1     -10.211  12.086  66.597  1.00  0.00    -0.204 C  
HETATM    4  O   UNL     1     -11.389  12.267  66.283  1.00  0.00    -0.309 OA 
HETATM    5  C   UNL     1      -9.506  13.221  67.207  1.00  0.00    -0.233 C  
HETATM    6  O   UNL     1     -10.256  14.363  67.428  1.00  0.00    -0.245 OA 
HETATM    7  C   UNL     1      -8.206  13.058  67.483  1.00  0.00    -0.181 C  
HETATM    8  N   UNL     1      -7.508  11.887  67.224  1.00  0.00    -0.143 NA 
HETATM    9  H   UNL     1      -8.226   7.608  66.410  1.00  0.00     0.000 HD 
HETATM   10  H   UNL     1      -9.800  15.097  67.823  1.00  0.00     0.000 HD 
HETATM   11  C   UNL     1      -8.146  10.862  66.721  1.00  0.00    -0.142 C  
HETATM   12  C   UNL     1      -7.788   8.032  68.383  1.00  0.00    -0.122 C  
HETATM   13  C   UNL     1      -7.284   9.295  64.855  1.00  0.00    -0.102 C  
HETATM   14  C   UNL     1      -5.814   9.752  66.763  1.00  0.00    -0.054 C  
HETATM   15  C   UNL     1      -7.299   9.543  66.382  1.00  0.00    -0.093 C  
HETATM   16  O   UNL     1      -7.492   8.885  69.215  1.00  0.00    -0.072 OA 
HETATM   17  N   UNL     1      -7.814   8.313  67.022  1.00  0.00    -0.096 N  
ENDROOT
BRANCH   7  18
HETATM   18  C   UNL     1      -7.507  14.247  68.139  1.00  0.00    -0.131 C  
HETATM   19  H   UNL     1      -7.400  15.252  66.310  1.00  0.00     0.000 HD 
HETATM   20  N   UNL     1      -7.206  15.305  67.310  1.00  0.00    -0.201 N  
HETATM   21  O   UNL     1      -7.227  14.301  69.334  1.00  0.00    -0.121 OA 
BRANCH  20  22
HETATM   22  C   UNL     1      -6.608  16.494  67.886  1.00  0.00    -0.141 C  
BRANCH  22  23
HETATM   23  C   UNL     1      -7.378  17.769  67.644  1.00  0.00    -0.207 A  
HETATM   24  C   UNL     1      -8.341  17.805  66.619  1.00  0.00    -0.285 A  
HETATM   25  C   UNL     1      -7.236  18.888  68.479  1.00  0.00    -0.320 A  
HETATM   26  C   UNL     1      -9.098  18.957  66.394  1.00  0.00    -0.317 A  
HETATM   27  C   UNL     1      -8.902  20.069  67.204  1.00  0.00    -0.344 A  
HETATM   28  C   UNL     1      -7.988  20.041  68.248  1.00  0.00    -0.214 A  
HETATM   29  F   UNL     1      -9.614  21.181  66.979  1.00  0.00    -0.501 F  
ENDBRANCH  22  23
ENDBRANCH  20  22
ENDBRANCH   7  18
BRANCH  12  30
HETATM   30  C   UNL     1      -8.144   6.656  68.704  1.00  0.00    -0.119 A  
HETATM   31  N   UNL     1      -8.246   6.151  69.921  1.00  0.00    -0.118 NA 
HETATM   32  C   UNL     1      -8.660   4.604  68.469  1.00  0.00    -0.097 A  
HETATM   33  N   UNL     1      -8.580   4.821  69.765  1.00  0.00    -0.081 NA 
HETATM   34  C   UNL     1      -8.960   3.354  67.744  1.00  0.00    -0.177 C  
HETATM   35  O   UNL     1      -8.403   5.728  67.724  1.00  0.00    -0.105 OA 
ENDBRANCH  12  30
TORSDOF 4
ENDMDL
MODEL       97
REMARK 921   NORMALIZED FREE ENERGY PREDICTED BY IDOCK:   -4.55 KCAL/MOL
REMARK 922        TOTAL FREE ENERGY PREDICTED BY IDOCK:   -6.44 KCAL/MOL
REMARK 923 INTER-LIGAND FREE ENERGY PREDICTED BY IDOCK:   -5.49 KCAL/MOL
REMARK 924 INTRA-LIGAND FREE ENERGY PREDICTED BY IDOCK:   -0.95 KCAL/MOL
REMARK 927      BINDING AFFINITY PREDICTED BY RF-SCORE:    0.00 PKD
ROOT
HETATM    1  C   UNL     1      -6.485  11.603  66.803  1.00  0.00    -0.106 C  
HETATM    2  N   UNL     1      -6.637  10.228  67.260  1.00  0.00    -0.068 N  
HETATM    3  C   UNL     1      -6.160  10.000  68.534  1.00  0.00    -0.045 C  
HETATM    4  O   UNL     1      -5.602  10.833  69.251  1.00  0.00    -0.041 OA 
HETATM    5  C   UNL     1      -6.320   8.649  69.088  1.00  0.00    -0.043 C  
HETATM    6  O   UNL     1      -5.886   8.464  70.388  1.00  0.00    -0.028 OA 
HETATM    7  C   UNL     1      -6.857   7.719  68.289  1.00  0.00    -0.067 C  
HETATM    8  N   UNL     1      -7.261   7.969  66.985  1.00  0.00    -0.085 NA 
HETATM    9  H   UNL     1      -8.300  11.341  64.332  1.00  0.00     0.000 HD 
HETATM   10  H   UNL     1      -5.989   7.590  70.747  1.00  0.00     0.000 HD 
HETATM   11  C   UNL     1      -7.159   9.182  66.507  1.00  0.00    -0.081 C  
HETATM   12  C   UNL     1      -9.928  10.414  65.200  1.00  0.00    -0.322 C  
HETATM   13  C   UNL     1      -6.348   9.824  64.137  1.00  0.00    -0.118 C  
HETATM   14  C   UNL     1      -8.082   8.102  64.349  1.00  0.00    -0.138 C  
HETATM   15  C   UNL     1      -7.584   9.425  64.979  1.00  0.00    -0.109 C  
HETATM   16  O   UNL     1     -10.339   9.515  65.927  1.00  0.00    -0.206 OA 
HETATM   17  N   UNL     1      -8.601  10.484  64.796  1.00  0.00    -0.178 N  
ENDROOT
BRANCH   7  18
HETATM   18  C   UNL     1      -7.033   6.331  68.901  1.00  0.00    -0.076 C  
HETATM   19  H   UNL     1      -9.022   6.250  68.262  1.00  0.00     0.000 HD 
HETATM   20  N   UNL     1      -8.268   5.746  68.728  1.00  0.00    -0.101 N  
HETATM   21  O   UNL     1      -6.146   5.732  69.504  1.00  0.00    -0.025 OA 
BRANCH  20  22
HETATM   22  C   UNL     1      -8.475   4.397  69.222  1.00  0.00    -0.077 C  
BRANCH  22  23
HETATM   23  C   UNL     1      -9.078   4.315  70.602  1.00  0.00    -0.175 A  
HETATM   24  C   UNL     1      -9.950   5.332  71.032  1.00  0.00    -0.266 A  
HETATM   25  C   UNL     1      -8.877   3.200  71.431  1.00  0.00    -0.137 A  
HETATM   26  C   UNL     1     -10.555   5.266  72.289  1.00  0.00    -0.280 A  
HETATM   27  C   UNL     1     -10.300   4.175  73.111  1.00  0.00    -0.169 A  
HETATM   28  C   UNL     1      -9.477   3.139  72.690  1.00  0.00    -0.160 A  
HETATM   29  F   UNL     1     -10.865   4.119  74.324  1.00  0.00    -0.275 F  
ENDBRANCH  22  23
ENDBRANCH  20  22
ENDBRANCH   7  18
BRANCH  12  30
HETATM   30  C   UNL     1     -10.755  11.497  64.682  1.00  0.00    -0.319 A  
HETATM   31  N   UNL     1     -10.888  11.824  63.409  1.00  0.00    -0.397 NA 
HETATM   32  C   UNL     1     -12.069  13.171  64.619  1.00  0.00    -0.408 A  
HETATM   33  N   UNL     1     -11.741  12.909  63.372  1.00  0.00    -0.515 NA 
HETATM   34  C   UNL     1     -12.933  14.240  65.157  1.00  0.00    -0.136 C  
HETATM   35  O   UNL     1     -11.488  12.309  65.515  1.00  0.00    -0.337 OA 
ENDBRANCH  12  30
TORSDOF 4
ENDMDL
MODEL       98
REMARK 921   NORMALIZED FREE ENERGY PREDICTED BY IDOCK:   -4.52 KCAL/MOL
REMARK 922        TOTAL FREE ENERGY PREDICTED BY IDOCK:   -6.39 KCAL/MOL
REMARK 923 INTER-LIGAND FREE ENERGY PREDICTED BY IDOCK:   -5.45 KCAL/MOL
REMARK 924 INTRA-LIGAND FREE ENERGY PREDICTED BY IDOCK:   -0.94 KCAL/MOL
REMARK 927      BINDING AFFINITY PREDICTED BY RF-SCORE:    0.00 PKD
ROOT
HETATM    1  C   UNL     1      -8.343   2.995  68.005  1.00  0.00    -0.079 C  
HETATM    2  N   UNL     1      -8.314   4.277  67.314  1.00  0.00    -0.100 N  
HETATM    3  C   UNL     1      -8.645   4.207  65.976  1.00  0.00    -0.113 C  
HETATM    4  O   UNL     1      -8.903   3.174  65.355  1.00  0.00    -0.124 OA 
HETATM    5  C   UNL     1      -8.687   5.464  65.219  1.00  0.00    -0.145 C  
HETATM    6  O   UNL     1      -9.078   5.370  63.895  1.00  0.00    -0.346 OA 
HETATM    7  C   UNL     1      -8.335   6.582  65.866  1.00  0.00    -0.140 C  
HETATM    8  N   UNL     1      -7.939   6.605  67.196  1.00  0.00    -0.108 NA 
HETATM    9  H   UNL     1      -8.156   4.141  70.853  1.00  0.00     0.000 HD 
HETATM   10  H   UNL     1      -9.105   6.184  63.405  1.00  0.00     0.000 HD 
HETATM   11  C   UNL     1      -7.944   5.491  67.883  1.00  0.00    -0.097 C  
HETATM   12  C   UNL     1      -9.608   5.604  70.731  1.00  0.00    -0.169 C  
HETATM   13  C   UNL     1      -6.126   4.721  69.552  1.00  0.00    -0.018 C  
HETATM   14  C   UNL     1      -7.029   6.990  69.778  1.00  0.00    -0.059 C  
HETATM   15  C   UNL     1      -7.429   5.543  69.401  1.00  0.00    -0.070 C  
HETATM   16  O   UNL     1     -10.076   6.545  70.097  1.00  0.00    -0.172 OA 
HETATM   17  N   UNL     1      -8.398   5.015  70.386  1.00  0.00    -0.098 N  
ENDROOT
BRANCH   7  18
HETATM   18  C   UNL     1      -8.412   7.875  65.060  1.00  0.00    -0.055 C  
HETATM   19  H   UNL     1      -9.822   8.671  66.382  1.00  0.00     0.000 HD 
HETATM   20  N   UNL     1      -9.254   8.848  65.554  1.00  0.00    -0.208 N  
HETATM   21  O   UNL     1      -7.767   8.082  64.035  1.00  0.00    -0.122 OA 
BRANCH  20  22
HETATM   22  C   UNL     1      -9.316  10.128  64.874  1.00  0.00    -0.254 C  
BRANCH  22  23
HETATM   23  C   UNL     1      -9.443  11.322  65.786  1.00  0.00    -0.252 A  
HETATM   24  C   UNL     1     -10.643  12.057  65.794  1.00  0.00    -0.301 A  
HETATM   25  C   UNL     1      -8.437  11.661  66.705  1.00  0.00    -0.177 A  
HETATM   26  C   UNL     1     -10.807  13.144  66.654  1.00  0.00    -0.292 A  
HETATM   27  C   UNL     1      -9.776  13.489  67.519  1.00  0.00    -0.228 A  
HETATM   28  C   UNL     1      -8.600  12.753  67.560  1.00  0.00    -0.187 A  
HETATM   29  F   UNL     1      -9.924  14.543  68.333  1.00  0.00    -0.213 F  
ENDBRANCH  22  23
ENDBRANCH  20  22
ENDBRANCH   7  18
BRANCH  12  30
HETATM   30  C   UNL     1     -10.245   4.997  71.893  1.00  0.00    -0.204 A  
HETATM   31  N   UNL     1     -10.960   5.637  72.802  1.00  0.00    -0.258 NA 
HETATM   32  C   UNL     1     -10.851   3.542  73.324  1.00  0.00    -0.189 A  
HETATM   33  N   UNL     1     -11.351   4.691  73.728  1.00  0.00    -0.238 NA 
HETATM   34  C   UNL     1     -10.940   2.209  73.951  1.00  0.00    -0.269 C  
HETATM   35  O   UNL     1     -10.139   3.652  72.156  1.00  0.00    -0.168 OA 
ENDBRANCH  12  30
TORSDOF 4
ENDMDL
MODEL       99
REMARK 921   NORMALIZED FREE ENERGY PREDICTED BY IDOCK:   -4.51 KCAL/MOL
REMARK 922        TOTAL FREE ENERGY PREDICTED BY IDOCK:   -6.38 KCAL/MOL
REMARK 923 INTER-LIGAND FREE ENERGY PREDICTED BY IDOCK:   -5.59 KCAL/MOL
REMARK 924 INTRA-LIGAND FREE ENERGY PREDICTED BY IDOCK:   -0.79 KCAL/MOL
REMARK 927      BINDING AFFINITY PREDICTED BY RF-SCORE:    0.00 PKD
ROOT
HETATM    1  C   UNL     1      -7.485   9.507  69.710  1.00  0.00    -0.098 C  
HETATM    2  N   UNL     1      -7.301  10.902  69.334  1.00  0.00    -0.128 N  
HETATM    3  C   UNL     1      -6.381  11.580  70.108  1.00  0.00    -0.078 C  
HETATM    4  O   UNL     1      -5.774  11.113  71.074  1.00  0.00    -0.303 OA 
HETATM    5  C   UNL     1      -6.102  12.979  69.762  1.00  0.00    -0.123 C  
HETATM    6  O   UNL     1      -5.134  13.617  70.518  1.00  0.00    -0.095 OA 
HETATM    7  C   UNL     1      -6.811  13.517  68.762  1.00  0.00    -0.108 C  
HETATM    8  N   UNL     1      -7.781  12.824  68.051  1.00  0.00    -0.124 NA 
HETATM    9  H   UNL     1      -9.075   8.689  67.206  1.00  0.00     0.000 HD 
HETATM   10  H   UNL     1      -4.953  14.522  70.295  1.00  0.00     0.000 HD 
HETATM   11  C   UNL     1      -7.998  11.564  68.330  1.00  0.00    -0.142 C  
HETATM   12  C   UNL     1      -7.867   9.512  65.748  1.00  0.00    -0.104 C  
HETATM   13  C   UNL     1     -10.309  10.416  68.490  1.00  0.00    -0.197 C  
HETATM   14  C   UNL     1      -9.816  11.771  66.506  1.00  0.00    -0.228 C  
HETATM   15  C   UNL     1      -9.163  10.809  67.526  1.00  0.00    -0.143 C  
HETATM   16  O   UNL     1      -7.242  10.494  65.357  1.00  0.00    -0.138 OA 
HETATM   17  N   UNL     1      -8.721   9.574  66.842  1.00  0.00    -0.127 N  
ENDROOT
BRANCH   7  18
HETATM   18  C   UNL     1      -6.481  14.966  68.411  1.00  0.00    -0.106 C  
HETATM   19  H   UNL     1      -7.530  14.817  66.609  1.00  0.00     0.000 HD 
HETATM   20  N   UNL     1      -7.003  15.435  67.225  1.00  0.00    -0.189 N  
HETATM   21  O   UNL     1      -5.808  15.707  69.124  1.00  0.00    -0.104 OA 
BRANCH  20  22
HETATM   22  C   UNL     1      -6.787  16.825  66.870  1.00  0.00    -0.220 C  
BRANCH  22  23
HETATM   23  C   UNL     1      -7.921  17.752  67.230  1.00  0.00    -0.223 A  
HETATM   24  C   UNL     1      -7.723  18.724  68.229  1.00  0.00    -0.326 A  
HETATM   25  C   UNL     1      -9.135  17.744  66.526  1.00  0.00    -0.281 A  
HETATM   26  C   UNL     1      -8.740  19.622  68.559  1.00  0.00    -0.344 A  
HETATM   27  C   UNL     1      -9.950  19.560  67.880  1.00  0.00    -0.395 A  
HETATM   28  C   UNL     1     -10.153  18.639  66.861  1.00  0.00    -0.399 A  
HETATM   29  F   UNL     1     -10.933  20.410  68.206  1.00  0.00    -0.235 F  
ENDBRANCH  22  23
ENDBRANCH  20  22
ENDBRANCH   7  18
BRANCH  12  30
HETATM   30  C   UNL     1      -7.793   8.192  65.136  1.00  0.00    -0.118 A  
HETATM   31  N   UNL     1      -7.379   7.088  65.732  1.00  0.00    -0.076 NA 
HETATM   32  C   UNL     1      -7.905   6.639  63.684  1.00  0.00    -0.109 A  
HETATM   33  N   UNL     1      -7.453   6.083  64.788  1.00  0.00    -0.074 NA 
HETATM   34  C   UNL     1      -8.151   6.031  62.362  1.00  0.00    -0.101 C  
HETATM   35  O   UNL     1      -8.154   7.981  63.826  1.00  0.00    -0.151 OA 
ENDBRANCH  12  30
TORSDOF 4
ENDMDL
MODEL      100
REMARK 921   NORMALIZED FREE ENERGY PREDICTED BY IDOCK:   -4.50 KCAL/MOL
REMARK 922        TOTAL FREE ENERGY PREDICTED BY IDOCK:   -6.37 KCAL/MOL
REMARK 923 INTER-LIGAND FREE ENERGY PREDICTED BY IDOCK:   -5.56 KCAL/MOL
REMARK 924 INTRA-LIGAND FREE ENERGY PREDICTED BY IDOCK:   -0.81 KCAL/MOL
REMARK 927      BINDING AFFINITY PREDICTED BY RF-SCORE:    0.00 PKD
ROOT
HETATM    1  C   UNL     1     -11.072  16.135  68.175  1.00  0.00    -0.332 C  
HETATM    2  N   UNL     1     -10.548  14.805  67.893  1.00  0.00    -0.246 N  
HETATM    3  C   UNL     1     -11.470  13.938  67.346  1.00  0.00    -0.348 C  
HETATM    4  O   UNL     1     -12.658  14.192  67.137  1.00  0.00    -0.161 OA 
HETATM    5  C   UNL     1     -11.008  12.591  66.988  1.00  0.00    -0.267 C  
HETATM    6  O   UNL     1     -11.939  11.761  66.389  1.00  0.00    -0.515 OA 
HETATM    7  C   UNL     1      -9.739  12.280  67.281  1.00  0.00    -0.195 C  
HETATM    8  N   UNL     1      -8.857  13.158  67.896  1.00  0.00    -0.186 NA 
HETATM    9  H   UNL     1      -8.349  17.471  68.689  1.00  0.00     0.000 HD 
HETATM   10  H   UNL     1     -11.640  10.890  66.157  1.00  0.00     0.000 HD 
HETATM   11  C   UNL     1      -9.257  14.372  68.176  1.00  0.00    -0.199 C  
HETATM   12  C   UNL     1      -7.313  16.786  67.040  1.00  0.00    -0.203 C  
HETATM   13  C   UNL     1      -8.761  15.677  70.352  1.00  0.00     1.289 C  
HETATM   14  C   UNL     1      -6.889  14.613  69.179  1.00  0.00    -0.126 C  
HETATM   15  C   UNL     1      -8.231  15.342  68.936  1.00  0.00    -0.192 C  
HETATM   16  O   UNL     1      -7.010  15.828  66.335  1.00  0.00     0.095 OA 
HETATM   17  N   UNL     1      -7.988  16.627  68.243  1.00  0.00    -0.184 N  
ENDROOT
BRANCH   7  18
HETATM   18  C   UNL     1      -9.281  10.882  66.874  1.00  0.00    -0.161 C  
HETATM   19  H   UNL     1      -9.290  10.249  68.866  1.00  0.00     0.000 HD 
HETATM   20  N   UNL     1      -9.142   9.969  67.896  1.00  0.00    -0.131 N  
HETATM   21  O   UNL     1      -9.055  10.546  65.713  1.00  0.00    -0.165 OA 
BRANCH  20  22
HETATM   22  C   UNL     1      -8.781   8.603  67.567  1.00  0.00    -0.135 C  
BRANCH  22  23
HETATM   23  C   UNL     1      -9.261   7.568  68.553  1.00  0.00    -0.143 A  
HETATM   24  C   UNL     1      -8.639   7.478  69.812  1.00  0.00    -0.140 A  
HETATM   25  C   UNL     1     -10.380   6.760  68.292  1.00  0.00    -0.215 A  
HETATM   26  C   UNL     1      -9.085   6.556  70.762  1.00  0.00    -0.154 A  
HETATM   27  C   UNL     1     -10.163   5.734  70.459  1.00  0.00    -0.221 A  
HETATM   28  C   UNL     1     -10.820   5.835  69.240  1.00  0.00    -0.374 A  
HETATM   29  F   UNL     1     -10.581   4.837  71.362  1.00  0.00    -0.255 F  
ENDBRANCH  22  23
ENDBRANCH  20  22
ENDBRANCH   7  18
BRANCH  12  30
HETATM   30  C   UNL     1      -7.016  18.175  66.713  1.00  0.00    -0.197 A  
HETATM   31  N   UNL     1      -6.813  19.145  67.587  1.00  0.00    -0.214 NA 
HETATM   32  C   UNL     1      -6.668  19.945  65.585  1.00  0.00    -0.268 A  
HETATM   33  N   UNL     1      -6.587  20.291  66.852  1.00  0.00    -0.219 NA 
HETATM   34  C   UNL     1      -6.535  20.780  64.375  1.00  0.00    -0.296 C  
HETATM   35  O   UNL     1      -6.931  18.609  65.412  1.00  0.00    -0.499 OA 
ENDBRANCH  12  30
TORSDOF 4
ENDMDL
MODEL      101
REMARK 921   NORMALIZED FREE ENERGY PREDICTED BY IDOCK:   -4.28 KCAL/MOL
REMARK 922        TOTAL FREE ENERGY PREDICTED BY IDOCK:   -6.10 KCAL/MOL
REMARK 923 INTER-LIGAND FREE ENERGY PREDICTED BY IDOCK:   -5.15 KCAL/MOL
REMARK 924 INTRA-LIGAND FREE ENERGY PREDICTED BY IDOCK:   -0.95 KCAL/MOL
REMARK 927      BINDING AFFINITY PREDICTED BY RF-SCORE:    0.00 PKD
ROOT
HETATM    1  C   UNL     1      -7.279   8.810  71.131  1.00  0.00    -0.093 C  
HETATM    2  N   UNL     1      -7.346   9.990  70.279  1.00  0.00    -0.160 N  
HETATM    3  C   UNL     1      -6.291  10.865  70.441  1.00  0.00    -0.089 C  
HETATM    4  O   UNL     1      -5.372  10.738  71.252  1.00  0.00    -0.159 OA 
HETATM    5  C   UNL     1      -6.259  12.056  69.584  1.00  0.00    -0.131 C  
HETATM    6  O   UNL     1      -5.161  12.886  69.727  1.00  0.00    -0.077 OA 
HETATM    7  C   UNL     1      -7.292  12.242  68.753  1.00  0.00    -0.083 C  
HETATM    8  N   UNL     1      -8.372  11.375  68.667  1.00  0.00    -0.154 NA 
HETATM    9  H   UNL     1      -9.500   7.234  69.701  1.00  0.00     0.000 HD 
HETATM   10  H   UNL     1      -5.140  13.658  69.173  1.00  0.00     0.000 HD 
HETATM   11  C   UNL     1      -8.380  10.290  69.400  1.00  0.00    -0.161 C  
HETATM   12  C   UNL     1      -8.892   7.481  67.744  1.00  0.00    -0.132 C  
HETATM   13  C   UNL     1     -10.411   9.326  70.674  1.00  0.00    -0.325 C  
HETATM   14  C   UNL     1     -10.692   9.914  68.310  1.00  0.00    -0.276 C  
HETATM   15  C   UNL     1      -9.668   9.338  69.316  1.00  0.00    -0.169 C  
HETATM   16  O   UNL     1      -8.511   8.255  66.870  1.00  0.00    -0.115 OA 
HETATM   17  N   UNL     1      -9.358   7.933  68.972  1.00  0.00    -0.151 N  
ENDROOT
BRANCH   7  18
HETATM   18  C   UNL     1      -7.218  13.476  67.857  1.00  0.00    -0.139 C  
HETATM   19  H   UNL     1      -9.101  14.114  68.502  1.00  0.00     0.000 HD 
HETATM   20  N   UNL     1      -8.292  14.337  67.922  1.00  0.00    -0.150 N  
HETATM   21  O   UNL     1      -6.268  13.731  67.121  1.00  0.00    -0.215 OA 
BRANCH  20  22
HETATM   22  C   UNL     1      -8.249  15.565  67.152  1.00  0.00    -0.215 C  
BRANCH  22  23
HETATM   23  C   UNL     1      -9.395  15.748  66.189  1.00  0.00    -0.381 A  
HETATM   24  C   UNL     1     -10.006  14.612  65.625  1.00  0.00    -0.381 A  
HETATM   25  C   UNL     1      -9.940  17.013  65.919  1.00  0.00    -0.239 A  
HETATM   26  C   UNL     1     -11.094  14.745  64.761  1.00  0.00    -0.393 A  
HETATM   27  C   UNL     1     -11.583  16.013  64.470  1.00  0.00    -0.205 A  
HETATM   28  C   UNL     1     -11.023  17.145  65.049  1.00  0.00     0.097 A  
HETATM   29  F   UNL     1     -12.615  16.144  63.627  1.00  0.00     0.027 F  
ENDBRANCH  22  23
ENDBRANCH  20  22
ENDBRANCH   7  18
BRANCH  12  30
HETATM   30  C   UNL     1      -8.901   6.030  67.611  1.00  0.00    -0.106 A  
HETATM   31  N   UNL     1      -9.735   5.206  68.220  1.00  0.00    -0.135 NA 
HETATM   32  C   UNL     1      -8.354   4.061  67.013  1.00  0.00    -0.100 A  
HETATM   33  N   UNL     1      -9.378   3.930  67.830  1.00  0.00    -0.165 NA 
HETATM   34  C   UNL     1      -7.565   3.021  66.325  1.00  0.00    -0.077 C  
HETATM   35  O   UNL     1      -7.994   5.371  66.815  1.00  0.00    -0.100 OA 
ENDBRANCH  12  30
TORSDOF 4
ENDMDL
MODEL      102
REMARK 921   NORMALIZED FREE ENERGY PREDICTED BY IDOCK:   -4.06 KCAL/MOL
REMARK 922        TOTAL FREE ENERGY PREDICTED BY IDOCK:   -5.83 KCAL/MOL
REMARK 923 INTER-LIGAND FREE ENERGY PREDICTED BY IDOCK:   -4.96 KCAL/MOL
REMARK 924 INTRA-LIGAND FREE ENERGY PREDICTED BY IDOCK:   -0.87 KCAL/MOL
REMARK 927      BINDING AFFINITY PREDICTED BY RF-SCORE:    0.00 PKD
ROOT
HETATM    1  C   UNL     1     -11.162   6.262  69.558  1.00  0.00    -0.430 C  
HETATM    2  N   UNL     1     -10.040   7.129  69.892  1.00  0.00    -0.189 N  
HETATM    3  C   UNL     1      -9.996   7.511  71.217  1.00  0.00    -0.186 C  
HETATM    4  O   UNL     1     -10.829   7.216  72.077  1.00  0.00    -0.216 OA 
HETATM    5  C   UNL     1      -8.868   8.347  71.647  1.00  0.00    -0.186 C  
HETATM    6  O   UNL     1      -8.818   8.667  72.992  1.00  0.00    -0.355 OA 
HETATM    7  C   UNL     1      -7.999   8.735  70.705  1.00  0.00    -0.122 C  
HETATM    8  N   UNL     1      -8.115   8.389  69.366  1.00  0.00    -0.112 NA 
HETATM    9  H   UNL     1     -10.134   5.438  66.777  1.00  0.00     0.000 HD 
HETATM   10  H   UNL     1      -8.088   9.208  73.270  1.00  0.00     0.000 HD 
HETATM   11  C   UNL     1      -9.096   7.608  68.991  1.00  0.00    -0.144 C  
HETATM   12  C   UNL     1      -8.189   4.947  67.262  1.00  0.00    -0.106 C  
HETATM   13  C   UNL     1     -10.536   7.884  66.862  1.00  0.00    -0.388 C  
HETATM   14  C   UNL     1      -8.095   7.960  66.636  1.00  0.00    -0.107 C  
HETATM   15  C   UNL     1      -9.232   7.272  67.429  1.00  0.00    -0.128 C  
HETATM   16  O   UNL     1      -7.155   5.268  67.842  1.00  0.00    -0.064 OA 
HETATM   17  N   UNL     1      -9.256   5.825  67.122  1.00  0.00    -0.114 N  
ENDROOT
BRANCH   7  18
HETATM   18  C   UNL     1      -6.824   9.583  71.186  1.00  0.00     0.022 C  
HETATM   19  H   UNL     1      -6.696  10.541  69.333  1.00  0.00     0.000 HD 
HETATM   20  N   UNL     1      -6.323  10.492  70.281  1.00  0.00    -0.127 N  
HETATM   21  O   UNL     1      -6.336   9.501  72.311  1.00  0.00    -0.291 OA 
BRANCH  20  22
HETATM   22  C   UNL     1      -5.255  11.379  70.702  1.00  0.00    -0.117 C  
BRANCH  22  23
HETATM   23  C   UNL     1      -5.498  12.840  70.417  1.00  0.00    -0.149 A  
HETATM   24  C   UNL     1      -6.163  13.208  69.233  1.00  0.00    -0.102 A  
HETATM   25  C   UNL     1      -5.173  13.839  71.348  1.00  0.00    -0.174 A  
HETATM   26  C   UNL     1      -6.437  14.549  68.958  1.00  0.00    -0.099 A  
HETATM   27  C   UNL     1      -6.060  15.523  69.874  1.00  0.00    -0.157 A  
HETATM   28  C   UNL     1      -5.442  15.180  71.069  1.00  0.00    -0.075 A  
HETATM   29  F   UNL     1      -6.307  16.812  69.605  1.00  0.00    -0.198 F  
ENDBRANCH  22  23
ENDBRANCH  20  22
ENDBRANCH   7  18
BRANCH  12  30
HETATM   30  C   UNL     1      -8.424   3.638  66.665  1.00  0.00    -0.106 A  
HETATM   31  N   UNL     1      -8.153   2.474  67.229  1.00  0.00    -0.070 NA 
HETATM   32  C   UNL     1      -8.976   2.139  65.258  1.00  0.00    -0.123 A  
HETATM   33  N   UNL     1      -8.512   1.505  66.314  1.00  0.00    -0.095 NA 
HETATM   34  C   UNL     1      -9.473   1.594  63.980  1.00  0.00    -0.126 C  
HETATM   35  O   UNL     1      -8.960   3.503  65.406  1.00  0.00    -0.127 OA 
ENDBRANCH  12  30
TORSDOF 4
ENDMDL
MODEL      103
REMARK 921   NORMALIZED FREE ENERGY PREDICTED BY IDOCK:   -4.03 KCAL/MOL
REMARK 922        TOTAL FREE ENERGY PREDICTED BY IDOCK:   -5.79 KCAL/MOL
REMARK 923 INTER-LIGAND FREE ENERGY PREDICTED BY IDOCK:   -4.98 KCAL/MOL
REMARK 924 INTRA-LIGAND FREE ENERGY PREDICTED BY IDOCK:   -0.81 KCAL/MOL
REMARK 927      BINDING AFFINITY PREDICTED BY RF-SCORE:    0.00 PKD
ROOT
HETATM    1  C   UNL     1      -9.473   5.400  69.700  1.00  0.00    -0.144 C  
HETATM    2  N   UNL     1      -8.969   6.765  69.623  1.00  0.00    -0.143 N  
HETATM    3  C   UNL     1      -8.595   7.299  70.838  1.00  0.00    -0.136 C  
HETATM    4  O   UNL     1      -8.700   6.738  71.931  1.00  0.00    -0.124 OA 
HETATM    5  C   UNL     1      -8.030   8.655  70.840  1.00  0.00    -0.122 C  
HETATM    6  O   UNL     1      -7.610   9.143  72.065  1.00  0.00    -0.335 OA 
HETATM    7  C   UNL     1      -7.982   9.300  69.668  1.00  0.00    -0.096 C  
HETATM    8  N   UNL     1      -8.434   8.756  68.474  1.00  0.00    -0.129 NA 
HETATM    9  H   UNL     1      -9.418   4.848  66.674  1.00  0.00     0.000 HD 
HETATM   10  H   UNL     1      -7.245  10.020  72.066  1.00  0.00     0.000 HD 
HETATM   11  C   UNL     1      -8.897   7.532  68.465  1.00  0.00    -0.126 C  
HETATM   12  C   UNL     1      -7.519   5.527  66.235  1.00  0.00    -0.086 C  
HETATM   13  C   UNL     1     -10.984   6.701  67.187  1.00  0.00    -0.478 C  
HETATM   14  C   UNL     1      -9.313   8.013  65.962  1.00  0.00    -0.158 C  
HETATM   15  C   UNL     1      -9.461   6.954  67.080  1.00  0.00    -0.151 C  
HETATM   16  O   UNL     1      -6.688   6.422  66.357  1.00  0.00    -0.053 OA 
HETATM   17  N   UNL     1      -8.833   5.683  66.656  1.00  0.00    -0.117 N  
ENDROOT
BRANCH   7  18
HETATM   18  C   UNL     1      -7.367  10.698  69.698  1.00  0.00    -0.130 C  
HETATM   19  H   UNL     1      -8.409  11.244  67.971  1.00  0.00     0.000 HD 
HETATM   20  N   UNL     1      -7.775  11.560  68.704  1.00  0.00    -0.136 N  
HETATM   21  O   UNL     1      -6.567  11.075  70.551  1.00  0.00    -0.299 OA 
BRANCH  20  22
HETATM   22  C   UNL     1      -7.284  12.925  68.721  1.00  0.00    -0.081 C  
BRANCH  22  23
HETATM   23  C   UNL     1      -8.224  13.941  68.122  1.00  0.00    -0.158 A  
HETATM   24  C   UNL     1      -9.011  13.580  67.013  1.00  0.00    -0.237 A  
HETATM   25  C   UNL     1      -8.414  15.205  68.702  1.00  0.00    -0.170 A  
HETATM   26  C   UNL     1      -9.918  14.485  66.459  1.00  0.00    -0.290 A  
HETATM   27  C   UNL     1     -10.051  15.747  67.023  1.00  0.00    -0.261 A  
HETATM   28  C   UNL     1      -9.317  16.111  68.143  1.00  0.00    -0.201 A  
HETATM   29  F   UNL     1     -10.908  16.623  66.482  1.00  0.00    -0.280 F  
ENDBRANCH  22  23
ENDBRANCH  20  22
ENDBRANCH   7  18
BRANCH  12  30
HETATM   30  C   UNL     1      -7.241   4.219  65.654  1.00  0.00    -0.072 A  
HETATM   31  N   UNL     1      -6.197   3.458  65.934  1.00  0.00    -0.030 NA 
HETATM   32  C   UNL     1      -7.421   2.475  64.448  1.00  0.00    -0.067 A  
HETATM   33  N   UNL     1      -6.318   2.328  65.150  1.00  0.00    -0.023 NA 
HETATM   34  C   UNL     1      -8.014   1.580  63.435  1.00  0.00    -0.060 C  
HETATM   35  O   UNL     1      -8.072   3.653  64.718  1.00  0.00    -0.089 OA 
ENDBRANCH  12  30
TORSDOF 4
ENDMDL
MODEL      104
REMARK 921   NORMALIZED FREE ENERGY PREDICTED BY IDOCK:   -3.98 KCAL/MOL
REMARK 922        TOTAL FREE ENERGY PREDICTED BY IDOCK:   -5.72 KCAL/MOL
REMARK 923 INTER-LIGAND FREE ENERGY PREDICTED BY IDOCK:   -4.86 KCAL/MOL
REMARK 924 INTRA-LIGAND FREE ENERGY PREDICTED BY IDOCK:   -0.86 KCAL/MOL
REMARK 927      BINDING AFFINITY PREDICTED BY RF-SCORE:    0.00 PKD
ROOT
HETATM    1  C   UNL     1     -10.631   7.870  67.282  1.00  0.00    -0.295 C  
HETATM    2  N   UNL     1      -9.627   8.754  67.859  1.00  0.00    -0.142 N  
HETATM    3  C   UNL     1      -9.719   8.897  69.228  1.00  0.00    -0.165 C  
HETATM    4  O   UNL     1     -10.581   8.388  69.946  1.00  0.00    -0.224 OA 
HETATM    5  C   UNL     1      -8.712   9.734  69.893  1.00  0.00    -0.217 C  
HETATM    6  O   UNL     1      -8.793   9.814  71.272  1.00  0.00    -0.240 OA 
HETATM    7  C   UNL     1      -7.816  10.352  69.113  1.00  0.00    -0.134 C  
HETATM    8  N   UNL     1      -7.797  10.240  67.730  1.00  0.00    -0.101 NA 
HETATM    9  H   UNL     1      -9.324   7.638  64.507  1.00  0.00     0.000 HD 
HETATM   10  H   UNL     1      -8.141  10.355  71.702  1.00  0.00     0.000 HD 
HETATM   11  C   UNL     1      -8.668   9.460  67.141  1.00  0.00    -0.128 C  
HETATM   12  C   UNL     1      -7.382   7.230  65.075  1.00  0.00    -0.079 C  
HETATM   13  C   UNL     1      -9.964   9.989  64.968  1.00  0.00    -0.320 C  
HETATM   14  C   UNL     1      -7.533  10.303  64.979  1.00  0.00    -0.120 C  
HETATM   15  C   UNL     1      -8.654   9.395  65.539  1.00  0.00    -0.151 C  
HETATM   16  O   UNL     1      -6.431   7.527  65.792  1.00  0.00    -0.044 OA 
HETATM   17  N   UNL     1      -8.515   8.028  64.990  1.00  0.00    -0.116 N  
ENDROOT
BRANCH   7  18
HETATM   18  C   UNL     1      -6.768  11.195  69.835  1.00  0.00    -0.097 C  
HETATM   19  H   UNL     1      -6.832  12.647  68.332  1.00  0.00     0.000 HD 
HETATM   20  N   UNL     1      -6.431  12.388  69.234  1.00  0.00    -0.104 N  
HETATM   21  O   UNL     1      -6.244  10.872  70.899  1.00  0.00    -0.352 OA 
BRANCH  20  22
HETATM   22  C   UNL     1      -5.495  13.269  69.907  1.00  0.00    -0.101 C  
BRANCH  22  23
HETATM   23  C   UNL     1      -5.799  14.739  69.767  1.00  0.00    -0.111 A  
HETATM   24  C   UNL     1      -5.166  15.656  70.627  1.00  0.00    -0.161 A  
HETATM   25  C   UNL     1      -6.615  15.231  68.736  1.00  0.00    -0.102 A  
HETATM   26  C   UNL     1      -5.396  17.027  70.498  1.00  0.00    -0.223 A  
HETATM   27  C   UNL     1      -6.248  17.484  69.499  1.00  0.00    -0.246 A  
HETATM   28  C   UNL     1      -6.849  16.601  68.613  1.00  0.00    -0.168 A  
HETATM   29  F   UNL     1      -6.484  18.798  69.385  1.00  0.00    -0.262 F  
ENDBRANCH  22  23
ENDBRANCH  20  22
ENDBRANCH   7  18
BRANCH  12  30
HETATM   30  C   UNL     1      -7.445   6.033  64.246  1.00  0.00    -0.076 A  
HETATM   31  N   UNL     1      -6.486   5.597  63.448  1.00  0.00    -0.028 NA 
HETATM   32  C   UNL     1      -8.187   4.270  63.311  1.00  0.00    -0.091 A  
HETATM   33  N   UNL     1      -6.971   4.454  62.844  1.00  0.00    -0.038 NA 
HETATM   34  C   UNL     1      -9.168   3.217  62.985  1.00  0.00    -0.091 C  
HETATM   35  O   UNL     1      -8.561   5.231  64.218  1.00  0.00    -0.137 OA 
ENDBRANCH  12  30
TORSDOF 4
ENDMDL
MODEL      105
REMARK 921   NORMALIZED FREE ENERGY PREDICTED BY IDOCK:   -3.60 KCAL/MOL
REMARK 922        TOTAL FREE ENERGY PREDICTED BY IDOCK:   -5.26 KCAL/MOL
REMARK 923 INTER-LIGAND FREE ENERGY PREDICTED BY IDOCK:   -4.46 KCAL/MOL
REMARK 924 INTRA-LIGAND FREE ENERGY PREDICTED BY IDOCK:   -0.80 KCAL/MOL
REMARK 927      BINDING AFFINITY PREDICTED BY RF-SCORE:    0.00 PKD
ROOT
HETATM    1  C   UNL     1     -11.383   9.368  67.612  1.00  0.00     0.648 C  
HETATM    2  N   UNL     1     -10.806  10.678  67.884  1.00  0.00    -0.254 N  
HETATM    3  C   UNL     1     -11.522  11.434  68.789  1.00  0.00    -0.290 C  
HETATM    4  O   UNL     1     -12.587  11.105  69.316  1.00  0.00    -0.336 OA 
HETATM    5  C   UNL     1     -10.980  12.749  69.154  1.00  0.00    -0.133 C  
HETATM    6  O   UNL     1     -11.688  13.462  70.106  1.00  0.00    -0.451 OA 
HETATM    7  C   UNL     1      -9.864  13.148  68.530  1.00  0.00    -0.153 C  
HETATM    8  N   UNL     1      -9.209  12.387  67.572  1.00  0.00    -0.177 NA 
HETATM    9  H   UNL     1      -8.941   8.222  66.133  1.00  0.00     0.000 HD 
HETATM   10  H   UNL     1     -11.337  14.313  70.342  1.00  0.00     0.000 HD 
HETATM   11  C   UNL     1      -9.668  11.197  67.279  1.00  0.00    -0.166 C  
HETATM   12  C   UNL     1      -7.454   8.756  67.461  1.00  0.00    -0.089 C  
HETATM   13  C   UNL     1      -9.856  10.177  64.911  1.00  0.00    -0.390 C  
HETATM   14  C   UNL     1      -7.720  11.179  65.581  1.00  0.00     0.190 C  
HETATM   15  C   UNL     1      -8.919  10.368  66.128  1.00  0.00    -0.157 C  
HETATM   16  O   UNL     1      -6.954   9.638  68.154  1.00  0.00    -0.075 OA 
HETATM   17  N   UNL     1      -8.467   9.024  66.550  1.00  0.00    -0.117 N  
ENDROOT
BRANCH   7  18
HETATM   18  C   UNL     1      -9.312  14.508  68.949  1.00  0.00    -0.136 C  
HETATM   19  H   UNL     1      -7.373  13.737  69.066  1.00  0.00     0.000 HD 
HETATM   20  N   UNL     1      -7.951  14.574  69.147  1.00  0.00    -0.094 N  
HETATM   21  O   UNL     1     -10.005  15.512  69.095  1.00  0.00    -0.215 OA 
BRANCH  20  22
HETATM   22  C   UNL     1      -7.354  15.855  69.474  1.00  0.00    -0.170 C  
BRANCH  22  23
HETATM   23  C   UNL     1      -7.119  16.762  68.293  1.00  0.00    -0.167 A  
HETATM   24  C   UNL     1      -6.056  16.483  67.413  1.00  0.00    -0.192 A  
HETATM   25  C   UNL     1      -7.991  17.817  67.984  1.00  0.00    -0.244 A  
HETATM   26  C   UNL     1      -5.835  17.280  66.289  1.00  0.00    -0.170 A  
HETATM   27  C   UNL     1      -6.684  18.349  66.034  1.00  0.00    -0.263 A  
HETATM   28  C   UNL     1      -7.764  18.618  66.864  1.00  0.00    -0.241 A  
HETATM   29  F   UNL     1      -6.463  19.126  64.966  1.00  0.00    -0.285 F  
ENDBRANCH  22  23
ENDBRANCH  20  22
ENDBRANCH   7  18
BRANCH  12  30
HETATM   30  C   UNL     1      -7.062   7.353  67.507  1.00  0.00    -0.088 A  
HETATM   31  N   UNL     1      -6.656   6.701  68.583  1.00  0.00    -0.049 NA 
HETATM   32  C   UNL     1      -6.620   5.366  66.883  1.00  0.00    -0.053 A  
HETATM   33  N   UNL     1      -6.370   5.414  68.174  1.00  0.00    -0.037 NA 
HETATM   34  C   UNL     1      -6.464   4.243  65.938  1.00  0.00    -0.037 C  
HETATM   35  O   UNL     1      -7.073   6.562  66.383  1.00  0.00    -0.065 OA 
ENDBRANCH  12  30
TORSDOF 4
ENDMDL
MODEL      106
REMARK 921   NORMALIZED FREE ENERGY PREDICTED BY IDOCK:   -3.56 KCAL/MOL
REMARK 922        TOTAL FREE ENERGY PREDICTED BY IDOCK:   -5.21 KCAL/MOL
REMARK 923 INTER-LIGAND FREE ENERGY PREDICTED BY IDOCK:   -5.16 KCAL/MOL
REMARK 924 INTRA-LIGAND FREE ENERGY PREDICTED BY IDOCK:   -0.05 KCAL/MOL
REMARK 927      BINDING AFFINITY PREDICTED BY RF-SCORE:    0.00 PKD
ROOT
HETATM    1  C   UNL     1     -11.810  14.622  64.179  1.00  0.00    -0.241 C  
HETATM    2  N   UNL     1     -11.161  13.468  64.787  1.00  0.00    -0.337 N  
HETATM    3  C   UNL     1     -11.014  12.390  63.939  1.00  0.00    -0.414 C  
HETATM    4  O   UNL     1     -11.417  12.332  62.775  1.00  0.00     0.122 OA 
HETATM    5  C   UNL     1     -10.325  11.204  64.461  1.00  0.00    -0.337 C  
HETATM    6  O   UNL     1     -10.139  10.160  63.571  1.00  0.00    -0.480 OA 
HETATM    7  C   UNL     1      -9.949  11.229  65.746  1.00  0.00    -0.237 C  
HETATM    8  N   UNL     1     -10.178  12.306  66.590  1.00  0.00    -0.214 NA 
HETATM    9  H   UNL     1     -11.140  16.611  66.428  1.00  0.00     0.000 HD 
HETATM   10  H   UNL     1      -9.693   9.392  63.909  1.00  0.00     0.000 HD 
HETATM   11  C   UNL     1     -10.753  13.380  66.113  1.00  0.00    -0.284 C  
HETATM   12  C   UNL     1      -9.130  16.202  66.661  1.00  0.00    -0.252 C  
HETATM   13  C   UNL     1     -12.578  14.783  67.289  1.00  0.00     0.718 C  
HETATM   14  C   UNL     1     -10.548  14.223  68.546  1.00  0.00    -0.260 C  
HETATM   15  C   UNL     1     -11.051  14.585  67.129  1.00  0.00    -0.321 C  
HETATM   16  O   UNL     1      -8.258  15.348  66.794  1.00  0.00    -0.232 OA 
HETATM   17  N   UNL     1     -10.482  15.884  66.708  1.00  0.00    -0.306 N  
ENDROOT
BRANCH   7  18
HETATM   18  C   UNL     1      -9.214   9.991  66.253  1.00  0.00    -0.162 C  
HETATM   19  H   UNL     1     -10.668   8.733  65.431  1.00  0.00     0.000 HD 
HETATM   20  N   UNL     1      -9.780   8.777  65.932  1.00  0.00    -0.206 N  
HETATM   21  O   UNL     1      -8.168  10.032  66.897  1.00  0.00    -0.120 OA 
BRANCH  20  22
HETATM   22  C   UNL     1      -9.091   7.561  66.321  1.00  0.00    -0.157 C  
BRANCH  22  23
HETATM   23  C   UNL     1      -8.192   6.977  65.260  1.00  0.00    -0.128 A  
HETATM   24  C   UNL     1      -7.439   7.843  64.444  1.00  0.00    -0.098 A  
HETATM   25  C   UNL     1      -8.003   5.592  65.130  1.00  0.00    -0.113 A  
HETATM   26  C   UNL     1      -6.569   7.333  63.479  1.00  0.00    -0.052 A  
HETATM   27  C   UNL     1      -6.439   5.958  63.337  1.00  0.00    -0.029 A  
HETATM   28  C   UNL     1      -7.138   5.085  64.159  1.00  0.00    -0.050 A  
HETATM   29  F   UNL     1      -5.618   5.467  62.399  1.00  0.00    -0.013 F  
ENDBRANCH  22  23
ENDBRANCH  20  22
ENDBRANCH   7  18
BRANCH  12  30
HETATM   30  C   UNL     1      -8.868  17.618  66.440  1.00  0.00    -0.236 A  
HETATM   31  N   UNL     1      -9.328  18.339  65.433  1.00  0.00     0.468 NA 
HETATM   32  C   UNL     1      -8.093  19.584  66.696  1.00  0.00    -0.306 A  
HETATM   33  N   UNL     1      -8.823  19.613  65.602  1.00  0.00    -0.257 NA 
HETATM   34  C   UNL     1      -7.305  20.662  67.325  1.00  0.00    -0.394 C  
HETATM   35  O   UNL     1      -8.077  18.349  67.294  1.00  0.00    -0.235 OA 
ENDBRANCH  12  30
TORSDOF 4
ENDMDL
MODEL      107
REMARK 921   NORMALIZED FREE ENERGY PREDICTED BY IDOCK:   -3.07 KCAL/MOL
REMARK 922        TOTAL FREE ENERGY PREDICTED BY IDOCK:   -4.60 KCAL/MOL
REMARK 923 INTER-LIGAND FREE ENERGY PREDICTED BY IDOCK:   -3.72 KCAL/MOL
REMARK 924 INTRA-LIGAND FREE ENERGY PREDICTED BY IDOCK:   -0.89 KCAL/MOL
REMARK 927      BINDING AFFINITY PREDICTED BY RF-SCORE:    0.00 PKD
ROOT
HETATM    1  C   UNL     1      -9.589   9.752  71.109  1.00  0.00     0.469 C  
HETATM    2  N   UNL     1      -9.414   8.609  70.222  1.00  0.00    -0.162 N  
HETATM    3  C   UNL     1     -10.233   7.538  70.511  1.00  0.00    -0.201 C  
HETATM    4  O   UNL     1     -11.028   7.476  71.452  1.00  0.00    -0.230 OA 
HETATM    5  C   UNL     1     -10.153   6.364  69.633  1.00  0.00    -0.175 C  
HETATM    6  O   UNL     1     -11.026   5.328  69.912  1.00  0.00    -0.165 OA 
HETATM    7  C   UNL     1      -9.239   6.392  68.654  1.00  0.00    -0.125 C  
HETATM    8  N   UNL     1      -8.382   7.461  68.437  1.00  0.00    -0.125 NA 
HETATM    9  H   UNL     1      -7.970  11.746  69.416  1.00  0.00     0.000 HD 
HETATM   10  H   UNL     1     -10.974   4.568  69.343  1.00  0.00     0.000 HD 
HETATM   11  C   UNL     1      -8.484   8.525  69.192  1.00  0.00    -0.125 C  
HETATM   12  C   UNL     1      -8.802  11.378  67.563  1.00  0.00    -0.146 C  
HETATM   13  C   UNL     1      -6.521   9.885  70.183  1.00  0.00    -0.093 C  
HETATM   14  C   UNL     1      -6.485   9.363  67.787  1.00  0.00    -0.059 C  
HETATM   15  C   UNL     1      -7.442   9.720  68.949  1.00  0.00    -0.075 C  
HETATM   16  O   UNL     1      -9.145  10.542  66.732  1.00  0.00    -0.149 OA 
HETATM   17  N   UNL     1      -8.076  11.032  68.696  1.00  0.00    -0.142 N  
ENDROOT
BRANCH   7  18
HETATM   18  C   UNL     1      -9.196   5.168  67.743  1.00  0.00    -0.115 C  
HETATM   19  H   UNL     1      -7.400   4.533  68.604  1.00  0.00     0.000 HD 
HETATM   20  N   UNL     1      -8.132   4.313  67.929  1.00  0.00    -0.093 N  
HETATM   21  O   UNL     1     -10.049   4.916  66.895  1.00  0.00    -0.197 OA 
BRANCH  20  22
HETATM   22  C   UNL     1      -8.073   3.093  67.145  1.00  0.00    -0.082 C  
BRANCH  22  23
HETATM   23  C   UNL     1      -7.319   3.213  65.845  1.00  0.00    -0.072 A  
HETATM   24  C   UNL     1      -5.923   3.390  65.874  1.00  0.00    -0.023 A  
HETATM   25  C   UNL     1      -7.954   3.048  64.604  1.00  0.00    -0.082 A  
HETATM   26  C   UNL     1      -5.191   3.465  64.688  1.00  0.00    -0.009 A  
HETATM   27  C   UNL     1      -5.851   3.349  63.471  1.00  0.00    -0.014 A  
HETATM   28  C   UNL     1      -7.221   3.131  63.419  1.00  0.00    -0.049 A  
HETATM   29  F   UNL     1      -5.153   3.439  62.332  1.00  0.00    -0.004 F  
ENDBRANCH  22  23
ENDBRANCH  20  22
ENDBRANCH   7  18
BRANCH  12  30
HETATM   30  C   UNL     1      -9.106  12.800  67.474  1.00  0.00    -0.193 A  
HETATM   31  N   UNL     1      -9.055  13.663  68.473  1.00  0.00    -0.157 NA 
HETATM   32  C   UNL     1      -9.693  14.686  66.679  1.00  0.00    -0.270 A  
HETATM   33  N   UNL     1      -9.437  14.884  67.954  1.00  0.00    -0.198 NA 
HETATM   34  C   UNL     1     -10.163  15.642  65.657  1.00  0.00    -0.402 C  
HETATM   35  O   UNL     1      -9.499  13.383  66.292  1.00  0.00    -0.254 OA 
ENDBRANCH  12  30
TORSDOF 4
ENDMDL
MODEL      108
REMARK 921   NORMALIZED FREE ENERGY PREDICTED BY IDOCK:   -3.02 KCAL/MOL
REMARK 922        TOTAL FREE ENERGY PREDICTED BY IDOCK:   -4.54 KCAL/MOL
REMARK 923 INTER-LIGAND FREE ENERGY PREDICTED BY IDOCK:   -3.78 KCAL/MOL
REMARK 924 INTRA-LIGAND FREE ENERGY PREDICTED BY IDOCK:   -0.76 KCAL/MOL
REMARK 927      BINDING AFFINITY PREDICTED BY RF-SCORE:    0.00 PKD
ROOT
HETATM    1  C   UNL     1     -10.758  11.892  69.730  1.00  0.00     0.437 C  
HETATM    2  N   UNL     1     -10.383  10.501  69.520  1.00  0.00    -0.234 N  
HETATM    3  C   UNL     1     -10.805   9.645  70.517  1.00  0.00    -0.309 C  
HETATM    4  O   UNL     1     -11.407   9.976  71.540  1.00  0.00    -0.301 OA 
HETATM    5  C   UNL     1     -10.509   8.215  70.355  1.00  0.00    -0.215 C  
HETATM    6  O   UNL     1     -10.994   7.373  71.340  1.00  0.00    -0.233 OA 
HETATM    7  C   UNL     1      -9.791   7.855  69.285  1.00  0.00    -0.177 C  
HETATM    8  N   UNL     1      -9.322   8.755  68.338  1.00  0.00    -0.137 NA 
HETATM    9  H   UNL     1     -10.046  12.866  66.900  1.00  0.00     0.000 HD 
HETATM   10  H   UNL     1     -10.802   6.448  71.236  1.00  0.00     0.000 HD 
HETATM   11  C   UNL     1      -9.623  10.023  68.459  1.00  0.00    -0.151 C  
HETATM   12  C   UNL     1     -10.986  11.402  65.787  1.00  0.00    -0.194 C  
HETATM   13  C   UNL     1      -8.024  12.014  68.057  1.00  0.00    -0.149 C  
HETATM   14  C   UNL     1      -8.174  10.275  66.335  1.00  0.00    -0.129 C  
HETATM   15  C   UNL     1      -9.020  11.043  67.378  1.00  0.00    -0.141 C  
HETATM   16  O   UNL     1     -11.183  10.203  65.614  1.00  0.00     0.637 OA 
HETATM   17  N   UNL     1     -10.039  11.867  66.691  1.00  0.00    -0.198 N  
ENDROOT
BRANCH   7  18
HETATM   18  C   UNL     1      -9.520   6.360  69.132  1.00  0.00    -0.134 C  
HETATM   19  H   UNL     1      -7.461   6.666  69.325  1.00  0.00     0.000 HD 
HETATM   20  N   UNL     1      -8.201   5.972  69.219  1.00  0.00    -0.113 N  
HETATM   21  O   UNL     1     -10.400   5.520  68.957  1.00  0.00    -0.210 OA 
BRANCH  20  22
HETATM   22  C   UNL     1      -7.885   4.557  69.156  1.00  0.00    -0.069 C  
BRANCH  22  23
HETATM   23  C   UNL     1      -8.067   3.811  70.453  1.00  0.00    -0.061 A  
HETATM   24  C   UNL     1      -8.029   2.404  70.448  1.00  0.00    -0.051 A  
HETATM   25  C   UNL     1      -8.170   4.479  71.683  1.00  0.00    -0.102 A  
HETATM   26  C   UNL     1      -8.156   1.684  71.637  1.00  0.00    -0.041 A  
HETATM   27  C   UNL     1      -8.306   2.370  72.836  1.00  0.00    -0.062 A  
HETATM   28  C   UNL     1      -8.304   3.758  72.871  1.00  0.00    -0.094 A  
HETATM   29  F   UNL     1      -8.446   1.681  73.976  1.00  0.00    -0.050 F  
ENDBRANCH  22  23
ENDBRANCH  20  22
ENDBRANCH   7  18
BRANCH  12  30
HETATM   30  C   UNL     1     -11.701  12.463  65.090  1.00  0.00    -0.382 A  
HETATM   31  N   UNL     1     -12.554  12.292  64.096  1.00  0.00    -0.602 NA 
HETATM   32  C   UNL     1     -12.356  14.404  64.513  1.00  0.00    -0.418 A  
HETATM   33  N   UNL     1     -12.977  13.553  63.724  1.00  0.00    -0.148 NA 
HETATM   34  C   UNL     1     -12.419  15.879  64.535  1.00  0.00     0.559 C  
HETATM   35  O   UNL     1     -11.530  13.788  65.418  1.00  0.00    -0.304 OA 
ENDBRANCH  12  30
TORSDOF 4
ENDMDL
MODEL      109
REMARK 921   NORMALIZED FREE ENERGY PREDICTED BY IDOCK:   -2.94 KCAL/MOL
REMARK 922        TOTAL FREE ENERGY PREDICTED BY IDOCK:   -4.44 KCAL/MOL
REMARK 923 INTER-LIGAND FREE ENERGY PREDICTED BY IDOCK:   -4.21 KCAL/MOL
REMARK 924 INTRA-LIGAND FREE ENERGY PREDICTED BY IDOCK:   -0.23 KCAL/MOL
REMARK 927      BINDING AFFINITY PREDICTED BY RF-SCORE:    0.00 PKD
ROOT
HETATM    1  C   UNL     1     -10.260  14.217  69.208  1.00  0.00    -0.015 C  
HETATM    2  N   UNL     1      -9.425  13.295  68.450  1.00  0.00    -0.202 N  
HETATM    3  C   UNL     1     -10.072  12.145  68.049  1.00  0.00    -0.204 C  
HETATM    4  O   UNL     1     -11.237  11.846  68.319  1.00  0.00    -0.222 OA 
HETATM    5  C   UNL     1      -9.313  11.185  67.237  1.00  0.00    -0.160 C  
HETATM    6  O   UNL     1     -10.004  10.068  66.801  1.00  0.00    -0.191 OA 
HETATM    7  C   UNL     1      -8.025  11.465  67.002  1.00  0.00    -0.158 C  
HETATM    8  N   UNL     1      -7.387  12.600  67.481  1.00  0.00    -0.140 NA 
HETATM    9  H   UNL     1      -8.322  16.604  69.090  1.00  0.00     0.000 HD 
HETATM   10  H   UNL     1      -9.513   9.447  66.276  1.00  0.00     0.000 HD 
HETATM   11  C   UNL     1      -8.075  13.477  68.168  1.00  0.00    -0.154 C  
HETATM   12  C   UNL     1      -7.876  16.585  67.074  1.00  0.00    -0.206 C  
HETATM   13  C   UNL     1      -7.283  14.704  70.300  1.00  0.00     0.299 C  
HETATM   14  C   UNL     1      -5.804  14.695  68.345  1.00  0.00    -0.105 C  
HETATM   15  C   UNL     1      -7.295  14.750  68.753  1.00  0.00    -0.129 C  
HETATM   16  O   UNL     1      -7.541  15.923  66.096  1.00  0.00     0.144 OA 
HETATM   17  N   UNL     1      -7.879  16.050  68.356  1.00  0.00    -0.143 N  
ENDROOT
BRANCH   7  18
HETATM   18  C   UNL     1      -7.269  10.461  66.135  1.00  0.00    -0.131 C  
HETATM   19  H   UNL     1      -7.967   8.866  67.293  1.00  0.00     0.000 HD 
HETATM   20  N   UNL     1      -7.420   9.134  66.474  1.00  0.00    -0.092 N  
HETATM   21  O   UNL     1      -6.571  10.775  65.174  1.00  0.00    -0.019 OA 
BRANCH  20  22
HETATM   22  C   UNL     1      -6.788   8.126  65.645  1.00  0.00    -0.066 C  
BRANCH  22  23
HETATM   23  C   UNL     1      -7.333   6.731  65.819  1.00  0.00    -0.075 A  
HETATM   24  C   UNL     1      -8.725   6.544  65.913  1.00  0.00    -0.149 A  
HETATM   25  C   UNL     1      -6.500   5.601  65.787  1.00  0.00    -0.040 A  
HETATM   26  C   UNL     1      -9.264   5.262  66.036  1.00  0.00    -0.163 A  
HETATM   27  C   UNL     1      -8.413   4.164  66.051  1.00  0.00    -0.109 A  
HETATM   28  C   UNL     1      -7.040   4.321  65.917  1.00  0.00    -0.067 A  
HETATM   29  F   UNL     1      -8.927   2.934  66.187  1.00  0.00    -0.125 F  
ENDBRANCH  22  23
ENDBRANCH  20  22
ENDBRANCH   7  18
BRANCH  12  30
HETATM   30  C   UNL     1      -8.305  17.976  67.018  1.00  0.00    -0.236 A  
HETATM   31  N   UNL     1      -7.915  18.936  67.838  1.00  0.00    -0.265 NA 
HETATM   32  C   UNL     1      -9.322  19.745  66.410  1.00  0.00    -0.401 A  
HETATM   33  N   UNL     1      -8.576  20.081  67.441  1.00  0.00    -0.331 NA 
HETATM   34  C   UNL     1     -10.250  20.572  65.615  1.00  0.00     0.149 C  
HETATM   35  O   UNL     1      -9.199  18.420  66.073  1.00  0.00    -0.505 OA 
ENDBRANCH  12  30
TORSDOF 4
ENDMDL
MODEL      110
REMARK 921   NORMALIZED FREE ENERGY PREDICTED BY IDOCK:   -2.68 KCAL/MOL
REMARK 922        TOTAL FREE ENERGY PREDICTED BY IDOCK:   -4.12 KCAL/MOL
REMARK 923 INTER-LIGAND FREE ENERGY PREDICTED BY IDOCK:   -3.62 KCAL/MOL
REMARK 924 INTRA-LIGAND FREE ENERGY PREDICTED BY IDOCK:   -0.50 KCAL/MOL
REMARK 927      BINDING AFFINITY PREDICTED BY RF-SCORE:    0.00 PKD
ROOT
HETATM    1  C   UNL     1      -7.735   8.816  71.246  1.00  0.00    -0.120 C  
HETATM    2  N   UNL     1      -7.892   9.872  70.255  1.00  0.00    -0.176 N  
HETATM    3  C   UNL     1      -6.997  10.913  70.389  1.00  0.00     0.429 C  
HETATM    4  O   UNL     1      -6.149  11.019  71.278  1.00  0.00    -0.334 OA 
HETATM    5  C   UNL     1      -7.058  11.994  69.398  1.00  0.00     0.085 C  
HETATM    6  O   UNL     1      -6.111  12.996  69.523  1.00  0.00    -0.101 OA 
HETATM    7  C   UNL     1      -8.024  11.925  68.474  1.00  0.00    -0.137 C  
HETATM    8  N   UNL     1      -8.953  10.896  68.412  1.00  0.00    -0.147 NA 
HETATM    9  H   UNL     1      -9.559   6.768  69.853  1.00  0.00     0.000 HD 
HETATM   10  H   UNL     1      -6.151  13.696  68.882  1.00  0.00     0.000 HD 
HETATM   11  C   UNL     1      -8.872   9.910  69.268  1.00  0.00    -0.174 C  
HETATM   12  C   UNL     1      -8.811   6.892  67.933  1.00  0.00    -0.123 C  
HETATM   13  C   UNL     1     -10.852   8.785  70.491  1.00  0.00    -0.268 C  
HETATM   14  C   UNL     1     -10.991   9.063  68.058  1.00  0.00     0.002 C  
HETATM   15  C   UNL     1      -9.993   8.766  69.203  1.00  0.00    -0.191 C  
HETATM   16  O   UNL     1      -8.466   7.616  67.003  1.00  0.00    -0.121 OA 
HETATM   17  N   UNL     1      -9.452   7.397  69.057  1.00  0.00    -0.148 N  
ENDROOT
BRANCH   7  18
HETATM   18  C   UNL     1      -8.046  13.051  67.443  1.00  0.00    -0.180 C  
HETATM   19  H   UNL     1      -9.893  13.727  68.153  1.00  0.00     0.000 HD 
HETATM   20  N   UNL     1      -9.133  13.896  67.493  1.00  0.00    -0.191 N  
HETATM   21  O   UNL     1      -7.159  13.236  66.613  1.00  0.00     0.504 OA 
BRANCH  20  22
HETATM   22  C   UNL     1      -9.178  15.030  66.588  1.00  0.00    -0.276 C  
BRANCH  22  23
HETATM   23  C   UNL     1      -8.321  16.200  67.000  1.00  0.00    -0.247 A  
HETATM   24  C   UNL     1      -8.842  17.152  67.895  1.00  0.00    -0.226 A  
HETATM   25  C   UNL     1      -6.980  16.312  66.599  1.00  0.00    -0.056 A  
HETATM   26  C   UNL     1      -8.062  18.226  68.326  1.00  0.00    -0.311 A  
HETATM   27  C   UNL     1      -6.753  18.342  67.875  1.00  0.00    -0.208 A  
HETATM   28  C   UNL     1      -6.203  17.391  67.025  1.00  0.00    -0.203 A  
HETATM   29  F   UNL     1      -6.008  19.381  68.273  1.00  0.00    -0.212 F  
ENDBRANCH  22  23
ENDBRANCH  20  22
ENDBRANCH   7  18
BRANCH  12  30
HETATM   30  C   UNL     1      -8.595   5.452  67.978  1.00  0.00    -0.100 A  
HETATM   31  N   UNL     1      -7.453   4.835  67.728  1.00  0.00    -0.077 NA 
HETATM   32  C   UNL     1      -8.973   3.367  68.186  1.00  0.00    -0.138 A  
HETATM   33  N   UNL     1      -7.702   3.484  67.864  1.00  0.00    -0.068 NA 
HETATM   34  C   UNL     1      -9.771   2.149  68.425  1.00  0.00     0.035 C  
HETATM   35  O   UNL     1      -9.611   4.578  68.286  1.00  0.00    -0.142 OA 
ENDBRANCH  12  30
TORSDOF 4
ENDMDL
MODEL      111
REMARK 921   NORMALIZED FREE ENERGY PREDICTED BY IDOCK:   -2.54 KCAL/MOL
REMARK 922        TOTAL FREE ENERGY PREDICTED BY IDOCK:   -3.95 KCAL/MOL
REMARK 923 INTER-LIGAND FREE ENERGY PREDICTED BY IDOCK:   -3.35 KCAL/MOL
REMARK 924 INTRA-LIGAND FREE ENERGY PREDICTED BY IDOCK:   -0.60 KCAL/MOL
REMARK 927      BINDING AFFINITY PREDICTED BY RF-SCORE:    0.00 PKD
ROOT
HETATM    1  C   UNL     1     -11.246   6.271  71.079  1.00  0.00    -0.312 C  
HETATM    2  N   UNL     1     -10.692   7.254  70.158  1.00  0.00    -0.239 N  
HETATM    3  C   UNL     1     -11.241   8.514  70.279  1.00  0.00    -0.179 C  
HETATM    4  O   UNL     1     -12.154   8.829  71.045  1.00  0.00    -0.289 OA 
HETATM    5  C   UNL     1     -10.702   9.576  69.419  1.00  0.00    -0.225 C  
HETATM    6  O   UNL     1     -11.230  10.841  69.602  1.00  0.00    -0.248 OA 
HETATM    7  C   UNL     1      -9.762   9.227  68.531  1.00  0.00    -0.150 C  
HETATM    8  N   UNL     1      -9.283   7.932  68.390  1.00  0.00    -0.135 NA 
HETATM    9  H   UNL     1      -9.111   4.110  70.591  1.00  0.00     0.000 HD 
HETATM   10  H   UNL     1     -10.881  11.528  69.045  1.00  0.00     0.000 HD 
HETATM   11  C   UNL     1      -9.732   6.996  69.186  1.00  0.00    -0.156 C  
HETATM   12  C   UNL     1      -7.408   5.264  70.766  1.00  0.00    -0.073 C  
HETATM   13  C   UNL     1     -10.358   4.583  68.500  1.00  0.00     0.222 C  
HETATM   14  C   UNL     1      -8.183   5.468  67.793  1.00  0.00    -0.100 C  
HETATM   15  C   UNL     1      -9.199   5.500  68.960  1.00  0.00    -0.119 C  
HETATM   16  O   UNL     1      -6.821   6.294  70.447  1.00  0.00    -0.051 OA 
HETATM   17  N   UNL     1      -8.602   4.883  70.164  1.00  0.00    -0.090 N  
ENDROOT
BRANCH   7  18
HETATM   18  C   UNL     1      -9.204  10.357  67.669  1.00  0.00    -0.148 C  
HETATM   19  H   UNL     1     -10.925  10.364  66.482  1.00  0.00     0.000 HD 
HETATM   20  N   UNL     1     -10.024  10.809  66.659  1.00  0.00    -0.199 N  
HETATM   21  O   UNL     1      -8.101  10.870  67.843  1.00  0.00    -0.109 OA 
BRANCH  20  22
HETATM   22  C   UNL     1      -9.583  11.930  65.851  1.00  0.00    -0.231 C  
BRANCH  22  23
HETATM   23  C   UNL     1     -10.648  12.957  65.559  1.00  0.00    -0.298 A  
HETATM   24  C   UNL     1     -10.745  14.098  66.377  1.00  0.00    -0.288 A  
HETATM   25  C   UNL     1     -11.479  12.861  64.432  1.00  0.00    -0.405 A  
HETATM   26  C   UNL     1     -11.695  15.085  66.110  1.00  0.00    -0.091 A  
HETATM   27  C   UNL     1     -12.540  14.941  65.017  1.00  0.00     0.030 A  
HETATM   28  C   UNL     1     -12.433  13.845  64.171  1.00  0.00    -0.286 A  
HETATM   29  F   UNL     1     -13.464  15.879  64.769  1.00  0.00     1.017 F  
ENDBRANCH  22  23
ENDBRANCH  20  22
ENDBRANCH   7  18
BRANCH  12  30
HETATM   30  C   UNL     1      -6.945   4.335  71.789  1.00  0.00    -0.035 A  
HETATM   31  N   UNL     1      -5.708   3.890  71.922  1.00  0.00    -0.008 NA 
HETATM   32  C   UNL     1      -6.957   2.998  73.446  1.00  0.00    -0.039 A  
HETATM   33  N   UNL     1      -5.719   3.024  72.997  1.00  0.00    -0.003 NA 
HETATM   34  C   UNL     1      -7.534   2.222  74.560  1.00  0.00    -0.041 C  
HETATM   35  O   UNL     1      -7.799   3.815  72.733  1.00  0.00    -0.070 OA 
ENDBRANCH  12  30
TORSDOF 4
ENDMDL
MODEL      112
REMARK 921   NORMALIZED FREE ENERGY PREDICTED BY IDOCK:   -2.47 KCAL/MOL
REMARK 922        TOTAL FREE ENERGY PREDICTED BY IDOCK:   -3.87 KCAL/MOL
REMARK 923 INTER-LIGAND FREE ENERGY PREDICTED BY IDOCK:   -3.05 KCAL/MOL
REMARK 924 INTRA-LIGAND FREE ENERGY PREDICTED BY IDOCK:   -0.82 KCAL/MOL
REMARK 927      BINDING AFFINITY PREDICTED BY RF-SCORE:    0.00 PKD
ROOT
HETATM    1  C   UNL     1     -11.467   6.373  69.193  1.00  0.00    -0.190 C  
HETATM    2  N   UNL     1     -10.403   7.021  69.947  1.00  0.00    -0.205 N  
HETATM    3  C   UNL     1     -10.532   6.911  71.317  1.00  0.00    -0.208 C  
HETATM    4  O   UNL     1     -11.467   6.367  71.908  1.00  0.00    -0.275 OA 
HETATM    5  C   UNL     1      -9.473   7.496  72.148  1.00  0.00    -0.147 C  
HETATM    6  O   UNL     1      -9.598   7.321  73.515  1.00  0.00    -0.198 OA 
HETATM    7  C   UNL     1      -8.491   8.154  71.518  1.00  0.00    -0.127 C  
HETATM    8  N   UNL     1      -8.432   8.305  70.140  1.00  0.00    -0.124 NA 
HETATM    9  H   UNL     1     -10.086   6.535  66.449  1.00  0.00     0.000 HD 
HETATM   10  H   UNL     1      -8.913   7.699  74.053  1.00  0.00     0.000 HD 
HETATM   11  C   UNL     1      -9.352   7.746  69.397  1.00  0.00    -0.152 C  
HETATM   12  C   UNL     1      -8.216   5.826  66.964  1.00  0.00    -0.101 C  
HETATM   13  C   UNL     1     -10.506   8.810  67.343  1.00  0.00    -0.349 C  
HETATM   14  C   UNL     1      -8.058   8.860  67.459  1.00  0.00    -0.109 C  
HETATM   15  C   UNL     1      -9.284   7.985  67.812  1.00  0.00    -0.134 C  
HETATM   16  O   UNL     1      -7.268   5.881  67.742  1.00  0.00    -0.072 OA 
HETATM   17  N   UNL     1      -9.261   6.740  67.014  1.00  0.00    -0.132 N  
ENDROOT
BRANCH   7  18
HETATM   18  C   UNL     1      -7.393   8.729  72.408  1.00  0.00     0.113 C  
HETATM   19  H   UNL     1      -6.059   8.794  70.800  1.00  0.00     0.000 HD 
HETATM   20  N   UNL     1      -6.197   9.014  71.786  1.00  0.00    -0.080 N  
HETATM   21  O   UNL     1      -7.532   8.956  73.608  1.00  0.00    -0.384 OA 
BRANCH  20  22
HETATM   22  C   UNL     1      -5.137   9.632  72.561  1.00  0.00    -0.066 C  
BRANCH  22  23
HETATM   23  C   UNL     1      -5.234  11.132  72.679  1.00  0.00     0.494 A  
HETATM   24  C   UNL     1      -5.152  11.727  73.952  1.00  0.00     0.424 A  
HETATM   25  C   UNL     1      -5.297  11.961  71.548  1.00  0.00     0.099 A  
HETATM   26  C   UNL     1      -5.199  13.116  74.092  1.00  0.00     0.001 A  
HETATM   27  C   UNL     1      -5.313  13.911  72.959  1.00  0.00    -0.157 A  
HETATM   28  C   UNL     1      -5.351  13.348  71.691  1.00  0.00    -0.168 A  
HETATM   29  F   UNL     1      -5.376  15.243  73.093  1.00  0.00    -0.122 F  
ENDBRANCH  22  23
ENDBRANCH  20  22
ENDBRANCH   7  18
BRANCH  12  30
HETATM   30  C   UNL     1      -8.367   4.821  65.919  1.00  0.00    -0.116 A  
HETATM   31  N   UNL     1      -7.731   3.664  65.866  1.00  0.00    -0.088 NA 
HETATM   32  C   UNL     1      -9.013   3.854  64.136  1.00  0.00    -0.129 A  
HETATM   33  N   UNL     1      -8.153   3.039  64.709  1.00  0.00    -0.086 NA 
HETATM   34  C   UNL     1      -9.749   3.698  62.866  1.00  0.00    -0.128 C  
HETATM   35  O   UNL     1      -9.210   5.010  64.850  1.00  0.00    -0.131 OA 
ENDBRANCH  12  30
TORSDOF 4
ENDMDL
MODEL      113
REMARK 921   NORMALIZED FREE ENERGY PREDICTED BY IDOCK:   -2.14 KCAL/MOL
REMARK 922        TOTAL FREE ENERGY PREDICTED BY IDOCK:   -3.45 KCAL/MOL
REMARK 923 INTER-LIGAND FREE ENERGY PREDICTED BY IDOCK:   -3.77 KCAL/MOL
REMARK 924 INTRA-LIGAND FREE ENERGY PREDICTED BY IDOCK:    0.32 KCAL/MOL
REMARK 927      BINDING AFFINITY PREDICTED BY RF-SCORE:    0.00 PKD
ROOT
HETATM    1  C   UNL     1     -12.121  11.229  64.119  1.00  0.00     0.583 C  
HETATM    2  N   UNL     1     -11.277  12.352  64.503  1.00  0.00    -0.308 N  
HETATM    3  C   UNL     1     -11.926  13.570  64.514  1.00  0.00    -0.410 C  
HETATM    4  O   UNL     1     -13.100  13.759  64.191  1.00  0.00    -0.168 OA 
HETATM    5  C   UNL     1     -11.156  14.747  64.937  1.00  0.00    -0.407 C  
HETATM    6  O   UNL     1     -11.848  15.944  64.993  1.00  0.00     0.089 OA 
HETATM    7  C   UNL     1      -9.860  14.563  65.217  1.00  0.00    -0.186 C  
HETATM    8  N   UNL     1      -9.223  13.334  65.126  1.00  0.00     0.663 NA 
HETATM    9  H   UNL     1     -10.156   9.022  64.974  1.00  0.00     0.000 HD 
HETATM   10  H   UNL     1     -11.349  16.706  65.267  1.00  0.00     0.000 HD 
HETATM   11  C   UNL     1      -9.919  12.277  64.792  1.00  0.00    -0.190 C  
HETATM   12  C   UNL     1      -9.659   9.714  66.855  1.00  0.00    -0.167 C  
HETATM   13  C   UNL     1      -9.169  10.409  63.171  1.00  0.00    -0.314 C  
HETATM   14  C   UNL     1      -7.640  11.073  64.969  1.00  0.00     0.430 C  
HETATM   15  C   UNL     1      -9.140  10.883  64.644  1.00  0.00    -0.170 C  
HETATM   16  O   UNL     1      -9.306  10.665  67.546  1.00  0.00    -0.146 OA 
HETATM   17  N   UNL     1      -9.700   9.789  65.468  1.00  0.00    -0.297 N  
ENDROOT
BRANCH   7  18
HETATM   18  C   UNL     1      -9.093  15.800  65.677  1.00  0.00     0.027 C  
HETATM   19  H   UNL     1      -7.863  14.639  66.905  1.00  0.00     0.000 HD 
HETATM   20  N   UNL     1      -8.055  15.577  66.555  1.00  0.00    -0.164 N  
HETATM   21  O   UNL     1      -9.344  16.942  65.297  1.00  0.00    -0.034 OA 
BRANCH  20  22
HETATM   22  C   UNL     1      -7.240  16.703  66.972  1.00  0.00    -0.201 C  
BRANCH  22  23
HETATM   23  C   UNL     1      -7.978  17.764  67.748  1.00  0.00    -0.225 A  
HETATM   24  C   UNL     1      -9.299  17.516  68.167  1.00  0.00    -0.276 A  
HETATM   25  C   UNL     1      -7.352  18.952  68.157  1.00  0.00    -0.286 A  
HETATM   26  C   UNL     1      -9.996  18.462  68.920  1.00  0.00    -0.374 A  
HETATM   27  C   UNL     1      -9.369  19.652  69.269  1.00  0.00    -0.053 A  
HETATM   28  C   UNL     1      -8.053  19.900  68.904  1.00  0.00    -0.084 A  
HETATM   29  F   UNL     1     -10.042  20.569  69.976  1.00  0.00    -0.130 F  
ENDBRANCH  22  23
ENDBRANCH  20  22
ENDBRANCH   7  18
BRANCH  12  30
HETATM   30  C   UNL     1     -10.072   8.420  67.384  1.00  0.00    -0.236 A  
HETATM   31  N   UNL     1     -10.818   8.231  68.458  1.00  0.00     0.004 NA 
HETATM   32  C   UNL     1     -10.273   6.314  67.619  1.00  0.00    -0.169 A  
HETATM   33  N   UNL     1     -10.946   6.864  68.607  1.00  0.00    -0.181 NA 
HETATM   34  C   UNL     1     -10.056   4.887  67.311  1.00  0.00    -0.212 C  
HETATM   35  O   UNL     1      -9.692   7.241  66.789  1.00  0.00    -0.180 OA 
ENDBRANCH  12  30
TORSDOF 4
ENDMDL
MODEL      114
REMARK 921   NORMALIZED FREE ENERGY PREDICTED BY IDOCK:   -0.29 KCAL/MOL
REMARK 922        TOTAL FREE ENERGY PREDICTED BY IDOCK:   -1.17 KCAL/MOL
REMARK 923 INTER-LIGAND FREE ENERGY PREDICTED BY IDOCK:   -0.76 KCAL/MOL
REMARK 924 INTRA-LIGAND FREE ENERGY PREDICTED BY IDOCK:   -0.42 KCAL/MOL
REMARK 927      BINDING AFFINITY PREDICTED BY RF-SCORE:    0.00 PKD
ROOT
HETATM    1  C   UNL     1      -9.066   8.292  63.258  1.00  0.00     1.109 C  
HETATM    2  N   UNL     1      -8.724   9.389  64.153  1.00  0.00    -0.206 N  
HETATM    3  C   UNL     1      -9.514  10.509  64.003  1.00  0.00    -0.289 C  
HETATM    4  O   UNL     1     -10.413  10.647  63.170  1.00  0.00    -0.092 OA 
HETATM    5  C   UNL     1      -9.265  11.643  64.902  1.00  0.00     0.080 C  
HETATM    6  O   UNL     1     -10.110  12.730  64.768  1.00  0.00    -0.422 OA 
HETATM    7  C   UNL     1      -8.243  11.532  65.759  1.00  0.00     0.249 C  
HETATM    8  N   UNL     1      -7.423  10.415  65.834  1.00  0.00    -0.135 NA 
HETATM    9  H   UNL     1      -7.361   6.157  64.672  1.00  0.00     0.000 HD 
HETATM   10  H   UNL     1      -9.949  13.464  65.350  1.00  0.00     0.000 HD 
HETATM   11  C   UNL     1      -7.672   9.388  65.063  1.00  0.00    -0.110 C  
HETATM   12  C   UNL     1      -7.941   6.492  66.624  1.00  0.00    -0.109 C  
HETATM   13  C   UNL     1      -5.919   7.974  63.793  1.00  0.00    -0.062 C  
HETATM   14  C   UNL     1      -5.564   8.399  66.182  1.00  0.00    -0.039 C  
HETATM   15  C   UNL     1      -6.673   8.135  65.136  1.00  0.00    -0.052 C  
HETATM   16  O   UNL     1      -8.136   7.311  67.518  1.00  0.00    -0.111 OA 
HETATM   17  N   UNL     1      -7.340   6.846  65.423  1.00  0.00    -0.076 N  
ENDROOT
BRANCH   7  18
HETATM   18  C   UNL     1      -8.024  12.717  66.697  1.00  0.00     0.254 C  
HETATM   19  H   UNL     1      -9.953  12.515  67.477  1.00  0.00     0.000 HD 
HETATM   20  N   UNL     1      -9.072  13.026  67.535  1.00  0.00    -0.181 N  
HETATM   21  O   UNL     1      -6.984  13.370  66.744  1.00  0.00     0.319 OA 
BRANCH  20  22
HETATM   22  C   UNL     1      -8.900  14.094  68.502  1.00  0.00    -0.173 C  
BRANCH  22  23
HETATM   23  C   UNL     1     -10.161  14.507  69.219  1.00  0.00    -0.121 A  
HETATM   24  C   UNL     1     -11.368  14.581  68.499  1.00  0.00    -0.309 A  
HETATM   25  C   UNL     1     -10.188  14.719  70.606  1.00  0.00     0.676 A  
HETATM   26  C   UNL     1     -12.560  14.922  69.141  1.00  0.00     0.151 A  
HETATM   27  C   UNL     1     -12.550  15.176  70.506  1.00  0.00    -0.380 A  
HETATM   28  C   UNL     1     -11.379  15.067  71.245  1.00  0.00    -0.315 A  
HETATM   29  F   UNL     1     -13.689  15.521  71.121  1.00  0.00    -0.520 F  
ENDBRANCH  22  23
ENDBRANCH  20  22
ENDBRANCH   7  18
BRANCH  12  30
HETATM   30  C   UNL     1      -8.307   5.084  66.704  1.00  0.00    -0.107 A  
HETATM   31  N   UNL     1      -7.914   4.238  67.640  1.00  0.00    -0.091 NA 
HETATM   32  C   UNL     1      -9.165   3.198  66.217  1.00  0.00    -0.130 A  
HETATM   33  N   UNL     1      -8.473   3.016  67.321  1.00  0.00    -0.089 NA 
HETATM   34  C   UNL     1      -9.941   2.223  65.425  1.00  0.00     0.650 C  
HETATM   35  O   UNL     1      -9.116   4.492  65.763  1.00  0.00    -0.125 OA 
ENDBRANCH  12  30
TORSDOF 4
ENDMDL
MODEL      115
REMARK 921   NORMALIZED FREE ENERGY PREDICTED BY IDOCK:   -0.23 KCAL/MOL
REMARK 922        TOTAL FREE ENERGY PREDICTED BY IDOCK:   -1.10 KCAL/MOL
REMARK 923 INTER-LIGAND FREE ENERGY PREDICTED BY IDOCK:   -1.48 KCAL/MOL
REMARK 924 INTRA-LIGAND FREE ENERGY PREDICTED BY IDOCK:    0.38 KCAL/MOL
REMARK 927      BINDING AFFINITY PREDICTED BY RF-SCORE:    0.00 PKD
ROOT
HETATM    1  C   UNL     1     -11.695   9.754  67.325  1.00  0.00     2.089 C  
HETATM    2  N   UNL     1     -11.393  11.178  67.376  1.00  0.00    -0.296 N  
HETATM    3  C   UNL     1     -11.543  11.744  68.625  1.00  0.00    -0.309 C  
HETATM    4  O   UNL     1     -11.940  11.159  69.635  1.00  0.00    -0.308 OA 
HETATM    5  C   UNL     1     -11.210  13.166  68.771  1.00  0.00    -0.281 C  
HETATM    6  O   UNL     1     -11.314  13.693  70.047  1.00  0.00    -0.467 OA 
HETATM    7  C   UNL     1     -10.849  13.829  67.665  1.00  0.00    -0.254 C  
HETATM    8  N   UNL     1     -10.777  13.241  66.409  1.00  0.00    -0.283 NA 
HETATM    9  H   UNL     1     -10.517   9.257  64.528  1.00  0.00     0.000 HD 
HETATM   10  H   UNL     1     -11.099  14.614  70.141  1.00  0.00     0.000 HD 
HETATM   11  C   UNL     1     -11.032  11.964  66.287  1.00  0.00    -0.302 C  
HETATM   12  C   UNL     1      -8.698  10.209  64.747  1.00  0.00    -0.185 C  
HETATM   13  C   UNL     1     -12.407  10.857  64.399  1.00  0.00     2.511 C  
HETATM   14  C   UNL     1     -10.617  12.413  63.777  1.00  0.00    -0.486 C  
HETATM   15  C   UNL     1     -10.993  11.329  64.815  1.00  0.00    -0.192 C  
HETATM   16  O   UNL     1      -8.096  11.214  65.114  1.00  0.00     0.108 OA 
HETATM   17  N   UNL     1     -10.085  10.168  64.681  1.00  0.00    -0.261 N  
ENDROOT
BRANCH   7  18
HETATM   18  C   UNL     1     -10.486  15.299  67.853  1.00  0.00    -0.253 C  
HETATM   19  H   UNL     1      -9.338  14.848  69.541  1.00  0.00     0.000 HD 
HETATM   20  N   UNL     1      -9.644  15.585  68.905  1.00  0.00    -0.206 N  
HETATM   21  O   UNL     1     -10.886  16.202  67.122  1.00  0.00    -0.302 OA 
BRANCH  20  22
HETATM   22  C   UNL     1      -9.202  16.954  69.093  1.00  0.00    -0.105 C  
BRANCH  22  23
HETATM   23  C   UNL     1      -8.204  17.441  68.074  1.00  0.00    -0.229 A  
HETATM   24  C   UNL     1      -7.717  16.544  67.105  1.00  0.00    -0.214 A  
HETATM   25  C   UNL     1      -7.823  18.790  67.997  1.00  0.00    -0.297 A  
HETATM   26  C   UNL     1      -6.821  16.972  66.124  1.00  0.00    -0.061 A  
HETATM   27  C   UNL     1      -6.422  18.303  66.101  1.00  0.00    -0.231 A  
HETATM   28  C   UNL     1      -6.922  19.216  67.019  1.00  0.00    -0.208 A  
HETATM   29  F   UNL     1      -5.549  18.713  65.171  1.00  0.00    -0.190 F  
ENDBRANCH  22  23
ENDBRANCH  20  22
ENDBRANCH   7  18
BRANCH  12  30
HETATM   30  C   UNL     1      -8.055   8.964  64.347  1.00  0.00    -0.153 A  
HETATM   31  N   UNL     1      -8.614   7.767  64.371  1.00  0.00     0.158 NA 
HETATM   32  C   UNL     1      -6.576   7.591  63.672  1.00  0.00    -0.053 A  
HETATM   33  N   UNL     1      -7.651   6.879  63.933  1.00  0.00    -0.102 NA 
HETATM   34  C   UNL     1      -5.249   7.147  63.200  1.00  0.00    -0.033 C  
HETATM   35  O   UNL     1      -6.755   8.932  63.903  1.00  0.00    -0.087 OA 
ENDBRANCH  12  30
TORSDOF 4
ENDMDL
MODEL      116
REMARK 921   NORMALIZED FREE ENERGY PREDICTED BY IDOCK:    1.55 KCAL/MOL
REMARK 922        TOTAL FREE ENERGY PREDICTED BY IDOCK:    1.10 KCAL/MOL
REMARK 923 INTER-LIGAND FREE ENERGY PREDICTED BY IDOCK:    0.83 KCAL/MOL
REMARK 924 INTRA-LIGAND FREE ENERGY PREDICTED BY IDOCK:    0.27 KCAL/MOL
REMARK 927      BINDING AFFINITY PREDICTED BY RF-SCORE:    0.00 PKD
ROOT
HETATM    1  C   UNL     1      -7.127  16.398  70.401  1.00  0.00     1.375 C  
HETATM    2  N   UNL     1      -6.693  15.259  69.603  1.00  0.00    -0.170 N  
HETATM    3  C   UNL     1      -6.664  14.064  70.292  1.00  0.00     0.138 C  
HETATM    4  O   UNL     1      -6.924  13.919  71.488  1.00  0.00     1.166 OA 
HETATM    5  C   UNL     1      -6.284  12.858  69.546  1.00  0.00    -0.118 C  
HETATM    6  O   UNL     1      -6.319  11.666  70.247  1.00  0.00    -0.319 OA 
HETATM    7  C   UNL     1      -5.926  13.017  68.265  1.00  0.00    -0.086 C  
HETATM    8  N   UNL     1      -5.900  14.247  67.624  1.00  0.00    -0.338 NA 
HETATM    9  H   UNL     1      -7.506  18.338  68.043  1.00  0.00     0.000 HD 
HETATM   10  H   UNL     1      -6.072  10.885  69.764  1.00  0.00     0.000 HD 
HETATM   11  C   UNL     1      -6.281  15.316  68.276  1.00  0.00    -0.120 C  
HETATM   12  C   UNL     1      -8.595  17.127  66.774  1.00  0.00    -0.243 C  
HETATM   13  C   UNL     1      -5.135  17.632  68.211  1.00  0.00    -0.144 C  
HETATM   14  C   UNL     1      -5.655  16.529  66.083  1.00  0.00     1.170 C  
HETATM   15  C   UNL     1      -6.186  16.728  67.523  1.00  0.00    -0.163 C  
HETATM   16  O   UNL     1      -8.706  16.030  66.235  1.00  0.00    -0.298 OA 
HETATM   17  N   UNL     1      -7.459  17.482  67.491  1.00  0.00    -0.186 N  
ENDROOT
BRANCH   7  18
HETATM   18  C   UNL     1      -5.560  11.742  67.509  1.00  0.00    -0.079 C  
HETATM   19  H   UNL     1      -5.505  10.647  69.289  1.00  0.00     0.000 HD 
HETATM   20  N   UNL     1      -5.418  10.605  68.273  1.00  0.00    -0.037 N  
HETATM   21  O   UNL     1      -5.407  11.689  66.291  1.00  0.00    -0.292 OA 
BRANCH  20  22
HETATM   22  C   UNL     1      -5.143   9.346  67.607  1.00  0.00    -0.037 C  
BRANCH  22  23
HETATM   23  C   UNL     1      -6.290   8.367  67.608  1.00  0.00    -0.053 A  
HETATM   24  C   UNL     1      -6.390   7.424  66.567  1.00  0.00    -0.045 A  
HETATM   25  C   UNL     1      -7.203   8.298  68.672  1.00  0.00    -0.087 A  
HETATM   26  C   UNL     1      -7.417   6.479  66.560  1.00  0.00    -0.086 A  
HETATM   27  C   UNL     1      -8.338   6.465  67.600  1.00  0.00    -0.117 A  
HETATM   28  C   UNL     1      -8.233   7.357  68.660  1.00  0.00    -0.125 A  
HETATM   29  F   UNL     1      -9.334   5.570  67.586  1.00  0.00    -0.112 F  
ENDBRANCH  22  23
ENDBRANCH  20  22
ENDBRANCH   7  18
BRANCH  12  30
HETATM   30  C   UNL     1      -9.613  18.169  66.737  1.00  0.00    -0.301 A  
HETATM   31  N   UNL     1     -10.386  18.529  67.747  1.00  0.00    -0.384 NA 
HETATM   32  C   UNL     1     -10.889  19.710  66.008  1.00  0.00    -0.320 A  
HETATM   33  N   UNL     1     -11.211  19.528  67.271  1.00  0.00    -0.186 NA 
HETATM   34  C   UNL     1     -11.470  20.635  65.016  1.00  0.00     1.818 C  
HETATM   35  O   UNL     1      -9.872  18.887  65.593  1.00  0.00    -0.387 OA 
ENDBRANCH  12  30
TORSDOF 4
ENDMDL
MODEL      117
REMARK 921   NORMALIZED FREE ENERGY PREDICTED BY IDOCK:    3.84 KCAL/MOL
REMARK 922        TOTAL FREE ENERGY PREDICTED BY IDOCK:    3.92 KCAL/MOL
REMARK 923 INTER-LIGAND FREE ENERGY PREDICTED BY IDOCK:    3.58 KCAL/MOL
REMARK 924 INTRA-LIGAND FREE ENERGY PREDICTED BY IDOCK:    0.34 KCAL/MOL
REMARK 927      BINDING AFFINITY PREDICTED BY RF-SCORE:    0.00 PKD
ROOT
HETATM    1  C   UNL     1     -11.227   9.741  65.381  1.00  0.00     2.643 C  
HETATM    2  N   UNL     1     -10.099  10.584  65.753  1.00  0.00    -0.260 N  
HETATM    3  C   UNL     1     -10.355  11.937  65.679  1.00  0.00    -0.247 C  
HETATM    4  O   UNL     1     -11.408  12.448  65.294  1.00  0.00    -0.310 OA 
HETATM    5  C   UNL     1      -9.283  12.855  66.085  1.00  0.00    -0.014 C  
HETATM    6  O   UNL     1      -9.587  14.205  66.056  1.00  0.00    -0.406 OA 
HETATM    7  C   UNL     1      -8.110  12.312  66.433  1.00  0.00     0.285 C  
HETATM    8  N   UNL     1      -7.866  10.946  66.428  1.00  0.00    -0.151 NA 
HETATM    9  H   UNL     1     -10.039   7.103  66.425  1.00  0.00     0.000 HD 
HETATM   10  H   UNL     1      -8.893  14.799  66.318  1.00  0.00     0.000 HD 
HETATM   11  C   UNL     1      -8.835  10.126  66.109  1.00  0.00    -0.145 C  
HETATM   12  C   UNL     1      -9.417   7.722  68.294  1.00  0.00    -0.147 C  
HETATM   13  C   UNL     1      -8.626   8.030  64.610  1.00  0.00     0.085 C  
HETATM   14  C   UNL     1      -7.026   8.312  66.447  1.00  0.00    -0.067 C  
HETATM   15  C   UNL     1      -8.504   8.557  66.060  1.00  0.00    -0.140 C  
HETATM   16  O   UNL     1      -8.819   8.563  68.958  1.00  0.00    -0.143 OA 
HETATM   17  N   UNL     1      -9.390   7.727  66.905  1.00  0.00    -0.159 N  
ENDROOT
BRANCH   7  18
HETATM   18  C   UNL     1      -7.023  13.290  66.874  1.00  0.00     0.758 C  
HETATM   19  H   UNL     1      -8.231  14.924  66.383  1.00  0.00     0.000 HD 
HETATM   20  N   UNL     1      -7.338  14.627  66.778  1.00  0.00     0.546 N  
HETATM   21  O   UNL     1      -5.927  12.944  67.308  1.00  0.00    -0.294 OA 
BRANCH  20  22
HETATM   22  C   UNL     1      -6.376  15.606  67.250  1.00  0.00    -0.021 C  
BRANCH  22  23
HETATM   23  C   UNL     1      -6.566  16.996  66.697  1.00  0.00    -0.272 A  
HETATM   24  C   UNL     1      -5.474  17.653  66.100  1.00  0.00    -0.237 A  
HETATM   25  C   UNL     1      -7.826  17.614  66.666  1.00  0.00    -0.283 A  
HETATM   26  C   UNL     1      -5.626  18.925  65.545  1.00  0.00    -0.214 A  
HETATM   27  C   UNL     1      -6.873  19.535  65.571  1.00  0.00    -0.285 A  
HETATM   28  C   UNL     1      -7.975  18.888  66.116  1.00  0.00    -0.256 A  
HETATM   29  F   UNL     1      -7.018  20.763  65.055  1.00  0.00    -0.273 F  
ENDBRANCH  22  23
ENDBRANCH  20  22
ENDBRANCH   7  18
BRANCH  12  30
HETATM   30  C   UNL     1     -10.214   6.641  68.861  1.00  0.00    -0.177 A  
HETATM   31  N   UNL     1     -11.315   6.137  68.332  1.00  0.00    -0.131 NA 
HETATM   32  C   UNL     1     -10.891   5.128  70.196  1.00  0.00     0.140 A  
HETATM   33  N   UNL     1     -11.751   5.156  69.200  1.00  0.00     3.271 NA 
HETATM   34  C   UNL     1     -10.889   4.288  71.410  1.00  0.00     0.644 C  
HETATM   35  O   UNL     1      -9.876   6.040  70.050  1.00  0.00    -0.164 OA 
ENDBRANCH  12  30
TORSDOF 4
ENDMDL
MODEL      118
REMARK 921   NORMALIZED FREE ENERGY PREDICTED BY IDOCK:    5.68 KCAL/MOL
REMARK 922        TOTAL FREE ENERGY PREDICTED BY IDOCK:    6.20 KCAL/MOL
REMARK 923 INTER-LIGAND FREE ENERGY PREDICTED BY IDOCK:    5.92 KCAL/MOL
REMARK 924 INTRA-LIGAND FREE ENERGY PREDICTED BY IDOCK:    0.28 KCAL/MOL
REMARK 927      BINDING AFFINITY PREDICTED BY RF-SCORE:    0.00 PKD
ROOT
HETATM    1  C   UNL     1     -11.189   6.543  67.990  1.00  0.00    -0.148 C  
HETATM    2  N   UNL     1     -10.984   7.968  68.213  1.00  0.00     0.111 N  
HETATM    3  C   UNL     1     -11.486   8.431  69.412  1.00  0.00     0.542 C  
HETATM    4  O   UNL     1     -12.105   7.757  70.238  1.00  0.00     0.089 OA 
HETATM    5  C   UNL     1     -11.277   9.848  69.735  1.00  0.00    -0.235 C  
HETATM    6  O   UNL     1     -11.740  10.271  70.968  1.00  0.00    -0.349 OA 
HETATM    7  C   UNL     1     -10.672  10.605  68.811  1.00  0.00    -0.215 C  
HETATM    8  N   UNL     1     -10.241  10.119  67.584  1.00  0.00    -0.190 NA 
HETATM    9  H   UNL     1      -9.290   6.301  65.581  1.00  0.00     0.000 HD 
HETATM   10  H   UNL     1     -11.605  11.188  71.177  1.00  0.00     0.000 HD 
HETATM   11  C   UNL     1     -10.389   8.847  67.315  1.00  0.00    -0.280 C  
HETATM   12  C   UNL     1      -7.645   7.292  66.340  1.00  0.00    -0.092 C  
HETATM   13  C   UNL     1     -11.159   7.846  65.059  1.00  0.00     8.813 C  
HETATM   14  C   UNL     1      -9.351   9.502  65.042  1.00  0.00    -0.294 C  
HETATM   15  C   UNL     1      -9.931   8.329  65.867  1.00  0.00     0.335 C  
HETATM   16  O   UNL     1      -7.213   8.284  66.920  1.00  0.00    -0.080 OA 
HETATM   17  N   UNL     1      -8.962   7.212  65.904  1.00  0.00    -0.114 N  
ENDROOT
BRANCH   7  18
HETATM   18  C   UNL     1     -10.447  12.067  69.186  1.00  0.00     0.033 C  
HETATM   19  H   UNL     1     -12.503  12.442  69.149  1.00  0.00     0.000 HD 
HETATM   20  N   UNL     1     -11.580  12.835  69.335  1.00  0.00    -0.297 N  
HETATM   21  O   UNL     1      -9.337  12.564  69.368  1.00  0.00     0.747 OA 
BRANCH  20  22
HETATM   22  C   UNL     1     -11.438  14.214  69.763  1.00  0.00    -0.250 C  
BRANCH  22  23
HETATM   23  C   UNL     1     -10.984  15.166  68.686  1.00  0.00    -0.256 A  
HETATM   24  C   UNL     1     -11.132  16.552  68.886  1.00  0.00    -0.300 A  
HETATM   25  C   UNL     1     -10.320  14.717  67.533  1.00  0.00    -0.238 A  
HETATM   26  C   UNL     1     -10.687  17.461  67.925  1.00  0.00    -0.351 A  
HETATM   27  C   UNL     1     -10.079  16.988  66.769  1.00  0.00    -0.300 A  
HETATM   28  C   UNL     1      -9.882  15.628  66.570  1.00  0.00    -0.278 A  
HETATM   29  F   UNL     1      -9.667  17.857  65.837  1.00  0.00    -0.264 F  
ENDBRANCH  22  23
ENDBRANCH  20  22
ENDBRANCH   7  18
BRANCH  12  30
HETATM   30  C   UNL     1      -6.857   6.102  66.044  1.00  0.00    -0.057 A  
HETATM   31  N   UNL     1      -5.601   6.093  65.632  1.00  0.00    -0.016 NA 
HETATM   32  C   UNL     1      -6.323   4.060  65.772  1.00  0.00    -0.032 A  
HETATM   33  N   UNL     1      -5.258   4.767  65.457  1.00  0.00    -0.012 NA 
HETATM   34  C   UNL     1      -6.519   2.597  65.740  1.00  0.00    -0.028 C  
HETATM   35  O   UNL     1      -7.383   4.838  66.165  1.00  0.00    -0.075 OA 
ENDBRANCH  12  30
TORSDOF 4
ENDMDL
MODEL      119
REMARK 921   NORMALIZED FREE ENERGY PREDICTED BY IDOCK:    7.89 KCAL/MOL
REMARK 922        TOTAL FREE ENERGY PREDICTED BY IDOCK:    8.92 KCAL/MOL
REMARK 923 INTER-LIGAND FREE ENERGY PREDICTED BY IDOCK:    7.29 KCAL/MOL
REMARK 924 INTRA-LIGAND FREE ENERGY PREDICTED BY IDOCK:    1.63 KCAL/MOL
REMARK 927      BINDING AFFINITY PREDICTED BY RF-SCORE:    0.00 PKD
ROOT
HETATM    1  C   UNL     1      -8.656  13.301  69.706  1.00  0.00     2.150 C  
HETATM    2  N   UNL     1      -8.322  12.092  68.965  1.00  0.00     0.178 N  
HETATM    3  C   UNL     1      -8.811  10.931  69.529  1.00  0.00     0.263 C  
HETATM    4  O   UNL     1      -9.438  10.856  70.587  1.00  0.00     1.621 OA 
HETATM    5  C   UNL     1      -8.559   9.672  68.816  1.00  0.00    -0.125 C  
HETATM    6  O   UNL     1      -9.110   8.531  69.374  1.00  0.00    -0.148 OA 
HETATM    7  C   UNL     1      -7.815   9.734  67.705  1.00  0.00    -0.094 C  
HETATM    8  N   UNL     1      -7.280  10.913  67.206  1.00  0.00    -0.094 NA 
HETATM    9  H   UNL     1      -7.806  15.286  67.514  1.00  0.00     0.000 HD 
HETATM   10  H   UNL     1      -8.947   7.716  68.913  1.00  0.00     0.000 HD 
HETATM   11  C   UNL     1      -7.541  12.041  67.816  1.00  0.00    -0.130 C  
HETATM   12  C   UNL     1      -8.754  14.431  65.891  1.00  0.00     0.871 C  
HETATM   13  C   UNL     1      -5.859  13.950  68.275  1.00  0.00    -0.114 C  
HETATM   14  C   UNL     1      -6.006  13.048  65.999  1.00  0.00     4.445 C  
HETATM   15  C   UNL     1      -6.863  13.377  67.245  1.00  0.00     0.084 C  
HETATM   16  O   UNL     1      -8.987  13.411  65.249  1.00  0.00     0.876 OA 
HETATM   17  N   UNL     1      -7.826  14.453  66.924  1.00  0.00     0.066 N  
ENDROOT
BRANCH   7  18
HETATM   18  C   UNL     1      -7.592   8.412  66.974  1.00  0.00    -0.092 C  
HETATM   19  H   UNL     1      -5.685   8.219  67.810  1.00  0.00     0.000 HD 
HETATM   20  N   UNL     1      -6.391   7.783  67.216  1.00  0.00    -0.053 N  
HETATM   21  O   UNL     1      -8.415   7.900  66.220  1.00  0.00    -0.121 OA 
BRANCH  20  22
HETATM   22  C   UNL     1      -6.148   6.487  66.609  1.00  0.00    -0.033 C  
BRANCH  22  23
HETATM   23  C   UNL     1      -7.389   5.679  66.326  1.00  0.00    -0.078 A  
HETATM   24  C   UNL     1      -7.484   4.965  65.117  1.00  0.00    -0.076 A  
HETATM   25  C   UNL     1      -8.411   5.534  67.278  1.00  0.00    -0.104 A  
HETATM   26  C   UNL     1      -8.603   4.177  64.841  1.00  0.00    -0.118 A  
HETATM   27  C   UNL     1      -9.623   4.090  65.780  1.00  0.00    -0.191 A  
HETATM   28  C   UNL     1      -9.532   4.751  66.998  1.00  0.00    -0.164 A  
HETATM   29  F   UNL     1     -10.705   3.349  65.511  1.00  0.00     0.349 F  
ENDBRANCH  22  23
ENDBRANCH  20  22
ENDBRANCH   7  18
BRANCH  12  30
HETATM   30  C   UNL     1      -9.406  15.715  65.661  1.00  0.00    -0.172 A  
HETATM   31  N   UNL     1     -10.289  15.971  64.712  1.00  0.00    -0.424 NA 
HETATM   32  C   UNL     1      -9.932  17.768  65.860  1.00  0.00    -0.120 A  
HETATM   33  N   UNL     1     -10.628  17.303  64.845  1.00  0.00    -0.472 NA 
HETATM   34  C   UNL     1      -9.888  19.133  66.420  1.00  0.00    -0.437 C  
HETATM   35  O   UNL     1      -9.133  16.814  66.440  1.00  0.00    -0.254 OA 
ENDBRANCH  12  30
TORSDOF 4
ENDMDL
MODEL      120
REMARK 921   NORMALIZED FREE ENERGY PREDICTED BY IDOCK:    8.49 KCAL/MOL
REMARK 922        TOTAL FREE ENERGY PREDICTED BY IDOCK:    9.66 KCAL/MOL
REMARK 923 INTER-LIGAND FREE ENERGY PREDICTED BY IDOCK:   10.55 KCAL/MOL
REMARK 924 INTRA-LIGAND FREE ENERGY PREDICTED BY IDOCK:   -0.89 KCAL/MOL
REMARK 927      BINDING AFFINITY PREDICTED BY RF-SCORE:    0.00 PKD
ROOT
HETATM    1  C   UNL     1     -10.219   9.897  63.831  1.00  0.00     1.047 C  
HETATM    2  N   UNL     1     -10.259  11.345  63.981  1.00  0.00    -0.311 N  
HETATM    3  C   UNL     1     -11.448  11.922  63.585  1.00  0.00    -0.461 C  
HETATM    4  O   UNL     1     -12.408  11.322  63.096  1.00  0.00     0.031 OA 
HETATM    5  C   UNL     1     -11.588  13.374  63.750  1.00  0.00    -0.313 C  
HETATM    6  O   UNL     1     -12.811  13.917  63.398  1.00  0.00    -0.607 OA 
HETATM    7  C   UNL     1     -10.524  14.044  64.210  1.00  0.00     0.155 C  
HETATM    8  N   UNL     1      -9.318  13.438  64.533  1.00  0.00     0.784 NA 
HETATM    9  H   UNL     1      -7.653   9.459  65.472  1.00  0.00     0.000 HD 
HETATM   10  H   UNL     1     -12.902  14.857  63.505  1.00  0.00     0.000 HD 
HETATM   11  C   UNL     1      -9.208  12.139  64.427  1.00  0.00     0.511 C  
HETATM   12  C   UNL     1      -8.108  10.599  67.132  1.00  0.00    -0.121 C  
HETATM   13  C   UNL     1      -7.177  10.853  63.476  1.00  0.00     0.483 C  
HETATM   14  C   UNL     1      -6.774  12.570  65.179  1.00  0.00     6.291 C  
HETATM   15  C   UNL     1      -7.784  11.477  64.756  1.00  0.00     1.496 C  
HETATM   16  O   UNL     1      -8.523  11.669  67.569  1.00  0.00    -0.140 OA 
HETATM   17  N   UNL     1      -7.835  10.414  65.782  1.00  0.00    -0.146 N  
ENDROOT
BRANCH   7  18
HETATM   18  C   UNL     1     -10.708  15.548  64.394  1.00  0.00     0.260 C  
HETATM   19  H   UNL     1     -11.046  15.305  66.442  1.00  0.00     0.000 HD 
HETATM   20  N   UNL     1     -10.948  15.977  65.681  1.00  0.00    -0.228 N  
HETATM   21  O   UNL     1     -10.637  16.363  63.476  1.00  0.00     1.905 OA 
BRANCH  20  22
HETATM   22  C   UNL     1     -11.058  17.401  65.933  1.00  0.00     0.419 C  
BRANCH  22  23
HETATM   23  C   UNL     1     -10.323  17.884  67.158  1.00  0.00    -0.371 A  
HETATM   24  C   UNL     1      -9.710  16.945  68.007  1.00  0.00    -0.256 A  
HETATM   25  C   UNL     1     -10.143  19.251  67.421  1.00  0.00    -0.486 A  
HETATM   26  C   UNL     1      -8.989  17.362  69.127  1.00  0.00     0.055 A  
HETATM   27  C   UNL     1      -8.869  18.720  69.393  1.00  0.00     0.319 A  
HETATM   28  C   UNL     1      -9.429  19.667  68.546  1.00  0.00    -0.436 A  
HETATM   29  F   UNL     1      -8.193  19.122  70.477  1.00  0.00     1.170 F  
ENDBRANCH  22  23
ENDBRANCH  20  22
ENDBRANCH   7  18
BRANCH  12  30
HETATM   30  C   UNL     1      -7.859   9.418  67.948  1.00  0.00    -0.091 A  
HETATM   31  N   UNL     1      -8.361   9.191  69.149  1.00  0.00    -0.120 NA 
HETATM   32  C   UNL     1      -7.077   7.545  68.590  1.00  0.00    -0.081 A  
HETATM   33  N   UNL     1      -7.853   7.976  69.561  1.00  0.00    -0.103 NA 
HETATM   34  C   UNL     1      -6.267   6.313  68.513  1.00  0.00    -0.032 C  
HETATM   35  O   UNL     1      -7.034   8.404  67.521  1.00  0.00    -0.072 OA 
ENDBRANCH  12  30
TORSDOF 4
ENDMDL
MODEL      121
REMARK 921   NORMALIZED FREE ENERGY PREDICTED BY IDOCK:   10.59 KCAL/MOL
REMARK 922        TOTAL FREE ENERGY PREDICTED BY IDOCK:   12.26 KCAL/MOL
REMARK 923 INTER-LIGAND FREE ENERGY PREDICTED BY IDOCK:    6.65 KCAL/MOL
REMARK 924 INTRA-LIGAND FREE ENERGY PREDICTED BY IDOCK:    5.60 KCAL/MOL
REMARK 927      BINDING AFFINITY PREDICTED BY RF-SCORE:    0.00 PKD
ROOT
HETATM    1  C   UNL     1     -11.431   7.284  68.500  1.00  0.00     0.618 C  
HETATM    2  N   UNL     1     -10.362   8.265  68.632  1.00  0.00    -0.208 N  
HETATM    3  C   UNL     1     -10.025   8.561  69.936  1.00  0.00    -0.189 C  
HETATM    4  O   UNL     1     -10.575   8.106  70.941  1.00  0.00    -0.205 OA 
HETATM    5  C   UNL     1      -8.922   9.506  70.156  1.00  0.00    -0.236 C  
HETATM    6  O   UNL     1      -8.567   9.740  71.472  1.00  0.00    -0.038 OA 
HETATM    7  C   UNL     1      -8.368  10.064  69.072  1.00  0.00    -0.134 C  
HETATM    8  N   UNL     1      -8.782   9.794  67.775  1.00  0.00    -0.129 NA 
HETATM    9  H   UNL     1     -11.060   6.784  65.487  1.00  0.00     0.000 HD 
HETATM   10  H   UNL     1      -7.853  10.352  71.614  1.00  0.00     0.000 HD 
HETATM   11  C   UNL     1      -9.735   8.920  67.578  1.00  0.00    -0.170 C  
HETATM   12  C   UNL     1      -9.014   6.517  65.433  1.00  0.00     0.153 C  
HETATM   13  C   UNL     1     -11.690   9.147  65.901  1.00  0.00     5.914 C  
HETATM   14  C   UNL     1      -9.410   9.551  65.094  1.00  0.00    -0.316 C  
HETATM   15  C   UNL     1     -10.226   8.672  66.071  1.00  0.00     0.287 C  
HETATM   16  O   UNL     1      -7.909   6.930  65.771  1.00  0.00    -0.094 OA 
HETATM   17  N   UNL     1     -10.170   7.257  65.642  1.00  0.00     1.348 N  
ENDROOT
BRANCH   7  18
HETATM   18  C   UNL     1      -7.208  11.022  69.331  1.00  0.00    -0.114 C  
HETATM   19  H   UNL     1      -6.706  11.036  67.302  1.00  0.00     0.000 HD 
HETATM   20  N   UNL     1      -6.491  11.417  68.223  1.00  0.00    -0.055 N  
HETATM   21  O   UNL     1      -6.911  11.452  70.443  1.00  0.00     0.075 OA 
BRANCH  20  22
HETATM   22  C   UNL     1      -5.423  12.385  68.392  1.00  0.00    -0.053 C  
BRANCH  22  23
HETATM   23  C   UNL     1      -5.406  13.079  69.731  1.00  0.00    -0.087 A  
HETATM   24  C   UNL     1      -5.247  14.477  69.777  1.00  0.00    -0.092 A  
HETATM   25  C   UNL     1      -5.648  12.386  70.927  1.00  0.00    -0.109 A  
HETATM   26  C   UNL     1      -5.266  15.155  70.998  1.00  0.00    -0.134 A  
HETATM   27  C   UNL     1      -5.458  14.438  72.172  1.00  0.00    -0.117 A  
HETATM   28  C   UNL     1      -5.659  13.064  72.147  1.00  0.00     0.422 A  
HETATM   29  F   UNL     1      -5.458  15.084  73.346  1.00  0.00    -0.185 F  
ENDBRANCH  22  23
ENDBRANCH  20  22
ENDBRANCH   7  18
BRANCH  12  30
HETATM   30  C   UNL     1      -9.250   5.231  64.788  1.00  0.00     0.133 A  
HETATM   31  N   UNL     1     -10.190   4.979  63.894  1.00  0.00     0.857 NA 
HETATM   32  C   UNL     1      -9.069   3.171  64.283  1.00  0.00    -0.116 A  
HETATM   33  N   UNL     1     -10.069   3.642  63.568  1.00  0.00    -0.177 NA 
HETATM   34  C   UNL     1      -8.526   1.800  64.346  1.00  0.00    -0.080 C  
HETATM   35  O   UNL     1      -8.489   4.125  65.081  1.00  0.00    -0.111 OA 
ENDBRANCH  12  30
TORSDOF 4
ENDMDL
MODEL      122
REMARK 921   NORMALIZED FREE ENERGY PREDICTED BY IDOCK:   12.90 KCAL/MOL
REMARK 922        TOTAL FREE ENERGY PREDICTED BY IDOCK:   15.10 KCAL/MOL
REMARK 923 INTER-LIGAND FREE ENERGY PREDICTED BY IDOCK:   15.23 KCAL/MOL
REMARK 924 INTRA-LIGAND FREE ENERGY PREDICTED BY IDOCK:   -0.13 KCAL/MOL
REMARK 927      BINDING AFFINITY PREDICTED BY RF-SCORE:    0.00 PKD
ROOT
HETATM    1  C   UNL     1     -11.006  11.573  64.352  1.00  0.00    -0.324 C  
HETATM    2  N   UNL     1     -10.998  11.839  65.784  1.00  0.00    -0.303 N  
HETATM    3  C   UNL     1     -12.252  12.010  66.334  1.00  0.00     0.500 C  
HETATM    4  O   UNL     1     -13.316  11.998  65.712  1.00  0.00     2.266 OA 
HETATM    5  C   UNL     1     -12.334  12.234  67.783  1.00  0.00     0.662 C  
HETATM    6  O   UNL     1     -13.606  12.344  68.317  1.00  0.00     4.514 OA 
HETATM    7  C   UNL     1     -11.179  12.323  68.456  1.00  0.00    -0.271 C  
HETATM    8  N   UNL     1      -9.932  12.216  67.856  1.00  0.00    -0.194 NA 
HETATM    9  H   UNL     1      -8.057  10.720  64.151  1.00  0.00     0.000 HD 
HETATM   10  H   UNL     1     -13.659  12.489  69.254  1.00  0.00     0.000 HD 
HETATM   11  C   UNL     1      -9.861  11.973  66.573  1.00  0.00    -0.209 C  
HETATM   12  C   UNL     1      -7.973   9.398  65.735  1.00  0.00    -0.110 C  
HETATM   13  C   UNL     1      -8.227  13.078  64.901  1.00  0.00     4.495 C  
HETATM   14  C   UNL     1      -7.314  12.138  66.975  1.00  0.00    -0.072 C  
HETATM   15  C   UNL     1      -8.405  11.910  65.902  1.00  0.00     0.379 C  
HETATM   16  O   UNL     1      -8.232   9.183  66.915  1.00  0.00    -0.114 OA 
HETATM   17  N   UNL     1      -8.134  10.655  65.166  1.00  0.00    -0.114 N  
ENDROOT
BRANCH   7  18
HETATM   18  C   UNL     1     -11.298  12.532  69.964  1.00  0.00     0.119 C  
HETATM   19  H   UNL     1     -12.865  13.889  69.700  1.00  0.00     0.000 HD 
HETATM   20  N   UNL     1     -12.290  13.391  70.380  1.00  0.00    -0.333 N  
HETATM   21  O   UNL     1     -10.580  11.972  70.790  1.00  0.00     2.589 OA 
BRANCH  20  22
HETATM   22  C   UNL     1     -12.502  13.575  71.804  1.00  0.00    -0.062 C  
BRANCH  22  23
HETATM   23  C   UNL     1     -12.074  14.918  72.339  1.00  0.00    -0.394 A  
HETATM   24  C   UNL     1     -12.215  15.187  73.713  1.00  0.00    -0.678 A  
HETATM   25  C   UNL     1     -11.441  15.871  71.525  1.00  0.00    -0.484 A  
HETATM   26  C   UNL     1     -11.792  16.406  74.246  1.00  0.00     0.004 A  
HETATM   27  C   UNL     1     -11.214  17.352  73.409  1.00  0.00     1.787 A  
HETATM   28  C   UNL     1     -11.025  17.091  72.058  1.00  0.00     1.684 A  
HETATM   29  F   UNL     1     -10.823  18.529  73.915  1.00  0.00     0.287 F  
ENDBRANCH  22  23
ENDBRANCH  20  22
ENDBRANCH   7  18
BRANCH  12  30
HETATM   30  C   UNL     1      -7.482   8.392  64.803  1.00  0.00    -0.096 A  
HETATM   31  N   UNL     1      -7.226   8.588  63.521  1.00  0.00    -0.093 NA 
HETATM   32  C   UNL     1      -6.832   6.522  64.020  1.00  0.00    -0.045 A  
HETATM   33  N   UNL     1      -6.804   7.374  63.017  1.00  0.00    -0.057 NA 
HETATM   34  C   UNL     1      -6.505   5.082  64.037  1.00  0.00    -0.033 C  
HETATM   35  O   UNL     1      -7.245   7.096  65.196  1.00  0.00    -0.068 OA 
ENDBRANCH  12  30
TORSDOF 4
ENDMDL
MODEL      123
REMARK 921   NORMALIZED FREE ENERGY PREDICTED BY IDOCK:   12.95 KCAL/MOL
REMARK 922        TOTAL FREE ENERGY PREDICTED BY IDOCK:   15.17 KCAL/MOL
REMARK 923 INTER-LIGAND FREE ENERGY PREDICTED BY IDOCK:   14.91 KCAL/MOL
REMARK 924 INTRA-LIGAND FREE ENERGY PREDICTED BY IDOCK:    0.25 KCAL/MOL
REMARK 927      BINDING AFFINITY PREDICTED BY RF-SCORE:    0.00 PKD
ROOT
HETATM    1  C   UNL     1     -10.472  17.379  69.591  1.00  0.00     0.147 C  
HETATM    2  N   UNL     1      -9.805  16.095  69.419  1.00  0.00    -0.247 N  
HETATM    3  C   UNL     1     -10.627  15.002  69.603  1.00  0.00    -0.238 C  
HETATM    4  O   UNL     1     -11.815  15.045  69.931  1.00  0.00    -0.285 OA 
HETATM    5  C   UNL     1     -10.043  13.671  69.399  1.00  0.00     0.463 C  
HETATM    6  O   UNL     1     -10.904  12.596  69.534  1.00  0.00    -0.443 OA 
HETATM    7  C   UNL     1      -8.736  13.611  69.116  1.00  0.00     0.487 C  
HETATM    8  N   UNL     1      -7.923  14.731  69.008  1.00  0.00    -0.156 NA 
HETATM    9  H   UNL     1      -8.208  19.096  68.410  1.00  0.00     0.000 HD 
HETATM   10  H   UNL     1     -10.526  11.734  69.402  1.00  0.00     0.000 HD 
HETATM   11  C   UNL     1      -8.453  15.919  69.146  1.00  0.00    -0.254 C  
HETATM   12  C   UNL     1      -7.832  18.028  66.684  1.00  0.00    -0.243 C  
HETATM   13  C   UNL     1      -7.424  17.906  70.440  1.00  0.00     2.570 C  
HETATM   14  C   UNL     1      -6.023  16.728  68.809  1.00  0.00    -0.147 C  
HETATM   15  C   UNL     1      -7.477  17.189  69.069  1.00  0.00    -0.203 C  
HETATM   16  O   UNL     1      -7.629  16.931  66.170  1.00  0.00    -0.297 OA 
HETATM   17  N   UNL     1      -7.874  18.197  68.062  1.00  0.00    -0.254 N  
ENDROOT
BRANCH   7  18
HETATM   18  C   UNL     1      -8.164  12.215  68.886  1.00  0.00     0.165 C  
HETATM   19  H   UNL     1     -10.083  11.390  68.808  1.00  0.00     0.000 HD 
HETATM   20  N   UNL     1      -9.084  11.203  68.723  1.00  0.00    -0.167 N  
HETATM   21  O   UNL     1      -6.961  11.969  68.827  1.00  0.00    -0.090 OA 
BRANCH  20  22
HETATM   22  C   UNL     1      -8.605   9.865  68.427  1.00  0.00    -0.116 C  
BRANCH  22  23
HETATM   23  C   UNL     1      -9.552   8.756  68.809  1.00  0.00    -0.160 A  
HETATM   24  C   UNL     1     -10.939   8.977  68.725  1.00  0.00     0.030 A  
HETATM   25  C   UNL     1      -9.092   7.474  69.147  1.00  0.00    -0.138 A  
HETATM   26  C   UNL     1     -11.842   7.959  69.034  1.00  0.00     1.567 A  
HETATM   27  C   UNL     1     -11.360   6.713  69.414  1.00  0.00    -0.271 A  
HETATM   28  C   UNL     1      -9.996   6.459  69.463  1.00  0.00    -0.190 A  
HETATM   29  F   UNL     1     -12.224   5.739  69.729  1.00  0.00     0.515 F  
ENDBRANCH  22  23
ENDBRANCH  20  22
ENDBRANCH   7  18
BRANCH  12  30
HETATM   30  C   UNL     1      -8.053  19.259  65.935  1.00  0.00    -0.104 A  
HETATM   31  N   UNL     1      -7.611  20.457  66.275  1.00  0.00    -0.203 NA 
HETATM   32  C   UNL     1      -8.748  20.608  64.442  1.00  0.00     2.867 A  
HETATM   33  N   UNL     1      -8.063  21.329  65.305  1.00  0.00     1.834 NA 
HETATM   34  C   UNL     1      -9.470  21.035  63.228  1.00  0.00     6.510 C  
HETATM   35  O   UNL     1      -8.782  19.275  64.770  1.00  0.00     1.963 OA 
ENDBRANCH  12  30
TORSDOF 4
ENDMDL
MODEL      124
REMARK 921   NORMALIZED FREE ENERGY PREDICTED BY IDOCK:   41.48 KCAL/MOL
REMARK 922        TOTAL FREE ENERGY PREDICTED BY IDOCK:   50.37 KCAL/MOL
REMARK 923 INTER-LIGAND FREE ENERGY PREDICTED BY IDOCK:   48.33 KCAL/MOL
REMARK 924 INTRA-LIGAND FREE ENERGY PREDICTED BY IDOCK:    2.04 KCAL/MOL
REMARK 927      BINDING AFFINITY PREDICTED BY RF-SCORE:    0.00 PKD
ROOT
HETATM    1  C   UNL     1     -11.418  15.355  72.069  1.00  0.00    -0.434 C  
HETATM    2  N   UNL     1     -11.110  13.969  71.741  1.00  0.00     1.967 N  
HETATM    3  C   UNL     1     -12.221  13.170  71.564  1.00  0.00     0.259 C  
HETATM    4  O   UNL     1     -13.392  13.527  71.706  1.00  0.00    -0.380 OA 
HETATM    5  C   UNL     1     -11.996  11.770  71.183  1.00  0.00     0.290 C  
HETATM    6  O   UNL     1     -13.128  11.006  70.956  1.00  0.00    -0.313 OA 
HETATM    7  C   UNL     1     -10.727  11.352  71.100  1.00  0.00     3.492 C  
HETATM    8  N   UNL     1      -9.634  12.169  71.354  1.00  0.00    10.935 NA 
HETATM    9  H   UNL     1      -8.574  16.445  71.635  1.00  0.00     0.000 HD 
HETATM   10  H   UNL     1     -12.983  10.100  70.710  1.00  0.00     0.000 HD 
HETATM   11  C   UNL     1      -9.833  13.428  71.651  1.00  0.00    10.533 C  
HETATM   12  C   UNL     1      -8.153  15.588  69.805  1.00  0.00     0.003 C  
HETATM   13  C   UNL     1      -8.592  14.779  73.472  1.00  0.00     9.713 C  
HETATM   14  C   UNL     1      -7.259  13.487  71.870  1.00  0.00     5.450 C  
HETATM   15  C   UNL     1      -8.551  14.330  71.991  1.00  0.00     7.796 C  
HETATM   16  O   UNL     1      -8.156  14.573  69.114  1.00  0.00    -0.122 OA 
HETATM   17  N   UNL     1      -8.435  15.551  71.165  1.00  0.00     2.957 N  
ENDROOT
BRANCH   7  18
HETATM   18  C   UNL     1     -10.525   9.899  70.678  1.00  0.00    -0.231 C  
HETATM   19  H   UNL     1     -11.481  10.248  68.852  1.00  0.00     0.000 HD 
HETATM   20  N   UNL     1     -10.988   9.563  69.425  1.00  0.00    -0.208 N  
HETATM   21  O   UNL     1      -9.974   9.053  71.379  1.00  0.00    -0.276 OA 
BRANCH  20  22
HETATM   22  C   UNL     1     -10.761   8.216  68.935  1.00  0.00    -0.064 C  
BRANCH  22  23
HETATM   23  C   UNL     1     -10.575   7.176  70.011  1.00  0.00    -0.248 A  
HETATM   24  C   UNL     1     -11.576   7.007  70.985  1.00  0.00    -0.361 A  
HETATM   25  C   UNL     1      -9.479   6.298  70.009  1.00  0.00    -0.167 A  
HETATM   26  C   UNL     1     -11.452   6.027  71.971  1.00  0.00    -0.343 A  
HETATM   27  C   UNL     1     -10.334   5.204  71.976  1.00  0.00    -0.214 A  
HETATM   28  C   UNL     1      -9.353   5.323  71.000  1.00  0.00    -0.193 A  
HETATM   29  F   UNL     1     -10.204   4.274  72.932  1.00  0.00    -0.179 F  
ENDBRANCH  22  23
ENDBRANCH  20  22
ENDBRANCH   7  18
BRANCH  12  30
HETATM   30  C   UNL     1      -7.865  16.925  69.302  1.00  0.00    -0.020 A  
HETATM   31  N   UNL     1      -8.623  17.614  68.467  1.00  0.00    -0.286 NA 
HETATM   32  C   UNL     1      -6.861  18.769  68.952  1.00  0.00    -0.291 A  
HETATM   33  N   UNL     1      -7.969  18.809  68.243  1.00  0.00    -0.306 NA 
HETATM   34  C   UNL     1      -5.781  19.770  69.062  1.00  0.00    -0.255 C  
HETATM   35  O   UNL     1      -6.724  17.603  69.663  1.00  0.00    -0.173 OA 
ENDBRANCH  12  30
TORSDOF 4
ENDMDL
