MODEL        1
REMARK 921   NORMALIZED FREE ENERGY PREDICTED BY IDOCK:   -6.99 KCAL/MOL
REMARK 922        TOTAL FREE ENERGY PREDICTED BY IDOCK:   -8.82 KCAL/MOL
REMARK 923 INTER-LIGAND FREE ENERGY PREDICTED BY IDOCK:   -8.62 KCAL/MOL
REMARK 924 INTRA-LIGAND FREE ENERGY PREDICTED BY IDOCK:   -0.20 KCAL/MOL
REMARK 927      BINDING AFFINITY PREDICTED BY RF-SCORE:    0.00 PKD
ROOT
HETATM    1  C   UNL     1     -10.663  11.787  63.578  1.00  0.00    -0.501 C  
HETATM    2  C   UNL     1     -11.948  12.560  63.342  1.00  0.00    -0.602 C  
ENDROOT
BRANCH   2   3
HETATM    3  C   UNL     1     -12.028  13.799  64.210  1.00  0.00    -0.443 C  
HETATM    4  O   UNL     1     -12.634  14.817  63.891  1.00  0.00    -0.834 OA 
HETATM    5  N   UNL     1     -11.347  13.670  65.402  1.00  0.00    -0.298 N  
HETATM    6  H   UNL     1     -10.875  12.790  65.612  1.00  0.00     0.000 HD 
BRANCH   5   7
HETATM    7  C   UNL     1     -11.284  14.755  66.363  1.00  0.00    -0.342 C  
BRANCH   7   8
HETATM    8  C   UNL     1     -12.031  14.407  67.652  1.00  0.00    -0.378 C  
BRANCH   8   9
HETATM    9  C   UNL     1     -11.165  13.790  68.757  1.00  0.00    -0.303 C  
HETATM   10  C   UNL     1     -10.423  12.490  68.334  1.00  0.00    -0.250 C  
HETATM   11  C   UNL     1     -11.074  11.294  69.072  1.00  0.00    -0.301 C  
HETATM   12  C   UNL     1     -11.927  11.942  70.126  1.00  0.00    -0.413 A  
HETATM   13  C   UNL     1     -11.962  13.340  69.942  1.00  0.00    -0.400 A  
HETATM   14  C   UNL     1     -12.721  14.035  70.885  1.00  0.00    -0.420 A  
HETATM   15  C   UNL     1     -13.357  13.244  71.840  1.00  0.00    -0.451 A  
HETATM   16  O   UNL     1     -14.104  14.013  72.721  1.00  0.00    -0.636 OA 
HETATM   17  C   UNL     1     -13.327  11.871  71.995  1.00  0.00    -0.425 A  
HETATM   18  C   UNL     1     -12.562  11.177  71.091  1.00  0.00    -0.513 A  
HETATM   19  C   UNL     1     -13.930  15.392  72.305  1.00  0.00    -0.562 C  
HETATM   20  C   UNL     1     -13.010  15.458  71.081  1.00  0.00    -0.545 C  
ENDBRANCH   8   9
ENDBRANCH   7   8
ENDBRANCH   5   7
ENDBRANCH   2   3
TORSDOF 4
ENDMDL
MODEL        2
REMARK 921   NORMALIZED FREE ENERGY PREDICTED BY IDOCK:   -6.68 KCAL/MOL
REMARK 922        TOTAL FREE ENERGY PREDICTED BY IDOCK:   -8.44 KCAL/MOL
REMARK 923 INTER-LIGAND FREE ENERGY PREDICTED BY IDOCK:   -8.16 KCAL/MOL
REMARK 924 INTRA-LIGAND FREE ENERGY PREDICTED BY IDOCK:   -0.28 KCAL/MOL
REMARK 927      BINDING AFFINITY PREDICTED BY RF-SCORE:    0.00 PKD
ROOT
HETATM    1  C   UNL     1     -10.446  20.014  66.014  1.00  0.00    -0.523 C  
HETATM    2  C   UNL     1      -9.832  18.702  66.473  1.00  0.00    -0.388 C  
ENDROOT
BRANCH   2   3
HETATM    3  C   UNL     1     -10.573  17.506  65.912  1.00  0.00    -0.203 C  
HETATM    4  O   UNL     1     -11.147  17.506  64.828  1.00  0.00    -0.959 OA 
HETATM    5  N   UNL     1     -10.541  16.409  66.747  1.00  0.00    -0.277 N  
HETATM    6  H   UNL     1     -10.034  16.471  67.630  1.00  0.00     0.000 HD 
BRANCH   5   7
HETATM    7  C   UNL     1     -11.211  15.171  66.400  1.00  0.00    -0.277 C  
BRANCH   7   8
HETATM    8  C   UNL     1     -11.962  14.584  67.598  1.00  0.00    -0.355 C  
BRANCH   8   9
HETATM    9  C   UNL     1     -11.071  13.968  68.683  1.00  0.00    -0.286 C  
HETATM   10  C   UNL     1     -10.247  12.736  68.208  1.00  0.00    -0.245 C  
HETATM   11  C   UNL     1     -10.832  11.469  68.880  1.00  0.00    -0.263 C  
HETATM   12  C   UNL     1     -11.732  12.013  69.953  1.00  0.00    -0.374 A  
HETATM   13  C   UNL     1     -11.850  13.413  69.835  1.00  0.00    -0.385 A  
HETATM   14  C   UNL     1     -12.659  14.015  70.801  1.00  0.00    -0.431 A  
HETATM   15  C   UNL     1     -13.255  13.142  71.708  1.00  0.00    -0.403 A  
HETATM   16  O   UNL     1     -14.057  13.821  72.616  1.00  0.00    -0.715 OA 
HETATM   17  C   UNL     1     -13.144  11.767  71.798  1.00  0.00    -0.480 A  
HETATM   18  C   UNL     1     -12.330  11.165  70.872  1.00  0.00    -0.500 A  
HETATM   19  C   UNL     1     -13.962  15.227  72.268  1.00  0.00    -0.546 C  
HETATM   20  C   UNL     1     -13.036  15.407  71.060  1.00  0.00    -0.556 C  
ENDBRANCH   8   9
ENDBRANCH   7   8
ENDBRANCH   5   7
ENDBRANCH   2   3
TORSDOF 4
ENDMDL
MODEL        3
REMARK 921   NORMALIZED FREE ENERGY PREDICTED BY IDOCK:   -6.49 KCAL/MOL
REMARK 922        TOTAL FREE ENERGY PREDICTED BY IDOCK:   -8.22 KCAL/MOL
REMARK 923 INTER-LIGAND FREE ENERGY PREDICTED BY IDOCK:   -7.71 KCAL/MOL
REMARK 924 INTRA-LIGAND FREE ENERGY PREDICTED BY IDOCK:   -0.50 KCAL/MOL
REMARK 927      BINDING AFFINITY PREDICTED BY RF-SCORE:    0.00 PKD
ROOT
HETATM    1  C   UNL     1     -14.128  13.830  72.214  1.00  0.00    -0.627 C  
HETATM    2  C   UNL     1     -13.721  15.292  72.280  1.00  0.00    -0.614 C  
ENDROOT
BRANCH   2   3
HETATM    3  C   UNL     1     -12.656  15.628  71.255  1.00  0.00    -0.463 C  
HETATM    4  O   UNL     1     -11.625  16.237  71.518  1.00  0.00    -0.457 OA 
HETATM    5  N   UNL     1     -12.965  15.179  69.989  1.00  0.00    -0.632 N  
HETATM    6  H   UNL     1     -13.833  14.666  69.840  1.00  0.00     0.000 HD 
BRANCH   5   7
HETATM    7  C   UNL     1     -12.083  15.421  68.862  1.00  0.00    -0.198 C  
BRANCH   7   8
HETATM    8  C   UNL     1     -11.110  14.259  68.652  1.00  0.00    -0.273 C  
BRANCH   8   9
HETATM    9  C   UNL     1     -11.769  12.895  68.413  1.00  0.00    -0.382 C  
HETATM   10  C   UNL     1     -11.321  11.787  69.410  1.00  0.00    -0.337 C  
HETATM   11  C   UNL     1     -10.439  10.770  68.644  1.00  0.00    -0.213 C  
HETATM   12  C   UNL     1     -10.665  11.113  67.199  1.00  0.00    -0.305 A  
HETATM   13  C   UNL     1     -11.418  12.300  67.085  1.00  0.00    -0.419 A  
HETATM   14  C   UNL     1     -11.693  12.694  65.774  1.00  0.00    -0.466 A  
HETATM   15  C   UNL     1     -11.153  11.880  64.780  1.00  0.00    -0.311 A  
HETATM   16  O   UNL     1     -11.457  12.357  63.513  1.00  0.00    -0.441 OA 
HETATM   17  C   UNL     1     -10.401  10.728  64.909  1.00  0.00    -0.369 A  
HETATM   18  C   UNL     1     -10.146  10.313  66.193  1.00  0.00    -0.307 A  
HETATM   19  C   UNL     1     -12.250  13.557  63.709  1.00  0.00    -0.388 C  
HETATM   20  C   UNL     1     -12.437  13.822  65.207  1.00  0.00    -0.512 C  
ENDBRANCH   8   9
ENDBRANCH   7   8
ENDBRANCH   5   7
ENDBRANCH   2   3
TORSDOF 4
ENDMDL
MODEL        4
REMARK 921   NORMALIZED FREE ENERGY PREDICTED BY IDOCK:   -6.40 KCAL/MOL
REMARK 922        TOTAL FREE ENERGY PREDICTED BY IDOCK:   -8.10 KCAL/MOL
REMARK 923 INTER-LIGAND FREE ENERGY PREDICTED BY IDOCK:   -7.98 KCAL/MOL
REMARK 924 INTRA-LIGAND FREE ENERGY PREDICTED BY IDOCK:   -0.12 KCAL/MOL
REMARK 927      BINDING AFFINITY PREDICTED BY RF-SCORE:    0.00 PKD
ROOT
HETATM    1  C   UNL     1      -9.403  20.384  67.272  1.00  0.00    -0.547 C  
HETATM    2  C   UNL     1     -10.414  19.867  66.263  1.00  0.00    -0.590 C  
ENDROOT
BRANCH   2   3
HETATM    3  C   UNL     1     -10.509  18.355  66.286  1.00  0.00    -0.393 C  
HETATM    4  O   UNL     1     -10.641  17.665  65.280  1.00  0.00    -0.663 OA 
HETATM    5  N   UNL     1     -10.435  17.827  67.557  1.00  0.00    -0.369 N  
HETATM    6  H   UNL     1     -10.311  18.455  68.350  1.00  0.00     0.000 HD 
BRANCH   5   7
HETATM    7  C   UNL     1     -10.530  16.399  67.793  1.00  0.00    -0.300 C  
BRANCH   7   8
HETATM    8  C   UNL     1     -10.809  16.090  69.265  1.00  0.00    -0.300 C  
BRANCH   8   9
HETATM    9  C   UNL     1     -12.150  15.397  69.539  1.00  0.00    -0.332 C  
HETATM   10  C   UNL     1     -12.679  15.585  70.991  1.00  0.00    -0.526 C  
HETATM   11  C   UNL     1     -12.564  14.230  71.731  1.00  0.00    -0.418 C  
HETATM   12  C   UNL     1     -12.297  13.240  70.632  1.00  0.00    -0.416 A  
HETATM   13  C   UNL     1     -12.075  13.907  69.410  1.00  0.00    -0.384 A  
HETATM   14  C   UNL     1     -11.831  13.068  68.322  1.00  0.00    -0.381 A  
HETATM   15  C   UNL     1     -11.807  11.705  68.612  1.00  0.00    -0.308 A  
HETATM   16  O   UNL     1     -11.538  10.949  67.480  1.00  0.00    -0.526 OA 
HETATM   17  C   UNL     1     -12.010  11.068  69.821  1.00  0.00    -0.428 A  
HETATM   18  C   UNL     1     -12.277  11.879  70.896  1.00  0.00    -0.351 A  
HETATM   19  C   UNL     1     -11.384  11.893  66.388  1.00  0.00    -0.339 C  
HETATM   20  C   UNL     1     -11.574  13.324  66.902  1.00  0.00    -0.408 C  
ENDBRANCH   8   9
ENDBRANCH   7   8
ENDBRANCH   5   7
ENDBRANCH   2   3
TORSDOF 4
ENDMDL
MODEL        5
REMARK 921   NORMALIZED FREE ENERGY PREDICTED BY IDOCK:   -6.39 KCAL/MOL
REMARK 922        TOTAL FREE ENERGY PREDICTED BY IDOCK:   -8.09 KCAL/MOL
REMARK 923 INTER-LIGAND FREE ENERGY PREDICTED BY IDOCK:   -7.45 KCAL/MOL
REMARK 924 INTRA-LIGAND FREE ENERGY PREDICTED BY IDOCK:   -0.64 KCAL/MOL
REMARK 927      BINDING AFFINITY PREDICTED BY RF-SCORE:    0.00 PKD
ROOT
HETATM    1  C   UNL     1      -8.439  16.036  66.490  1.00  0.00    -0.348 C  
HETATM    2  C   UNL     1      -9.484  17.050  66.057  1.00  0.00    -0.195 C  
ENDROOT
BRANCH   2   3
HETATM    3  C   UNL     1     -10.618  16.399  65.290  1.00  0.00    -0.299 C  
HETATM    4  O   UNL     1     -11.260  16.965  64.412  1.00  0.00    -1.159 OA 
HETATM    5  N   UNL     1     -10.859  15.100  65.682  1.00  0.00    -0.343 N  
HETATM    6  H   UNL     1     -10.279  14.684  66.410  1.00  0.00     0.000 HD 
BRANCH   5   7
HETATM    7  C   UNL     1     -11.920  14.311  65.084  1.00  0.00    -0.395 C  
BRANCH   7   8
HETATM    8  C   UNL     1     -12.270  13.096  65.946  1.00  0.00    -0.497 C  
BRANCH   8   9
HETATM    9  C   UNL     1     -11.172  12.655  66.922  1.00  0.00    -0.348 C  
HETATM   10  C   UNL     1     -10.696  11.187  66.724  1.00  0.00    -0.326 C  
HETATM   11  C   UNL     1     -11.200  10.346  67.923  1.00  0.00    -0.332 C  
HETATM   12  C   UNL     1     -11.650  11.374  68.922  1.00  0.00    -0.388 A  
HETATM   13  C   UNL     1     -11.621  12.663  68.350  1.00  0.00    -0.370 A  
HETATM   14  C   UNL     1     -12.011  13.692  69.208  1.00  0.00    -0.384 A  
HETATM   15  C   UNL     1     -12.403  13.290  70.483  1.00  0.00    -0.316 A  
HETATM   16  O   UNL     1     -12.793  14.372  71.260  1.00  0.00    -0.306 OA 
HETATM   17  C   UNL     1     -12.442  12.019  71.023  1.00  0.00    -0.376 A  
HETATM   18  C   UNL     1     -12.036  10.999  70.199  1.00  0.00    -0.443 A  
HETATM   19  C   UNL     1     -12.635  15.549  70.426  1.00  0.00    -0.378 C  
HETATM   20  C   UNL     1     -12.111  15.145  69.043  1.00  0.00    -0.242 C  
ENDBRANCH   8   9
ENDBRANCH   7   8
ENDBRANCH   5   7
ENDBRANCH   2   3
TORSDOF 4
ENDMDL
MODEL        6
REMARK 921   NORMALIZED FREE ENERGY PREDICTED BY IDOCK:   -6.39 KCAL/MOL
REMARK 922        TOTAL FREE ENERGY PREDICTED BY IDOCK:   -8.08 KCAL/MOL
REMARK 923 INTER-LIGAND FREE ENERGY PREDICTED BY IDOCK:   -7.41 KCAL/MOL
REMARK 924 INTRA-LIGAND FREE ENERGY PREDICTED BY IDOCK:   -0.67 KCAL/MOL
REMARK 927      BINDING AFFINITY PREDICTED BY RF-SCORE:    0.00 PKD
ROOT
HETATM    1  C   UNL     1      -8.907  15.379  66.526  1.00  0.00    -0.347 C  
HETATM    2  C   UNL     1      -9.851  16.502  66.134  1.00  0.00    -0.355 C  
ENDROOT
BRANCH   2   3
HETATM    3  C   UNL     1     -10.885  16.043  65.126  1.00  0.00    -0.395 C  
HETATM    4  O   UNL     1     -11.372  16.772  64.268  1.00  0.00    -1.170 OA 
HETATM    5  N   UNL     1     -11.228  14.715  65.270  1.00  0.00    -0.342 N  
HETATM    6  H   UNL     1     -10.775  14.160  65.995  1.00  0.00     0.000 HD 
BRANCH   5   7
HETATM    7  C   UNL     1     -12.219  14.090  64.414  1.00  0.00    -0.426 C  
BRANCH   7   8
HETATM    8  C   UNL     1     -11.829  12.653  64.060  1.00  0.00    -0.507 C  
BRANCH   8   9
HETATM    9  C   UNL     1     -10.441  12.219  64.547  1.00  0.00    -0.339 C  
HETATM   10  C   UNL     1      -9.597  11.467  63.478  1.00  0.00    -0.315 C  
HETATM   11  C   UNL     1      -9.497   9.979  63.895  1.00  0.00    -0.280 C  
HETATM   12  C   UNL     1      -9.980   9.969  65.318  1.00  0.00    -0.368 A  
HETATM   13  C   UNL     1     -10.498  11.232  65.672  1.00  0.00    -0.317 A  
HETATM   14  C   UNL     1     -10.961  11.327  66.985  1.00  0.00    -0.352 A  
HETATM   15  C   UNL     1     -10.876  10.155  67.734  1.00  0.00    -0.292 A  
HETATM   16  O   UNL     1     -11.377  10.335  69.017  1.00  0.00    -0.231 OA 
HETATM   17  C   UNL     1     -10.381   8.919  67.366  1.00  0.00    -0.337 A  
HETATM   18  C   UNL     1      -9.898   8.818  66.086  1.00  0.00    -0.297 A  
HETATM   19  C   UNL     1     -11.807  11.719  69.095  1.00  0.00    -0.326 C  
HETATM   20  C   UNL     1     -11.547  12.425  67.760  1.00  0.00    -0.413 C  
ENDBRANCH   8   9
ENDBRANCH   7   8
ENDBRANCH   5   7
ENDBRANCH   2   3
TORSDOF 4
ENDMDL
MODEL        7
REMARK 921   NORMALIZED FREE ENERGY PREDICTED BY IDOCK:   -6.31 KCAL/MOL
REMARK 922        TOTAL FREE ENERGY PREDICTED BY IDOCK:   -7.99 KCAL/MOL
REMARK 923 INTER-LIGAND FREE ENERGY PREDICTED BY IDOCK:   -7.57 KCAL/MOL
REMARK 924 INTRA-LIGAND FREE ENERGY PREDICTED BY IDOCK:   -0.42 KCAL/MOL
REMARK 927      BINDING AFFINITY PREDICTED BY RF-SCORE:    0.00 PKD
ROOT
HETATM    1  C   UNL     1     -12.309  12.466  63.339  1.00  0.00    -0.603 C  
HETATM    2  C   UNL     1     -12.093  13.632  64.289  1.00  0.00    -0.480 C  
ENDROOT
BRANCH   2   3
HETATM    3  C   UNL     1     -11.185  13.258  65.443  1.00  0.00    -0.287 C  
HETATM    4  O   UNL     1     -10.190  13.899  65.764  1.00  0.00    -0.298 OA 
HETATM    5  N   UNL     1     -11.590  12.116  66.101  1.00  0.00    -0.375 N  
HETATM    6  H   UNL     1     -12.436  11.637  65.792  1.00  0.00     0.000 HD 
BRANCH   5   7
HETATM    7  C   UNL     1     -10.841  11.579  67.222  1.00  0.00    -0.256 C  
BRANCH   7   8
HETATM    8  C   UNL     1     -11.767  10.958  68.270  1.00  0.00    -0.259 C  
BRANCH   8   9
HETATM    9  C   UNL     1     -11.346  11.189  69.726  1.00  0.00    -0.354 C  
HETATM   10  C   UNL     1     -11.685  10.009  70.682  1.00  0.00    -0.421 C  
HETATM   11  C   UNL     1     -12.832  10.457  71.621  1.00  0.00    -0.579 C  
HETATM   12  C   UNL     1     -12.900  11.945  71.424  1.00  0.00    -0.411 A  
HETATM   13  C   UNL     1     -12.057  12.341  70.365  1.00  0.00    -0.385 A  
HETATM   14  C   UNL     1     -12.042  13.714  70.112  1.00  0.00    -0.431 A  
HETATM   15  C   UNL     1     -12.886  14.478  70.916  1.00  0.00    -0.360 A  
HETATM   16  O   UNL     1     -12.823  15.824  70.583  1.00  0.00    -0.438 OA 
HETATM   17  C   UNL     1     -13.721  14.071  71.939  1.00  0.00    -0.532 A  
HETATM   18  C   UNL     1     -13.726  12.726  72.216  1.00  0.00    -0.495 A  
HETATM   19  C   UNL     1     -11.869  15.929  69.494  1.00  0.00    -0.301 C  
HETATM   20  C   UNL     1     -11.317  14.542  69.145  1.00  0.00    -0.305 C  
ENDBRANCH   8   9
ENDBRANCH   7   8
ENDBRANCH   5   7
ENDBRANCH   2   3
TORSDOF 4
ENDMDL
MODEL        8
REMARK 921   NORMALIZED FREE ENERGY PREDICTED BY IDOCK:   -6.31 KCAL/MOL
REMARK 922        TOTAL FREE ENERGY PREDICTED BY IDOCK:   -7.99 KCAL/MOL
REMARK 923 INTER-LIGAND FREE ENERGY PREDICTED BY IDOCK:   -7.54 KCAL/MOL
REMARK 924 INTRA-LIGAND FREE ENERGY PREDICTED BY IDOCK:   -0.45 KCAL/MOL
REMARK 927      BINDING AFFINITY PREDICTED BY RF-SCORE:    0.00 PKD
ROOT
HETATM    1  C   UNL     1     -12.167  12.300  63.534  1.00  0.00    -0.669 C  
HETATM    2  C   UNL     1     -10.682  12.549  63.732  1.00  0.00    -0.483 C  
ENDROOT
BRANCH   2   3
HETATM    3  C   UNL     1     -10.416  13.481  64.897  1.00  0.00    -0.402 C  
HETATM    4  O   UNL     1     -10.831  14.634  64.955  1.00  0.00    -0.388 OA 
HETATM    5  N   UNL     1      -9.655  12.903  65.890  1.00  0.00    -0.435 N  
HETATM    6  H   UNL     1      -9.353  11.935  65.785  1.00  0.00     0.000 HD 
BRANCH   5   7
HETATM    7  C   UNL     1      -9.273  13.640  67.080  1.00  0.00    -0.250 C  
BRANCH   7   8
HETATM    8  C   UNL     1     -10.019  13.135  68.317  1.00  0.00    -0.236 C  
BRANCH   8   9
HETATM    9  C   UNL     1     -11.491  13.557  68.403  1.00  0.00    -0.346 C  
HETATM   10  C   UNL     1     -11.721  15.092  68.295  1.00  0.00    -0.336 C  
HETATM   11  C   UNL     1     -12.160  15.618  69.684  1.00  0.00    -0.329 C  
HETATM   12  C   UNL     1     -12.490  14.371  70.454  1.00  0.00    -0.420 A  
HETATM   13  C   UNL     1     -12.118  13.225  69.722  1.00  0.00    -0.355 A  
HETATM   14  C   UNL     1     -12.399  12.012  70.351  1.00  0.00    -0.317 A  
HETATM   15  C   UNL     1     -12.969  12.115  71.619  1.00  0.00    -0.321 A  
HETATM   16  O   UNL     1     -13.194  10.864  72.178  1.00  0.00    -0.474 OA 
HETATM   17  C   UNL     1     -13.311  13.248  72.331  1.00  0.00    -0.616 A  
HETATM   18  C   UNL     1     -13.065  14.448  71.713  1.00  0.00    -0.428 A  
HETATM   19  C   UNL     1     -12.742   9.893  71.198  1.00  0.00    -0.366 C  
HETATM   20  C   UNL     1     -12.203  10.614  69.957  1.00  0.00    -0.373 C  
ENDBRANCH   8   9
ENDBRANCH   7   8
ENDBRANCH   5   7
ENDBRANCH   2   3
TORSDOF 4
ENDMDL
MODEL        9
REMARK 921   NORMALIZED FREE ENERGY PREDICTED BY IDOCK:   -6.21 KCAL/MOL
REMARK 922        TOTAL FREE ENERGY PREDICTED BY IDOCK:   -7.87 KCAL/MOL
REMARK 923 INTER-LIGAND FREE ENERGY PREDICTED BY IDOCK:   -7.38 KCAL/MOL
REMARK 924 INTRA-LIGAND FREE ENERGY PREDICTED BY IDOCK:   -0.49 KCAL/MOL
REMARK 927      BINDING AFFINITY PREDICTED BY RF-SCORE:    0.00 PKD
ROOT
HETATM    1  C   UNL     1     -13.802  13.948  71.987  1.00  0.00    -0.588 C  
HETATM    2  C   UNL     1     -13.615  15.264  72.721  1.00  0.00    -0.611 C  
ENDROOT
BRANCH   2   3
HETATM    3  C   UNL     1     -12.396  16.017  72.228  1.00  0.00    -0.490 C  
HETATM    4  O   UNL     1     -11.770  16.822  72.909  1.00  0.00    -0.408 OA 
HETATM    5  N   UNL     1     -12.059  15.706  70.928  1.00  0.00    -0.374 N  
HETATM    6  H   UNL     1     -12.613  15.017  70.421  1.00  0.00     0.000 HD 
BRANCH   5   7
HETATM    7  C   UNL     1     -10.934  16.338  70.263  1.00  0.00    -0.308 C  
BRANCH   7   8
HETATM    8  C   UNL     1     -11.216  16.567  68.777  1.00  0.00    -0.277 C  
BRANCH   8   9
HETATM    9  C   UNL     1     -10.247  15.868  67.817  1.00  0.00    -0.260 C  
HETATM   10  C   UNL     1      -9.867  16.713  66.567  1.00  0.00    -0.295 C  
HETATM   11  C   UNL     1     -10.538  16.075  65.325  1.00  0.00    -0.424 C  
HETATM   12  C   UNL     1     -10.997  14.730  65.814  1.00  0.00    -0.334 A  
HETATM   13  C   UNL     1     -10.820  14.625  67.209  1.00  0.00    -0.305 A  
HETATM   14  C   UNL     1     -11.206  13.401  67.757  1.00  0.00    -0.306 A  
HETATM   15  C   UNL     1     -11.740  12.484  66.853  1.00  0.00    -0.377 A  
HETATM   16  O   UNL     1     -12.116  11.307  67.486  1.00  0.00    -0.530 OA 
HETATM   17  C   UNL     1     -11.923  12.610  65.490  1.00  0.00    -0.509 A  
HETATM   18  C   UNL     1     -11.523  13.799  64.932  1.00  0.00    -0.351 A  
HETATM   19  C   UNL     1     -11.796  11.481  68.891  1.00  0.00    -0.341 C  
HETATM   20  C   UNL     1     -11.182  12.866  69.121  1.00  0.00    -0.293 C  
ENDBRANCH   8   9
ENDBRANCH   7   8
ENDBRANCH   5   7
ENDBRANCH   2   3
TORSDOF 4
ENDMDL
MODEL       10
REMARK 921   NORMALIZED FREE ENERGY PREDICTED BY IDOCK:   -6.20 KCAL/MOL
REMARK 922        TOTAL FREE ENERGY PREDICTED BY IDOCK:   -7.85 KCAL/MOL
REMARK 923 INTER-LIGAND FREE ENERGY PREDICTED BY IDOCK:   -7.31 KCAL/MOL
REMARK 924 INTRA-LIGAND FREE ENERGY PREDICTED BY IDOCK:   -0.53 KCAL/MOL
REMARK 927      BINDING AFFINITY PREDICTED BY RF-SCORE:    0.00 PKD
ROOT
HETATM    1  C   UNL     1      -9.706  10.384  64.016  1.00  0.00    -0.373 C  
HETATM    2  C   UNL     1      -9.971  11.568  63.102  1.00  0.00    -0.404 C  
ENDROOT
BRANCH   2   3
HETATM    3  C   UNL     1     -11.275  12.261  63.442  1.00  0.00    -0.420 C  
HETATM    4  O   UNL     1     -12.381  11.770  63.239  1.00  0.00    -0.518 OA 
HETATM    5  N   UNL     1     -11.095  13.507  64.002  1.00  0.00    -0.568 N  
HETATM    6  H   UNL     1     -10.147  13.851  64.157  1.00  0.00     0.000 HD 
BRANCH   5   7
HETATM    7  C   UNL     1     -12.221  14.341  64.378  1.00  0.00    -0.447 C  
BRANCH   7   8
HETATM    8  C   UNL     1     -12.648  14.090  65.826  1.00  0.00    -0.512 C  
BRANCH   8   9
HETATM    9  C   UNL     1     -11.513  13.692  66.777  1.00  0.00    -0.370 C  
HETATM   10  C   UNL     1     -11.782  12.386  67.579  1.00  0.00    -0.425 C  
HETATM   11  C   UNL     1     -12.022  12.766  69.062  1.00  0.00    -0.288 C  
HETATM   12  C   UNL     1     -11.567  14.195  69.146  1.00  0.00    -0.349 A  
HETATM   13  C   UNL     1     -11.278  14.698  67.861  1.00  0.00    -0.318 A  
HETATM   14  C   UNL     1     -10.833  16.021  67.837  1.00  0.00    -0.333 A  
HETATM   15  C   UNL     1     -10.777  16.654  69.076  1.00  0.00    -0.343 A  
HETATM   16  O   UNL     1     -10.346  17.968  68.957  1.00  0.00    -0.350 OA 
HETATM   17  C   UNL     1     -11.081  16.152  70.327  1.00  0.00    -0.375 A  
HETATM   18  C   UNL     1     -11.495  14.844  70.369  1.00  0.00    -0.312 A  
HETATM   19  C   UNL     1     -10.105  18.190  67.543  1.00  0.00    -0.349 C  
HETATM   20  C   UNL     1     -10.415  16.913  66.752  1.00  0.00    -0.260 C  
ENDBRANCH   8   9
ENDBRANCH   7   8
ENDBRANCH   5   7
ENDBRANCH   2   3
TORSDOF 4
ENDMDL
MODEL       11
REMARK 921   NORMALIZED FREE ENERGY PREDICTED BY IDOCK:   -6.13 KCAL/MOL
REMARK 922        TOTAL FREE ENERGY PREDICTED BY IDOCK:   -7.77 KCAL/MOL
REMARK 923 INTER-LIGAND FREE ENERGY PREDICTED BY IDOCK:   -7.40 KCAL/MOL
REMARK 924 INTRA-LIGAND FREE ENERGY PREDICTED BY IDOCK:   -0.36 KCAL/MOL
REMARK 927      BINDING AFFINITY PREDICTED BY RF-SCORE:    0.00 PKD
ROOT
HETATM    1  C   UNL     1     -11.324   6.318  69.769  1.00  0.00    -0.506 C  
HETATM    2  C   UNL     1     -11.511   6.232  71.273  1.00  0.00    -0.352 C  
ENDROOT
BRANCH   2   3
HETATM    3  C   UNL     1     -11.761   7.594  71.889  1.00  0.00    -0.289 C  
HETATM    4  O   UNL     1     -11.383   7.915  73.011  1.00  0.00    -0.408 OA 
HETATM    5  N   UNL     1     -12.463   8.442  71.059  1.00  0.00    -0.488 N  
HETATM    6  H   UNL     1     -12.736   8.117  70.132  1.00  0.00     0.000 HD 
BRANCH   5   7
HETATM    7  C   UNL     1     -12.822   9.785  71.474  1.00  0.00    -0.405 C  
BRANCH   7   8
HETATM    8  C   UNL     1     -11.813  10.818  70.967  1.00  0.00    -0.349 C  
BRANCH   8   9
HETATM    9  C   UNL     1     -12.358  11.796  69.919  1.00  0.00    -0.200 C  
HETATM   10  C   UNL     1     -11.739  11.622  68.502  1.00  0.00    -0.378 C  
HETATM   11  C   UNL     1     -10.823  12.837  68.217  1.00  0.00    -0.270 C  
HETATM   12  C   UNL     1     -11.181  13.820  69.296  1.00  0.00    -0.291 A  
HETATM   13  C   UNL     1     -12.047  13.226  70.236  1.00  0.00    -0.405 A  
HETATM   14  C   UNL     1     -12.449  14.069  71.274  1.00  0.00    -0.448 A  
HETATM   15  C   UNL     1     -11.908  15.352  71.245  1.00  0.00    -0.380 A  
HETATM   16  O   UNL     1     -12.343  16.112  72.322  1.00  0.00    -0.473 OA 
HETATM   17  C   UNL     1     -11.045  15.914  70.323  1.00  0.00    -0.381 A  
HETATM   18  C   UNL     1     -10.662  15.105  69.282  1.00  0.00    -0.250 A  
HETATM   19  C   UNL     1     -13.229  15.257  73.091  1.00  0.00    -0.501 C  
HETATM   20  C   UNL     1     -13.333  13.879  72.427  1.00  0.00    -0.629 C  
ENDBRANCH   8   9
ENDBRANCH   7   8
ENDBRANCH   5   7
ENDBRANCH   2   3
TORSDOF 4
ENDMDL
MODEL       12
REMARK 921   NORMALIZED FREE ENERGY PREDICTED BY IDOCK:   -6.10 KCAL/MOL
REMARK 922        TOTAL FREE ENERGY PREDICTED BY IDOCK:   -7.73 KCAL/MOL
REMARK 923 INTER-LIGAND FREE ENERGY PREDICTED BY IDOCK:   -7.37 KCAL/MOL
REMARK 924 INTRA-LIGAND FREE ENERGY PREDICTED BY IDOCK:   -0.36 KCAL/MOL
REMARK 927      BINDING AFFINITY PREDICTED BY RF-SCORE:    0.00 PKD
ROOT
HETATM    1  C   UNL     1      -7.663  18.893  68.570  1.00  0.00    -0.365 C  
HETATM    2  C   UNL     1      -9.007  19.589  68.441  1.00  0.00    -0.397 C  
ENDROOT
BRANCH   2   3
HETATM    3  C   UNL     1     -10.031  18.712  67.749  1.00  0.00    -0.346 C  
HETATM    4  O   UNL     1     -11.002  19.149  67.140  1.00  0.00    -0.453 OA 
HETATM    5  N   UNL     1      -9.762  17.366  67.873  1.00  0.00    -0.264 N  
HETATM    6  H   UNL     1      -8.930  17.069  68.381  1.00  0.00     0.000 HD 
BRANCH   5   7
HETATM    7  C   UNL     1     -10.637  16.361  67.299  1.00  0.00    -0.293 C  
BRANCH   7   8
HETATM    8  C   UNL     1     -11.504  15.693  68.369  1.00  0.00    -0.374 C  
BRANCH   8   9
HETATM    9  C   UNL     1     -10.795  14.614  69.197  1.00  0.00    -0.269 C  
HETATM   10  C   UNL     1     -10.462  13.318  68.403  1.00  0.00    -0.261 C  
HETATM   11  C   UNL     1     -11.387  12.184  68.910  1.00  0.00    -0.335 C  
HETATM   12  C   UNL     1     -11.979  12.740  70.174  1.00  0.00    -0.371 A  
HETATM   13  C   UNL     1     -11.633  14.099  70.326  1.00  0.00    -0.267 A  
HETATM   14  C   UNL     1     -12.127  14.702  71.483  1.00  0.00    -0.413 A  
HETATM   15  C   UNL     1     -12.916  13.886  72.292  1.00  0.00    -0.358 A  
HETATM   16  O   UNL     1     -13.381  14.571  73.406  1.00  0.00    -0.562 OA 
HETATM   17  C   UNL     1     -13.260  12.559  72.119  1.00  0.00    -0.508 A  
HETATM   18  C   UNL     1     -12.759  11.945  70.999  1.00  0.00    -0.354 A  
HETATM   19  C   UNL     1     -12.849  15.918  73.305  1.00  0.00    -0.556 C  
HETATM   20  C   UNL     1     -12.001  16.054  72.035  1.00  0.00    -0.622 C  
ENDBRANCH   8   9
ENDBRANCH   7   8
ENDBRANCH   5   7
ENDBRANCH   2   3
TORSDOF 4
ENDMDL
MODEL       13
REMARK 921   NORMALIZED FREE ENERGY PREDICTED BY IDOCK:   -6.10 KCAL/MOL
REMARK 922        TOTAL FREE ENERGY PREDICTED BY IDOCK:   -7.73 KCAL/MOL
REMARK 923 INTER-LIGAND FREE ENERGY PREDICTED BY IDOCK:   -6.99 KCAL/MOL
REMARK 924 INTRA-LIGAND FREE ENERGY PREDICTED BY IDOCK:   -0.74 KCAL/MOL
REMARK 927      BINDING AFFINITY PREDICTED BY RF-SCORE:    0.00 PKD
ROOT
HETATM    1  C   UNL     1     -12.344  14.186  65.940  1.00  0.00    -0.486 C  
HETATM    2  C   UNL     1     -10.998  14.835  65.668  1.00  0.00    -0.345 C  
ENDROOT
BRANCH   2   3
HETATM    3  C   UNL     1     -10.332  15.308  66.944  1.00  0.00    -0.278 C  
HETATM    4  O   UNL     1      -9.121  15.266  67.136  1.00  0.00    -0.192 OA 
HETATM    5  N   UNL     1     -11.227  15.792  67.874  1.00  0.00    -0.336 N  
HETATM    6  H   UNL     1     -12.220  15.812  67.645  1.00  0.00     0.000 HD 
BRANCH   5   7
HETATM    7  C   UNL     1     -10.789  16.272  69.171  1.00  0.00    -0.314 C  
BRANCH   7   8
HETATM    8  C   UNL     1     -11.081  15.253  70.275  1.00  0.00    -0.316 C  
BRANCH   8   9
HETATM    9  C   UNL     1     -12.452  14.572  70.182  1.00  0.00    -0.375 C  
HETATM   10  C   UNL     1     -13.458  15.011  71.286  1.00  0.00    -0.520 C  
HETATM   11  C   UNL     1     -13.656  13.826  72.264  1.00  0.00    -0.656 C  
HETATM   12  C   UNL     1     -13.046  12.657  71.543  1.00  0.00    -0.373 A  
HETATM   13  C   UNL     1     -12.383  13.089  70.375  1.00  0.00    -0.351 A  
HETATM   14  C   UNL     1     -11.793  12.069  69.627  1.00  0.00    -0.401 A  
HETATM   15  C   UNL     1     -11.916  10.788  70.162  1.00  0.00    -0.349 A  
HETATM   16  O   UNL     1     -11.285   9.842  69.366  1.00  0.00    -0.221 OA 
HETATM   17  C   UNL     1     -12.556  10.384  71.319  1.00  0.00    -0.525 A  
HETATM   18  C   UNL     1     -13.163  11.373  72.051  1.00  0.00    -0.432 A  
HETATM   19  C   UNL     1     -10.723  10.567  68.241  1.00  0.00    -0.229 C  
HETATM   20  C   UNL     1     -11.040  12.061  68.370  1.00  0.00    -0.290 C  
ENDBRANCH   8   9
ENDBRANCH   7   8
ENDBRANCH   5   7
ENDBRANCH   2   3
TORSDOF 4
ENDMDL
MODEL       14
REMARK 921   NORMALIZED FREE ENERGY PREDICTED BY IDOCK:   -6.09 KCAL/MOL
REMARK 922        TOTAL FREE ENERGY PREDICTED BY IDOCK:   -7.72 KCAL/MOL
REMARK 923 INTER-LIGAND FREE ENERGY PREDICTED BY IDOCK:   -7.26 KCAL/MOL
REMARK 924 INTRA-LIGAND FREE ENERGY PREDICTED BY IDOCK:   -0.46 KCAL/MOL
REMARK 927      BINDING AFFINITY PREDICTED BY RF-SCORE:    0.00 PKD
ROOT
HETATM    1  C   UNL     1     -10.468  11.856  63.591  1.00  0.00    -0.493 C  
HETATM    2  C   UNL     1     -11.877  12.361  63.330  1.00  0.00    -0.571 C  
ENDROOT
BRANCH   2   3
HETATM    3  C   UNL     1     -12.275  13.450  64.306  1.00  0.00    -0.392 C  
HETATM    4  O   UNL     1     -12.704  14.547  63.966  1.00  0.00    -0.759 OA 
HETATM    5  N   UNL     1     -12.106  13.082  65.624  1.00  0.00    -0.431 N  
HETATM    6  H   UNL     1     -11.758  12.148  65.840  1.00  0.00     0.000 HD 
BRANCH   5   7
HETATM    7  C   UNL     1     -12.410  13.993  66.712  1.00  0.00    -0.332 C  
BRANCH   7   8
HETATM    8  C   UNL     1     -11.166  14.761  67.166  1.00  0.00    -0.346 C  
BRANCH   8   9
HETATM    9  C   UNL     1     -10.339  14.068  68.256  1.00  0.00    -0.247 C  
HETATM   10  C   UNL     1      -9.421  12.927  67.731  1.00  0.00    -0.202 C  
HETATM   11  C   UNL     1      -9.998  11.574  68.216  1.00  0.00    -0.205 C  
HETATM   12  C   UNL     1     -11.009  11.966  69.256  1.00  0.00    -0.208 A  
HETATM   13  C   UNL     1     -11.184  13.365  69.273  1.00  0.00    -0.275 A  
HETATM   14  C   UNL     1     -12.098  13.829  70.220  1.00  0.00    -0.425 A  
HETATM   15  C   UNL     1     -12.725  12.842  70.978  1.00  0.00    -0.243 A  
HETATM   16  O   UNL     1     -13.630  13.389  71.877  1.00  0.00    -0.413 OA 
HETATM   17  C   UNL     1     -12.555  11.471  70.936  1.00  0.00    -0.438 A  
HETATM   18  C   UNL     1     -11.639  11.002  70.028  1.00  0.00    -0.427 A  
HETATM   19  C   UNL     1     -13.575  14.827  71.684  1.00  0.00    -0.405 C  
HETATM   20  C   UNL     1     -12.561  15.170  70.587  1.00  0.00    -0.450 C  
ENDBRANCH   8   9
ENDBRANCH   7   8
ENDBRANCH   5   7
ENDBRANCH   2   3
TORSDOF 4
ENDMDL
MODEL       15
REMARK 921   NORMALIZED FREE ENERGY PREDICTED BY IDOCK:   -6.07 KCAL/MOL
REMARK 922        TOTAL FREE ENERGY PREDICTED BY IDOCK:   -7.69 KCAL/MOL
REMARK 923 INTER-LIGAND FREE ENERGY PREDICTED BY IDOCK:   -7.33 KCAL/MOL
REMARK 924 INTRA-LIGAND FREE ENERGY PREDICTED BY IDOCK:   -0.36 KCAL/MOL
REMARK 927      BINDING AFFINITY PREDICTED BY RF-SCORE:    0.00 PKD
ROOT
HETATM    1  C   UNL     1     -13.906  14.501  71.482  1.00  0.00    -0.477 C  
HETATM    2  C   UNL     1     -13.595  13.354  72.428  1.00  0.00    -0.708 C  
ENDROOT
BRANCH   2   3
HETATM    3  C   UNL     1     -13.013  12.162  71.695  1.00  0.00    -0.321 C  
HETATM    4  O   UNL     1     -13.281  10.997  71.969  1.00  0.00    -0.499 OA 
HETATM    5  N   UNL     1     -12.145  12.519  70.685  1.00  0.00    -0.498 N  
HETATM    6  H   UNL     1     -11.976  13.508  70.500  1.00  0.00     0.000 HD 
BRANCH   5   7
HETATM    7  C   UNL     1     -11.466  11.522  69.880  1.00  0.00    -0.260 C  
BRANCH   7   8
HETATM    8  C   UNL     1     -11.940  11.556  68.425  1.00  0.00    -0.268 C  
BRANCH   8   9
HETATM    9  C   UNL     1     -11.267  12.619  67.549  1.00  0.00    -0.335 C  
HETATM   10  C   UNL     1     -12.109  13.913  67.356  1.00  0.00    -0.380 C  
HETATM   11  C   UNL     1     -12.612  13.954  65.892  1.00  0.00    -0.498 C  
HETATM   12  C   UNL     1     -11.800  12.895  65.202  1.00  0.00    -0.415 A  
HETATM   13  C   UNL     1     -11.045  12.161  66.141  1.00  0.00    -0.354 A  
HETATM   14  C   UNL     1     -10.244  11.159  65.592  1.00  0.00    -0.310 A  
HETATM   15  C   UNL     1     -10.337  11.011  64.209  1.00  0.00    -0.364 A  
HETATM   16  O   UNL     1      -9.525   9.981  63.753  1.00  0.00    -0.280 OA 
HETATM   17  C   UNL     1     -11.096  11.728  63.304  1.00  0.00    -0.370 A  
HETATM   18  C   UNL     1     -11.869  12.734  63.827  1.00  0.00    -0.572 A  
HETATM   19  C   UNL     1      -8.863   9.437  64.924  1.00  0.00    -0.202 C  
HETATM   20  C   UNL     1      -9.310  10.195  66.179  1.00  0.00    -0.217 C  
ENDBRANCH   8   9
ENDBRANCH   7   8
ENDBRANCH   5   7
ENDBRANCH   2   3
TORSDOF 4
ENDMDL
MODEL       16
REMARK 921   NORMALIZED FREE ENERGY PREDICTED BY IDOCK:   -6.07 KCAL/MOL
REMARK 922        TOTAL FREE ENERGY PREDICTED BY IDOCK:   -7.69 KCAL/MOL
REMARK 923 INTER-LIGAND FREE ENERGY PREDICTED BY IDOCK:   -7.36 KCAL/MOL
REMARK 924 INTRA-LIGAND FREE ENERGY PREDICTED BY IDOCK:   -0.33 KCAL/MOL
REMARK 927      BINDING AFFINITY PREDICTED BY RF-SCORE:    0.00 PKD
ROOT
HETATM    1  C   UNL     1     -11.137  11.511  63.612  1.00  0.00    -0.469 C  
HETATM    2  C   UNL     1     -12.201  12.571  63.386  1.00  0.00    -0.613 C  
ENDROOT
BRANCH   2   3
HETATM    3  C   UNL     1     -12.060  13.727  64.355  1.00  0.00    -0.436 C  
HETATM    4  O   UNL     1     -12.972  14.136  65.066  1.00  0.00    -0.721 OA 
HETATM    5  N   UNL     1     -10.797  14.280  64.356  1.00  0.00    -0.612 N  
HETATM    6  H   UNL     1     -10.080  13.883  63.750  1.00  0.00     0.000 HD 
BRANCH   5   7
HETATM    7  C   UNL     1     -10.465  15.413  65.199  1.00  0.00    -0.411 C  
BRANCH   7   8
HETATM    8  C   UNL     1      -9.276  15.105  66.112  1.00  0.00    -0.318 C  
BRANCH   8   9
HETATM    9  C   UNL     1      -9.199  15.954  67.386  1.00  0.00    -0.207 C  
HETATM   10  C   UNL     1     -10.436  15.815  68.320  1.00  0.00    -0.259 C  
HETATM   11  C   UNL     1     -11.241  17.136  68.263  1.00  0.00     0.028 C  
HETATM   12  C   UNL     1     -10.307  18.099  67.586  1.00  0.00    -0.411 A  
HETATM   13  C   UNL     1      -9.165  17.425  67.108  1.00  0.00    -0.241 A  
HETATM   14  C   UNL     1      -8.227  18.241  66.473  1.00  0.00    -0.290 A  
HETATM   15  C   UNL     1      -8.576  19.586  66.375  1.00  0.00    -0.360 A  
HETATM   16  O   UNL     1      -7.599  20.318  65.713  1.00  0.00    -0.264 OA 
HETATM   17  C   UNL     1      -9.710  20.229  66.835  1.00  0.00    -0.584 A  
HETATM   18  C   UNL     1     -10.628  19.443  67.485  1.00  0.00    -0.591 A  
HETATM   19  C   UNL     1      -6.550  19.376  65.368  1.00  0.00    -0.278 C  
HETATM   20  C   UNL     1      -6.924  17.972  65.858  1.00  0.00    -0.319 C  
ENDBRANCH   8   9
ENDBRANCH   7   8
ENDBRANCH   5   7
ENDBRANCH   2   3
TORSDOF 4
ENDMDL
MODEL       17
REMARK 921   NORMALIZED FREE ENERGY PREDICTED BY IDOCK:   -6.03 KCAL/MOL
REMARK 922        TOTAL FREE ENERGY PREDICTED BY IDOCK:   -7.64 KCAL/MOL
REMARK 923 INTER-LIGAND FREE ENERGY PREDICTED BY IDOCK:   -7.30 KCAL/MOL
REMARK 924 INTRA-LIGAND FREE ENERGY PREDICTED BY IDOCK:   -0.34 KCAL/MOL
REMARK 927      BINDING AFFINITY PREDICTED BY RF-SCORE:    0.00 PKD
ROOT
HETATM    1  C   UNL     1     -10.164   6.863  73.798  1.00  0.00    -0.396 C  
HETATM    2  C   UNL     1     -11.042   6.126  72.802  1.00  0.00    -0.294 C  
ENDROOT
BRANCH   2   3
HETATM    3  C   UNL     1     -11.856   7.081  71.953  1.00  0.00    -0.305 C  
HETATM    4  O   UNL     1     -12.236   6.827  70.815  1.00  0.00    -0.390 OA 
HETATM    5  N   UNL     1     -12.129   8.272  72.591  1.00  0.00    -0.553 N  
HETATM    6  H   UNL     1     -11.796   8.414  73.544  1.00  0.00     0.000 HD 
BRANCH   5   7
HETATM    7  C   UNL     1     -12.879   9.328  71.937  1.00  0.00    -0.404 C  
BRANCH   7   8
HETATM    8  C   UNL     1     -11.956  10.434  71.419  1.00  0.00    -0.379 C  
BRANCH   8   9
HETATM    9  C   UNL     1     -12.510  11.240  70.238  1.00  0.00    -0.330 C  
HETATM   10  C   UNL     1     -11.895  10.857  68.861  1.00  0.00    -0.340 C  
HETATM   11  C   UNL     1     -10.987  12.020  68.392  1.00  0.00    -0.276 C  
HETATM   12  C   UNL     1     -11.347  13.153  69.311  1.00  0.00    -0.312 A  
HETATM   13  C   UNL     1     -12.207  12.703  70.335  1.00  0.00    -0.368 A  
HETATM   14  C   UNL     1     -12.610  13.690  71.235  1.00  0.00    -0.435 A  
HETATM   15  C   UNL     1     -12.076  14.957  71.010  1.00  0.00    -0.321 A  
HETATM   16  O   UNL     1     -12.512  15.869  71.962  1.00  0.00    -0.420 OA 
HETATM   17  C   UNL     1     -11.219  15.378  70.011  1.00  0.00    -0.314 A  
HETATM   18  C   UNL     1     -10.835  14.424  69.102  1.00  0.00    -0.275 A  
HETATM   19  C   UNL     1     -13.390  15.135  72.855  1.00  0.00    -0.502 C  
HETATM   20  C   UNL     1     -13.489  13.673  72.407  1.00  0.00    -0.685 C  
ENDBRANCH   8   9
ENDBRANCH   7   8
ENDBRANCH   5   7
ENDBRANCH   2   3
TORSDOF 4
ENDMDL
MODEL       18
REMARK 921   NORMALIZED FREE ENERGY PREDICTED BY IDOCK:   -6.02 KCAL/MOL
REMARK 922        TOTAL FREE ENERGY PREDICTED BY IDOCK:   -7.63 KCAL/MOL
REMARK 923 INTER-LIGAND FREE ENERGY PREDICTED BY IDOCK:   -7.32 KCAL/MOL
REMARK 924 INTRA-LIGAND FREE ENERGY PREDICTED BY IDOCK:   -0.31 KCAL/MOL
REMARK 927      BINDING AFFINITY PREDICTED BY RF-SCORE:    0.00 PKD
ROOT
HETATM    1  C   UNL     1     -12.921  15.723  73.491  1.00  0.00    -0.693 C  
HETATM    2  C   UNL     1     -11.764  15.388  72.566  1.00  0.00    -0.564 C  
ENDROOT
BRANCH   2   3
HETATM    3  C   UNL     1     -12.228  15.156  71.142  1.00  0.00    -0.331 C  
HETATM    4  O   UNL     1     -13.115  15.808  70.600  1.00  0.00    -0.497 OA 
HETATM    5  N   UNL     1     -11.553  14.132  70.513  1.00  0.00    -0.494 N  
HETATM    6  H   UNL     1     -10.816  13.639  71.017  1.00  0.00     0.000 HD 
BRANCH   5   7
HETATM    7  C   UNL     1     -11.867  13.739  69.152  1.00  0.00    -0.354 C  
BRANCH   7   8
HETATM    8  C   UNL     1     -10.850  12.732  68.610  1.00  0.00    -0.284 C  
BRANCH   8   9
HETATM    9  C   UNL     1      -9.844  13.304  67.604  1.00  0.00    -0.230 C  
HETATM   10  C   UNL     1      -8.971  14.463  68.165  1.00  0.00    -0.185 C  
HETATM   11  C   UNL     1      -9.417  15.782  67.486  1.00  0.00    -0.218 C  
HETATM   12  C   UNL     1     -10.276  15.325  66.341  1.00  0.00    -0.287 A  
HETATM   13  C   UNL     1     -10.500  13.935  66.416  1.00  0.00    -0.284 A  
HETATM   14  C   UNL     1     -11.279  13.412  65.383  1.00  0.00    -0.303 A  
HETATM   15  C   UNL     1     -11.748  14.344  64.458  1.00  0.00    -0.419 A  
HETATM   16  O   UNL     1     -12.529  13.742  63.481  1.00  0.00    -0.780 OA 
HETATM   17  C   UNL     1     -11.534  15.708  64.410  1.00  0.00    -0.266 A  
HETATM   18  C   UNL     1     -10.746  16.232  65.405  1.00  0.00    -0.342 A  
HETATM   19  C   UNL     1     -12.559  12.326  63.800  1.00  0.00    -0.470 C  
HETATM   20  C   UNL     1     -11.734  12.056  65.064  1.00  0.00    -0.316 C  
ENDBRANCH   8   9
ENDBRANCH   7   8
ENDBRANCH   5   7
ENDBRANCH   2   3
TORSDOF 4
ENDMDL
MODEL       19
REMARK 921   NORMALIZED FREE ENERGY PREDICTED BY IDOCK:   -6.01 KCAL/MOL
REMARK 922        TOTAL FREE ENERGY PREDICTED BY IDOCK:   -7.61 KCAL/MOL
REMARK 923 INTER-LIGAND FREE ENERGY PREDICTED BY IDOCK:   -7.27 KCAL/MOL
REMARK 924 INTRA-LIGAND FREE ENERGY PREDICTED BY IDOCK:   -0.35 KCAL/MOL
REMARK 927      BINDING AFFINITY PREDICTED BY RF-SCORE:    0.00 PKD
ROOT
HETATM    1  C   UNL     1     -12.217   8.643  72.123  1.00  0.00    -0.453 C  
HETATM    2  C   UNL     1     -13.388   9.608  72.076  1.00  0.00    -0.547 C  
ENDROOT
BRANCH   2   3
HETATM    3  C   UNL     1     -12.972  10.975  71.573  1.00  0.00    -0.448 C  
HETATM    4  O   UNL     1     -13.323  12.029  72.094  1.00  0.00    -0.510 OA 
HETATM    5  N   UNL     1     -12.157  10.918  70.462  1.00  0.00    -0.340 N  
HETATM    6  H   UNL     1     -11.892  10.008  70.086  1.00  0.00     0.000 HD 
BRANCH   5   7
HETATM    7  C   UNL     1     -11.669  12.121  69.816  1.00  0.00    -0.310 C  
BRANCH   7   8
HETATM    8  C   UNL     1     -10.715  11.793  68.665  1.00  0.00    -0.252 C  
BRANCH   8   9
HETATM    9  C   UNL     1     -11.265  10.803  67.630  1.00  0.00    -0.370 C  
HETATM   10  C   UNL     1     -10.586   9.403  67.665  1.00  0.00    -0.333 C  
HETATM   11  C   UNL     1      -9.716   9.252  66.393  1.00  0.00    -0.325 C  
HETATM   12  C   UNL     1     -10.158  10.388  65.515  1.00  0.00    -0.352 A  
HETATM   13  C   UNL     1     -11.031  11.244  66.218  1.00  0.00    -0.265 A  
HETATM   14  C   UNL     1     -11.510  12.327  65.479  1.00  0.00    -0.408 A  
HETATM   15  C   UNL     1     -11.027  12.420  64.175  1.00  0.00    -0.367 A  
HETATM   16  O   UNL     1     -11.536  13.534  63.523  1.00  0.00    -0.261 OA 
HETATM   17  C   UNL     1     -10.156  11.581  63.506  1.00  0.00    -0.446 A  
HETATM   18  C   UNL     1      -9.698  10.497  64.212  1.00  0.00    -0.391 A  
HETATM   19  C   UNL     1     -12.410  14.197  64.473  1.00  0.00    -0.392 C  
HETATM   20  C   UNL     1     -12.427  13.424  65.797  1.00  0.00    -0.496 C  
ENDBRANCH   8   9
ENDBRANCH   7   8
ENDBRANCH   5   7
ENDBRANCH   2   3
TORSDOF 4
ENDMDL
MODEL       20
REMARK 921   NORMALIZED FREE ENERGY PREDICTED BY IDOCK:   -5.97 KCAL/MOL
REMARK 922        TOTAL FREE ENERGY PREDICTED BY IDOCK:   -7.57 KCAL/MOL
REMARK 923 INTER-LIGAND FREE ENERGY PREDICTED BY IDOCK:   -7.03 KCAL/MOL
REMARK 924 INTRA-LIGAND FREE ENERGY PREDICTED BY IDOCK:   -0.55 KCAL/MOL
REMARK 927      BINDING AFFINITY PREDICTED BY RF-SCORE:    0.00 PKD
ROOT
HETATM    1  C   UNL     1     -13.761   9.145  72.193  1.00  0.00    -0.531 C  
HETATM    2  C   UNL     1     -12.992  10.425  71.914  1.00  0.00    -0.555 C  
ENDROOT
BRANCH   2   3
HETATM    3  C   UNL     1     -11.902  10.213  70.882  1.00  0.00    -0.374 C  
HETATM    4  O   UNL     1     -10.774   9.814  71.155  1.00  0.00    -0.324 OA 
HETATM    5  N   UNL     1     -12.305  10.517  69.600  1.00  0.00    -0.550 N  
HETATM    6  H   UNL     1     -13.261  10.831  69.440  1.00  0.00     0.000 HD 
BRANCH   5   7
HETATM    7  C   UNL     1     -11.399  10.402  68.472  1.00  0.00    -0.220 C  
BRANCH   7   8
HETATM    8  C   UNL     1     -10.752  11.746  68.132  1.00  0.00    -0.247 C  
BRANCH   8   9
HETATM    9  C   UNL     1     -11.717  12.815  67.605  1.00  0.00    -0.422 C  
HETATM   10  C   UNL     1     -11.528  13.157  66.098  1.00  0.00    -0.366 C  
HETATM   11  C   UNL     1     -10.920  14.577  65.993  1.00  0.00    -0.324 C  
HETATM   12  C   UNL     1     -11.079  15.142  67.376  1.00  0.00    -0.325 A  
HETATM   13  C   UNL     1     -11.533  14.146  68.266  1.00  0.00    -0.335 A  
HETATM   14  C   UNL     1     -11.725  14.579  69.579  1.00  0.00    -0.361 A  
HETATM   15  C   UNL     1     -11.406  15.914  69.820  1.00  0.00    -0.347 A  
HETATM   16  O   UNL     1     -11.606  16.252  71.151  1.00  0.00    -0.427 OA 
HETATM   17  C   UNL     1     -10.944  16.873  68.939  1.00  0.00    -0.207 A  
HETATM   18  C   UNL     1     -10.776  16.468  67.638  1.00  0.00    -0.311 A  
HETATM   19  C   UNL     1     -12.092  15.051  71.807  1.00  0.00    -0.361 C  
HETATM   20  C   UNL     1     -12.191  13.905  70.794  1.00  0.00    -0.441 C  
ENDBRANCH   8   9
ENDBRANCH   7   8
ENDBRANCH   5   7
ENDBRANCH   2   3
TORSDOF 4
ENDMDL
MODEL       21
REMARK 921   NORMALIZED FREE ENERGY PREDICTED BY IDOCK:   -5.95 KCAL/MOL
REMARK 922        TOTAL FREE ENERGY PREDICTED BY IDOCK:   -7.55 KCAL/MOL
REMARK 923 INTER-LIGAND FREE ENERGY PREDICTED BY IDOCK:   -7.06 KCAL/MOL
REMARK 924 INTRA-LIGAND FREE ENERGY PREDICTED BY IDOCK:   -0.49 KCAL/MOL
REMARK 927      BINDING AFFINITY PREDICTED BY RF-SCORE:    0.00 PKD
ROOT
HETATM    1  C   UNL     1     -14.376   8.491  72.125  1.00  0.00    -0.529 C  
HETATM    2  C   UNL     1     -13.881   7.124  71.687  1.00  0.00    -0.418 C  
ENDROOT
BRANCH   2   3
HETATM    3  C   UNL     1     -12.468   7.183  71.143  1.00  0.00    -0.359 C  
HETATM    4  O   UNL     1     -11.696   6.230  71.147  1.00  0.00    -0.315 OA 
HETATM    5  N   UNL     1     -12.133   8.423  70.642  1.00  0.00    -0.493 N  
HETATM    6  H   UNL     1     -12.827   9.170  70.657  1.00  0.00     0.000 HD 
BRANCH   5   7
HETATM    7  C   UNL     1     -10.816   8.691  70.096  1.00  0.00    -0.233 C  
BRANCH   7   8
HETATM    8  C   UNL     1     -10.590  10.190  69.885  1.00  0.00    -0.331 C  
BRANCH   8   9
HETATM    9  C   UNL     1     -11.613  10.879  68.975  1.00  0.00    -0.387 C  
HETATM   10  C   UNL     1     -11.143  11.049  67.502  1.00  0.00    -0.366 C  
HETATM   11  C   UNL     1     -10.870  12.552  67.247  1.00  0.00    -0.277 C  
HETATM   12  C   UNL     1     -11.490  13.237  68.433  1.00  0.00    -0.349 A  
HETATM   13  C   UNL     1     -11.908  12.288  69.388  1.00  0.00    -0.370 A  
HETATM   14  C   UNL     1     -12.511  12.829  70.524  1.00  0.00    -0.280 A  
HETATM   15  C   UNL     1     -12.576  14.220  70.561  1.00  0.00    -0.353 A  
HETATM   16  O   UNL     1     -13.169  14.671  71.732  1.00  0.00    -0.315 OA 
HETATM   17  C   UNL     1     -12.143  15.138  69.622  1.00  0.00    -0.336 A  
HETATM   18  C   UNL     1     -11.572  14.619  68.487  1.00  0.00    -0.346 A  
HETATM   19  C   UNL     1     -13.513  13.486  72.495  1.00  0.00    -0.556 C  
HETATM   20  C   UNL     1     -13.095  12.228  71.726  1.00  0.00    -0.449 C  
ENDBRANCH   8   9
ENDBRANCH   7   8
ENDBRANCH   5   7
ENDBRANCH   2   3
TORSDOF 4
ENDMDL
MODEL       22
REMARK 921   NORMALIZED FREE ENERGY PREDICTED BY IDOCK:   -5.93 KCAL/MOL
REMARK 922        TOTAL FREE ENERGY PREDICTED BY IDOCK:   -7.52 KCAL/MOL
REMARK 923 INTER-LIGAND FREE ENERGY PREDICTED BY IDOCK:   -7.19 KCAL/MOL
REMARK 924 INTRA-LIGAND FREE ENERGY PREDICTED BY IDOCK:   -0.33 KCAL/MOL
REMARK 927      BINDING AFFINITY PREDICTED BY RF-SCORE:    0.00 PKD
ROOT
HETATM    1  C   UNL     1     -13.644   7.262  71.509  1.00  0.00    -0.442 C  
HETATM    2  C   UNL     1     -14.133   8.661  71.841  1.00  0.00    -0.512 C  
ENDROOT
BRANCH   2   3
HETATM    3  C   UNL     1     -13.109   9.717  71.477  1.00  0.00    -0.400 C  
HETATM    4  O   UNL     1     -13.097  10.847  71.952  1.00  0.00    -0.482 OA 
HETATM    5  N   UNL     1     -12.186   9.279  70.551  1.00  0.00    -0.483 N  
HETATM    6  H   UNL     1     -12.244   8.321  70.205  1.00  0.00     0.000 HD 
BRANCH   5   7
HETATM    7  C   UNL     1     -11.136  10.148  70.055  1.00  0.00    -0.308 C  
BRANCH   7   8
HETATM    8  C   UNL     1     -11.445  10.655  68.645  1.00  0.00    -0.332 C  
BRANCH   8   9
HETATM    9  C   UNL     1     -10.803  12.000  68.284  1.00  0.00    -0.263 C  
HETATM   10  C   UNL     1     -11.309  13.197  69.140  1.00  0.00    -0.335 C  
HETATM   11  C   UNL     1     -12.182  14.106  68.239  1.00  0.00    -0.196 C  
HETATM   12  C   UNL     1     -11.895  13.616  66.847  1.00  0.00    -0.451 A  
HETATM   13  C   UNL     1     -11.116  12.442  66.888  1.00  0.00    -0.335 A  
HETATM   14  C   UNL     1     -10.785  11.916  65.638  1.00  0.00    -0.325 A  
HETATM   15  C   UNL     1     -11.302  12.607  64.544  1.00  0.00    -0.333 A  
HETATM   16  O   UNL     1     -10.942  12.005  63.346  1.00  0.00    -0.409 OA 
HETATM   17  C   UNL     1     -12.081  13.748  64.522  1.00  0.00    -0.463 A  
HETATM   18  C   UNL     1     -12.392  14.292  65.744  1.00  0.00    -0.420 A  
HETATM   19  C   UNL     1     -10.134  10.851  63.698  1.00  0.00    -0.355 C  
HETATM   20  C   UNL     1      -9.998  10.752  65.222  1.00  0.00    -0.342 C  
ENDBRANCH   8   9
ENDBRANCH   7   8
ENDBRANCH   5   7
ENDBRANCH   2   3
TORSDOF 4
ENDMDL
MODEL       23
REMARK 921   NORMALIZED FREE ENERGY PREDICTED BY IDOCK:   -5.92 KCAL/MOL
REMARK 922        TOTAL FREE ENERGY PREDICTED BY IDOCK:   -7.51 KCAL/MOL
REMARK 923 INTER-LIGAND FREE ENERGY PREDICTED BY IDOCK:   -7.23 KCAL/MOL
REMARK 924 INTRA-LIGAND FREE ENERGY PREDICTED BY IDOCK:   -0.28 KCAL/MOL
REMARK 927      BINDING AFFINITY PREDICTED BY RF-SCORE:    0.00 PKD
ROOT
HETATM    1  C   UNL     1     -13.548   7.468  71.339  1.00  0.00    -0.397 C  
HETATM    2  C   UNL     1     -14.143   8.766  71.855  1.00  0.00    -0.488 C  
ENDROOT
BRANCH   2   3
HETATM    3  C   UNL     1     -13.285   9.962  71.496  1.00  0.00    -0.408 C  
HETATM    4  O   UNL     1     -13.352  11.045  72.067  1.00  0.00    -0.455 OA 
HETATM    5  N   UNL     1     -12.417   9.711  70.454  1.00  0.00    -0.484 N  
HETATM    6  H   UNL     1     -12.402   8.783  70.032  1.00  0.00     0.000 HD 
BRANCH   5   7
HETATM    7  C   UNL     1     -11.525  10.736  69.946  1.00  0.00    -0.321 C  
BRANCH   7   8
HETATM    8  C   UNL     1     -11.515  10.763  68.415  1.00  0.00    -0.358 C  
BRANCH   8   9
HETATM    9  C   UNL     1     -10.865  12.004  67.793  1.00  0.00    -0.256 C  
HETATM   10  C   UNL     1     -11.601  13.337  68.113  1.00  0.00    -0.373 C  
HETATM   11  C   UNL     1     -12.284  13.840  66.817  1.00  0.00    -0.440 C  
HETATM   12  C   UNL     1     -11.670  12.998  65.735  1.00  0.00    -0.427 A  
HETATM   13  C   UNL     1     -10.872  11.979  66.296  1.00  0.00    -0.316 A  
HETATM   14  C   UNL     1     -10.245  11.148  65.365  1.00  0.00    -0.327 A  
HETATM   15  C   UNL     1     -10.530  11.426  64.030  1.00  0.00    -0.378 A  
HETATM   16  O   UNL     1      -9.884  10.541  63.177  1.00  0.00    -0.319 OA 
HETATM   17  C   UNL     1     -11.330  12.419  63.497  1.00  0.00    -0.553 A  
HETATM   18  C   UNL     1     -11.932  13.260  64.400  1.00  0.00    -0.459 A  
HETATM   19  C   UNL     1      -9.129   9.638  64.026  1.00  0.00    -0.200 C  
HETATM   20  C   UNL     1      -9.338  10.006  65.499  1.00  0.00    -0.271 C  
ENDBRANCH   8   9
ENDBRANCH   7   8
ENDBRANCH   5   7
ENDBRANCH   2   3
TORSDOF 4
ENDMDL
MODEL       24
REMARK 921   NORMALIZED FREE ENERGY PREDICTED BY IDOCK:   -5.90 KCAL/MOL
REMARK 922        TOTAL FREE ENERGY PREDICTED BY IDOCK:   -7.49 KCAL/MOL
REMARK 923 INTER-LIGAND FREE ENERGY PREDICTED BY IDOCK:   -7.05 KCAL/MOL
REMARK 924 INTRA-LIGAND FREE ENERGY PREDICTED BY IDOCK:   -0.43 KCAL/MOL
REMARK 927      BINDING AFFINITY PREDICTED BY RF-SCORE:    0.00 PKD
ROOT
HETATM    1  C   UNL     1     -13.346   9.589  72.110  1.00  0.00    -0.545 C  
HETATM    2  C   UNL     1     -12.753  10.823  71.452  1.00  0.00    -0.544 C  
ENDROOT
BRANCH   2   3
HETATM    3  C   UNL     1     -11.711  10.463  70.413  1.00  0.00    -0.331 C  
HETATM    4  O   UNL     1     -10.610   9.995  70.685  1.00  0.00    -0.295 OA 
HETATM    5  N   UNL     1     -12.124  10.716  69.123  1.00  0.00    -0.536 N  
HETATM    6  H   UNL     1     -13.058  11.093  68.964  1.00  0.00     0.000 HD 
BRANCH   5   7
HETATM    7  C   UNL     1     -11.261  10.459  67.985  1.00  0.00    -0.272 C  
BRANCH   7   8
HETATM    8  C   UNL     1     -10.600  11.744  67.480  1.00  0.00    -0.247 C  
BRANCH   8   9
HETATM    9  C   UNL     1     -11.551  12.740  66.804  1.00  0.00    -0.431 C  
HETATM   10  C   UNL     1     -11.552  12.664  65.250  1.00  0.00    -0.389 C  
HETATM   11  C   UNL     1     -10.865  13.939  64.699  1.00  0.00    -0.420 C  
HETATM   12  C   UNL     1     -10.787  14.850  65.891  1.00  0.00    -0.336 A  
HETATM   13  C   UNL     1     -11.182  14.168  67.061  1.00  0.00    -0.328 A  
HETATM   14  C   UNL     1     -11.156  14.939  68.224  1.00  0.00    -0.290 A  
HETATM   15  C   UNL     1     -10.711  16.249  68.062  1.00  0.00    -0.331 A  
HETATM   16  O   UNL     1     -10.698  16.934  69.269  1.00  0.00    -0.335 OA 
HETATM   17  C   UNL     1     -10.310  16.898  66.910  1.00  0.00    -0.304 A  
HETATM   18  C   UNL     1     -10.356  16.160  65.753  1.00  0.00    -0.398 A  
HETATM   19  C   UNL     1     -11.172  15.999  70.273  1.00  0.00    -0.389 C  
HETATM   20  C   UNL     1     -11.494  14.649  69.620  1.00  0.00    -0.329 C  
ENDBRANCH   8   9
ENDBRANCH   7   8
ENDBRANCH   5   7
ENDBRANCH   2   3
TORSDOF 4
ENDMDL
MODEL       25
REMARK 921   NORMALIZED FREE ENERGY PREDICTED BY IDOCK:   -5.90 KCAL/MOL
REMARK 922        TOTAL FREE ENERGY PREDICTED BY IDOCK:   -7.48 KCAL/MOL
REMARK 923 INTER-LIGAND FREE ENERGY PREDICTED BY IDOCK:   -7.18 KCAL/MOL
REMARK 924 INTRA-LIGAND FREE ENERGY PREDICTED BY IDOCK:   -0.31 KCAL/MOL
REMARK 927      BINDING AFFINITY PREDICTED BY RF-SCORE:    0.00 PKD
ROOT
HETATM    1  C   UNL     1     -13.893  13.732  72.186  1.00  0.00    -0.649 C  
HETATM    2  C   UNL     1     -13.889  15.225  71.911  1.00  0.00    -0.624 C  
ENDROOT
BRANCH   2   3
HETATM    3  C   UNL     1     -12.670  15.649  71.117  1.00  0.00    -0.465 C  
HETATM    4  O   UNL     1     -11.822  16.430  71.536  1.00  0.00    -0.427 OA 
HETATM    5  N   UNL     1     -12.609  15.067  69.869  1.00  0.00    -0.576 N  
HETATM    6  H   UNL     1     -13.340  14.415  69.588  1.00  0.00     0.000 HD 
BRANCH   5   7
HETATM    7  C   UNL     1     -11.529  15.362  68.946  1.00  0.00    -0.342 C  
BRANCH   7   8
HETATM    8  C   UNL     1     -10.978  14.088  68.302  1.00  0.00    -0.272 C  
BRANCH   8   9
HETATM    9  C   UNL     1     -10.154  14.310  67.028  1.00  0.00    -0.260 C  
HETATM   10  C   UNL     1     -10.591  15.548  66.194  1.00  0.00    -0.321 C  
HETATM   11  C   UNL     1     -11.267  15.046  64.894  1.00  0.00    -0.423 C  
HETATM   12  C   UNL     1     -10.916  13.586  64.845  1.00  0.00    -0.359 A  
HETATM   13  C   UNL     1     -10.286  13.190  66.043  1.00  0.00    -0.287 A  
HETATM   14  C   UNL     1      -9.908  11.847  66.088  1.00  0.00    -0.254 A  
HETATM   15  C   UNL     1     -10.241  11.095  64.963  1.00  0.00    -0.296 A  
HETATM   16  O   UNL     1      -9.847   9.771  65.103  1.00  0.00    -0.315 OA 
HETATM   17  C   UNL     1     -10.875  11.495  63.803  1.00  0.00    -0.486 A  
HETATM   18  C   UNL     1     -11.229  12.820  63.733  1.00  0.00    -0.496 A  
HETATM   19  C   UNL     1      -9.214   9.670  66.405  1.00  0.00    -0.163 C  
HETATM   20  C   UNL     1      -9.228  11.035  67.101  1.00  0.00    -0.162 C  
ENDBRANCH   8   9
ENDBRANCH   7   8
ENDBRANCH   5   7
ENDBRANCH   2   3
TORSDOF 4
ENDMDL
MODEL       26
REMARK 921   NORMALIZED FREE ENERGY PREDICTED BY IDOCK:   -5.87 KCAL/MOL
REMARK 922        TOTAL FREE ENERGY PREDICTED BY IDOCK:   -7.45 KCAL/MOL
REMARK 923 INTER-LIGAND FREE ENERGY PREDICTED BY IDOCK:   -6.96 KCAL/MOL
REMARK 924 INTRA-LIGAND FREE ENERGY PREDICTED BY IDOCK:   -0.50 KCAL/MOL
REMARK 927      BINDING AFFINITY PREDICTED BY RF-SCORE:    0.00 PKD
ROOT
HETATM    1  C   UNL     1     -11.584  13.307  63.836  1.00  0.00    -0.451 C  
HETATM    2  C   UNL     1     -11.306  11.814  63.814  1.00  0.00    -0.524 C  
ENDROOT
BRANCH   2   3
HETATM    3  C   UNL     1     -10.430  11.387  64.975  1.00  0.00    -0.303 C  
HETATM    4  O   UNL     1     -10.235  10.218  65.288  1.00  0.00    -0.307 OA 
HETATM    5  N   UNL     1      -9.873  12.452  65.652  1.00  0.00    -0.321 N  
HETATM    6  H   UNL     1     -10.065  13.400  65.331  1.00  0.00     0.000 HD 
BRANCH   5   7
HETATM    7  C   UNL     1      -9.020  12.253  66.809  1.00  0.00    -0.209 C  
BRANCH   7   8
HETATM    8  C   UNL     1      -9.515  13.055  68.015  1.00  0.00    -0.217 C  
BRANCH   8   9
HETATM    9  C   UNL     1     -10.933  13.624  67.878  1.00  0.00    -0.277 C  
HETATM   10  C   UNL     1     -10.981  15.109  67.414  1.00  0.00    -0.314 C  
HETATM   11  C   UNL     1     -11.445  15.978  68.610  1.00  0.00    -0.377 C  
HETATM   12  C   UNL     1     -11.961  14.977  69.604  1.00  0.00    -0.356 A  
HETATM   13  C   UNL     1     -11.675  13.664  69.178  1.00  0.00    -0.376 A  
HETATM   14  C   UNL     1     -12.130  12.659  70.033  1.00  0.00    -0.339 A  
HETATM   15  C   UNL     1     -12.763  13.103  71.192  1.00  0.00    -0.300 A  
HETATM   16  O   UNL     1     -13.162  12.041  71.992  1.00  0.00    -0.499 OA 
HETATM   17  C   UNL     1     -13.020  14.397  71.605  1.00  0.00    -0.412 A  
HETATM   18  C   UNL     1     -12.602  15.395  70.760  1.00  0.00    -0.497 A  
HETATM   19  C   UNL     1     -12.761  10.833  71.294  1.00  0.00    -0.441 C  
HETATM   20  C   UNL     1     -12.068  11.196  69.975  1.00  0.00    -0.437 C  
ENDBRANCH   8   9
ENDBRANCH   7   8
ENDBRANCH   5   7
ENDBRANCH   2   3
TORSDOF 4
ENDMDL
MODEL       27
REMARK 921   NORMALIZED FREE ENERGY PREDICTED BY IDOCK:   -5.85 KCAL/MOL
REMARK 922        TOTAL FREE ENERGY PREDICTED BY IDOCK:   -7.42 KCAL/MOL
REMARK 923 INTER-LIGAND FREE ENERGY PREDICTED BY IDOCK:   -7.08 KCAL/MOL
REMARK 924 INTRA-LIGAND FREE ENERGY PREDICTED BY IDOCK:   -0.34 KCAL/MOL
REMARK 927      BINDING AFFINITY PREDICTED BY RF-SCORE:    0.00 PKD
ROOT
HETATM    1  C   UNL     1     -13.785  13.351  72.233  1.00  0.00    -0.705 C  
HETATM    2  C   UNL     1     -12.988  14.400  72.988  1.00  0.00    -0.571 C  
ENDROOT
BRANCH   2   3
HETATM    3  C   UNL     1     -12.106  15.213  72.061  1.00  0.00    -0.379 C  
HETATM    4  O   UNL     1     -11.820  16.390  72.251  1.00  0.00    -0.534 OA 
HETATM    5  N   UNL     1     -11.656  14.494  70.975  1.00  0.00    -0.501 N  
HETATM    6  H   UNL     1     -11.920  13.513  70.883  1.00  0.00     0.000 HD 
BRANCH   5   7
HETATM    7  C   UNL     1     -10.817  15.099  69.958  1.00  0.00    -0.254 C  
BRANCH   7   8
HETATM    8  C   UNL     1     -11.647  15.878  68.935  1.00  0.00    -0.392 C  
BRANCH   8   9
HETATM    9  C   UNL     1     -11.181  15.739  67.481  1.00  0.00    -0.218 C  
HETATM   10  C   UNL     1     -10.664  14.319  67.111  1.00  0.00    -0.282 C  
HETATM   11  C   UNL     1      -9.129  14.394  66.916  1.00  0.00    -0.269 C  
HETATM   12  C   UNL     1      -8.846  15.869  66.847  1.00  0.00    -0.264 A  
HETATM   13  C   UNL     1     -10.005  16.609  67.158  1.00  0.00    -0.268 A  
HETATM   14  C   UNL     1      -9.845  17.994  67.107  1.00  0.00    -0.316 A  
HETATM   15  C   UNL     1      -8.561  18.436  66.795  1.00  0.00    -0.276 A  
HETATM   16  O   UNL     1      -8.488  19.822  66.787  1.00  0.00    -0.293 OA 
HETATM   17  C   UNL     1      -7.430  17.696  66.510  1.00  0.00    -0.299 A  
HETATM   18  C   UNL     1      -7.579  16.331  66.530  1.00  0.00    -0.218 A  
HETATM   19  C   UNL     1      -9.819  20.301  67.112  1.00  0.00    -0.466 C  
HETATM   20  C   UNL     1     -10.764  19.114  67.332  1.00  0.00    -0.578 C  
ENDBRANCH   8   9
ENDBRANCH   7   8
ENDBRANCH   5   7
ENDBRANCH   2   3
TORSDOF 4
ENDMDL
MODEL       28
REMARK 921   NORMALIZED FREE ENERGY PREDICTED BY IDOCK:   -5.82 KCAL/MOL
REMARK 922        TOTAL FREE ENERGY PREDICTED BY IDOCK:   -7.38 KCAL/MOL
REMARK 923 INTER-LIGAND FREE ENERGY PREDICTED BY IDOCK:   -7.15 KCAL/MOL
REMARK 924 INTRA-LIGAND FREE ENERGY PREDICTED BY IDOCK:   -0.23 KCAL/MOL
REMARK 927      BINDING AFFINITY PREDICTED BY RF-SCORE:    0.00 PKD
ROOT
HETATM    1  C   UNL     1     -12.474  11.856  63.350  1.00  0.00    -0.582 C  
HETATM    2  C   UNL     1     -11.293  12.540  64.016  1.00  0.00    -0.467 C  
ENDROOT
BRANCH   2   3
HETATM    3  C   UNL     1     -11.690  13.853  64.658  1.00  0.00    -0.397 C  
HETATM    4  O   UNL     1     -12.789  14.059  65.164  1.00  0.00    -0.696 OA 
HETATM    5  N   UNL     1     -10.690  14.801  64.616  1.00  0.00    -0.606 N  
HETATM    6  H   UNL     1      -9.794  14.560  64.193  1.00  0.00     0.000 HD 
BRANCH   5   7
HETATM    7  C   UNL     1     -10.882  16.132  65.159  1.00  0.00    -0.361 C  
BRANCH   7   8
HETATM    8  C   UNL     1      -9.712  16.547  66.055  1.00  0.00    -0.331 C  
BRANCH   8   9
HETATM    9  C   UNL     1      -9.999  17.727  66.991  1.00  0.00    -0.322 C  
HETATM   10  C   UNL     1     -10.732  18.918  66.309  1.00  0.00    -0.363 C  
HETATM   11  C   UNL     1      -9.735  20.097  66.183  1.00  0.00    -0.481 C  
HETATM   12  C   UNL     1      -8.589  19.696  67.068  1.00  0.00    -0.358 A  
HETATM   13  C   UNL     1      -8.754  18.370  67.520  1.00  0.00    -0.264 A  
HETATM   14  C   UNL     1      -7.743  17.910  68.364  1.00  0.00    -0.292 A  
HETATM   15  C   UNL     1      -6.708  18.812  68.602  1.00  0.00    -0.266 A  
HETATM   16  O   UNL     1      -5.738  18.265  69.432  1.00  0.00    -0.211 OA 
HETATM   17  C   UNL     1      -6.552  20.104  68.137  1.00  0.00    -0.327 A  
HETATM   18  C   UNL     1      -7.553  20.579  67.327  1.00  0.00    -0.386 A  
HETATM   19  C   UNL     1      -6.186  16.922  69.750  1.00  0.00    -0.205 C  
HETATM   20  C   UNL     1      -7.525  16.639  69.059  1.00  0.00    -0.232 C  
ENDBRANCH   8   9
ENDBRANCH   7   8
ENDBRANCH   5   7
ENDBRANCH   2   3
TORSDOF 4
ENDMDL
MODEL       29
REMARK 921   NORMALIZED FREE ENERGY PREDICTED BY IDOCK:   -5.82 KCAL/MOL
REMARK 922        TOTAL FREE ENERGY PREDICTED BY IDOCK:   -7.38 KCAL/MOL
REMARK 923 INTER-LIGAND FREE ENERGY PREDICTED BY IDOCK:   -6.82 KCAL/MOL
REMARK 924 INTRA-LIGAND FREE ENERGY PREDICTED BY IDOCK:   -0.56 KCAL/MOL
REMARK 927      BINDING AFFINITY PREDICTED BY RF-SCORE:    0.00 PKD
ROOT
HETATM    1  C   UNL     1     -11.144  10.235  68.679  1.00  0.00    -0.290 C  
HETATM    2  C   UNL     1     -11.493  10.002  70.139  1.00  0.00    -0.344 C  
ENDROOT
BRANCH   2   3
HETATM    3  C   UNL     1     -12.201  11.196  70.747  1.00  0.00    -0.385 C  
HETATM    4  O   UNL     1     -13.134  11.104  71.539  1.00  0.00    -0.425 OA 
HETATM    5  N   UNL     1     -11.692  12.403  70.319  1.00  0.00    -0.546 N  
HETATM    6  H   UNL     1     -10.905  12.409  69.669  1.00  0.00     0.000 HD 
BRANCH   5   7
HETATM    7  C   UNL     1     -12.249  13.664  70.769  1.00  0.00    -0.347 C  
BRANCH   7   8
HETATM    8  C   UNL     1     -12.149  14.741  69.685  1.00  0.00    -0.346 C  
BRANCH   8   9
HETATM    9  C   UNL     1     -10.789  14.831  68.983  1.00  0.00    -0.250 C  
HETATM   10  C   UNL     1      -9.909  16.026  69.451  1.00  0.00    -0.254 C  
HETATM   11  C   UNL     1      -9.844  17.063  68.303  1.00  0.00    -0.278 C  
HETATM   12  C   UNL     1     -10.387  16.320  67.115  1.00  0.00    -0.285 A  
HETATM   13  C   UNL     1     -10.905  15.069  67.510  1.00  0.00    -0.297 A  
HETATM   14  C   UNL     1     -11.423  14.296  66.469  1.00  0.00    -0.368 A  
HETATM   15  C   UNL     1     -11.384  14.888  65.209  1.00  0.00    -0.358 A  
HETATM   16  O   UNL     1     -11.936  14.061  64.241  1.00  0.00    -0.430 OA 
HETATM   17  C   UNL     1     -10.888  16.125  64.841  1.00  0.00    -0.353 A  
HETATM   18  C   UNL     1     -10.351  16.885  65.850  1.00  0.00    -0.327 A  
HETATM   19  C   UNL     1     -12.353  12.853  64.929  1.00  0.00    -0.475 C  
HETATM   20  C   UNL     1     -12.028  12.962  66.423  1.00  0.00    -0.462 C  
ENDBRANCH   8   9
ENDBRANCH   7   8
ENDBRANCH   5   7
ENDBRANCH   2   3
TORSDOF 4
ENDMDL
MODEL       30
REMARK 921   NORMALIZED FREE ENERGY PREDICTED BY IDOCK:   -5.80 KCAL/MOL
REMARK 922        TOTAL FREE ENERGY PREDICTED BY IDOCK:   -7.36 KCAL/MOL
REMARK 923 INTER-LIGAND FREE ENERGY PREDICTED BY IDOCK:   -6.77 KCAL/MOL
REMARK 924 INTRA-LIGAND FREE ENERGY PREDICTED BY IDOCK:   -0.59 KCAL/MOL
REMARK 927      BINDING AFFINITY PREDICTED BY RF-SCORE:    0.00 PKD
ROOT
HETATM    1  C   UNL     1     -12.564  10.775  71.095  1.00  0.00    -0.532 C  
HETATM    2  C   UNL     1     -11.392  10.766  70.130  1.00  0.00    -0.390 C  
ENDROOT
BRANCH   2   3
HETATM    3  C   UNL     1     -11.649  11.647  68.924  1.00  0.00    -0.314 C  
HETATM    4  O   UNL     1     -12.124  11.238  67.870  1.00  0.00    -0.634 OA 
HETATM    5  N   UNL     1     -11.290  12.962  69.129  1.00  0.00    -0.297 N  
HETATM    6  H   UNL     1     -10.913  13.240  70.034  1.00  0.00     0.000 HD 
BRANCH   5   7
HETATM    7  C   UNL     1     -11.437  13.961  68.086  1.00  0.00    -0.312 C  
BRANCH   7   8
HETATM    8  C   UNL     1     -10.096  14.613  67.741  1.00  0.00    -0.228 C  
BRANCH   8   9
HETATM    9  C   UNL     1      -9.799  14.730  66.241  1.00  0.00    -0.316 C  
HETATM   10  C   UNL     1     -10.474  15.951  65.552  1.00  0.00    -0.425 C  
HETATM   11  C   UNL     1     -11.603  15.429  64.629  1.00  0.00    -0.311 C  
HETATM   12  C   UNL     1     -11.346  13.951  64.546  1.00  0.00    -0.381 A  
HETATM   13  C   UNL     1     -10.328  13.575  65.448  1.00  0.00    -0.329 A  
HETATM   14  C   UNL     1     -10.007  12.217  65.434  1.00  0.00    -0.264 A  
HETATM   15  C   UNL     1     -10.762  11.434  64.563  1.00  0.00    -0.327 A  
HETATM   16  O   UNL     1     -10.391  10.098  64.630  1.00  0.00    -0.198 OA 
HETATM   17  C   UNL     1     -11.769  11.816  63.698  1.00  0.00    -0.517 A  
HETATM   18  C   UNL     1     -12.077  13.153  63.681  1.00  0.00    -0.583 A  
HETATM   19  C   UNL     1      -9.322  10.021  65.608  1.00  0.00    -0.204 C  
HETATM   20  C   UNL     1      -9.028  11.416  66.173  1.00  0.00    -0.207 C  
ENDBRANCH   8   9
ENDBRANCH   7   8
ENDBRANCH   5   7
ENDBRANCH   2   3
TORSDOF 4
ENDMDL
MODEL       31
REMARK 921   NORMALIZED FREE ENERGY PREDICTED BY IDOCK:   -5.76 KCAL/MOL
REMARK 922        TOTAL FREE ENERGY PREDICTED BY IDOCK:   -7.31 KCAL/MOL
REMARK 923 INTER-LIGAND FREE ENERGY PREDICTED BY IDOCK:   -6.92 KCAL/MOL
REMARK 924 INTRA-LIGAND FREE ENERGY PREDICTED BY IDOCK:   -0.38 KCAL/MOL
REMARK 927      BINDING AFFINITY PREDICTED BY RF-SCORE:    0.00 PKD
ROOT
HETATM    1  C   UNL     1     -10.266  19.838  68.094  1.00  0.00    -0.577 C  
HETATM    2  C   UNL     1      -9.378  19.803  66.862  1.00  0.00    -0.469 C  
ENDROOT
BRANCH   2   3
HETATM    3  C   UNL     1      -9.199  18.394  66.335  1.00  0.00    -0.273 C  
HETATM    4  O   UNL     1      -8.138  17.958  65.902  1.00  0.00    -0.524 OA 
HETATM    5  N   UNL     1     -10.356  17.646  66.390  1.00  0.00    -0.359 N  
HETATM    6  H   UNL     1     -11.202  18.065  66.775  1.00  0.00     0.000 HD 
BRANCH   5   7
HETATM    7  C   UNL     1     -10.398  16.277  65.911  1.00  0.00    -0.365 C  
BRANCH   7   8
HETATM    8  C   UNL     1     -10.351  15.276  67.068  1.00  0.00    -0.277 C  
BRANCH   8   9
HETATM    9  C   UNL     1     -11.538  14.308  67.136  1.00  0.00    -0.402 C  
HETATM   10  C   UNL     1     -12.096  14.084  68.571  1.00  0.00    -0.329 C  
HETATM   11  C   UNL     1     -11.729  12.647  69.018  1.00  0.00    -0.367 C  
HETATM   12  C   UNL     1     -11.279  11.978  67.750  1.00  0.00    -0.331 A  
HETATM   13  C   UNL     1     -11.184  12.918  66.703  1.00  0.00    -0.342 A  
HETATM   14  C   UNL     1     -10.785  12.388  65.475  1.00  0.00    -0.315 A  
HETATM   15  C   UNL     1     -10.506  11.023  65.477  1.00  0.00    -0.238 A  
HETATM   16  O   UNL     1     -10.097  10.586  64.225  1.00  0.00    -0.343 OA 
HETATM   17  C   UNL     1     -10.587  10.118  66.518  1.00  0.00    -0.179 A  
HETATM   18  C   UNL     1     -11.004  10.620  67.725  1.00  0.00    -0.364 A  
HETATM   19  C   UNL     1     -10.121  11.751  63.360  1.00  0.00    -0.446 C  
HETATM   20  C   UNL     1     -10.578  12.982  64.152  1.00  0.00    -0.421 C  
ENDBRANCH   8   9
ENDBRANCH   7   8
ENDBRANCH   5   7
ENDBRANCH   2   3
TORSDOF 4
ENDMDL
MODEL       32
REMARK 921   NORMALIZED FREE ENERGY PREDICTED BY IDOCK:   -5.72 KCAL/MOL
REMARK 922        TOTAL FREE ENERGY PREDICTED BY IDOCK:   -7.27 KCAL/MOL
REMARK 923 INTER-LIGAND FREE ENERGY PREDICTED BY IDOCK:   -6.95 KCAL/MOL
REMARK 924 INTRA-LIGAND FREE ENERGY PREDICTED BY IDOCK:   -0.32 KCAL/MOL
REMARK 927      BINDING AFFINITY PREDICTED BY RF-SCORE:    0.00 PKD
ROOT
HETATM    1  C   UNL     1     -13.721   8.565  71.742  1.00  0.00    -0.444 C  
HETATM    2  C   UNL     1     -13.077   9.918  71.988  1.00  0.00    -0.545 C  
ENDROOT
BRANCH   2   3
HETATM    3  C   UNL     1     -12.008  10.229  70.960  1.00  0.00    -0.385 C  
HETATM    4  O   UNL     1     -10.815  10.002  71.126  1.00  0.00    -0.260 OA 
HETATM    5  N   UNL     1     -12.514  10.800  69.811  1.00  0.00    -0.474 N  
HETATM    6  H   UNL     1     -13.520  10.950  69.731  1.00  0.00     0.000 HD 
BRANCH   5   7
HETATM    7  C   UNL     1     -11.650  11.193  68.714  1.00  0.00    -0.322 C  
BRANCH   7   8
HETATM    8  C   UNL     1     -11.478  12.712  68.651  1.00  0.00    -0.347 C  
BRANCH   8   9
HETATM    9  C   UNL     1     -10.316  13.197  67.775  1.00  0.00    -0.230 C  
HETATM   10  C   UNL     1      -9.446  14.309  68.430  1.00  0.00    -0.213 C  
HETATM   11  C   UNL     1      -9.713  15.640  67.685  1.00  0.00    -0.225 C  
HETATM   12  C   UNL     1     -10.449  15.218  66.445  1.00  0.00    -0.307 A  
HETATM   13  C   UNL     1     -10.773  13.847  66.506  1.00  0.00    -0.277 A  
HETATM   14  C   UNL     1     -11.449  13.356  65.388  1.00  0.00    -0.322 A  
HETATM   15  C   UNL     1     -11.734  14.297  64.401  1.00  0.00    -0.389 A  
HETATM   16  O   UNL     1     -12.424  13.728  63.339  1.00  0.00    -0.817 OA 
HETATM   17  C   UNL     1     -11.424  15.643  64.365  1.00  0.00    -0.266 A  
HETATM   18  C   UNL     1     -10.736  16.135  65.446  1.00  0.00    -0.374 A  
HETATM   19  C   UNL     1     -12.588  12.324  63.667  1.00  0.00    -0.490 C  
HETATM   20  C   UNL     1     -11.949  12.026  65.029  1.00  0.00    -0.262 C  
ENDBRANCH   8   9
ENDBRANCH   7   8
ENDBRANCH   5   7
ENDBRANCH   2   3
TORSDOF 4
ENDMDL
MODEL       33
REMARK 921   NORMALIZED FREE ENERGY PREDICTED BY IDOCK:   -5.69 KCAL/MOL
REMARK 922        TOTAL FREE ENERGY PREDICTED BY IDOCK:   -7.23 KCAL/MOL
REMARK 923 INTER-LIGAND FREE ENERGY PREDICTED BY IDOCK:   -6.85 KCAL/MOL
REMARK 924 INTRA-LIGAND FREE ENERGY PREDICTED BY IDOCK:   -0.38 KCAL/MOL
REMARK 927      BINDING AFFINITY PREDICTED BY RF-SCORE:    0.00 PKD
ROOT
HETATM    1  C   UNL     1     -12.139  16.409  73.848  1.00  0.00    -0.462 C  
HETATM    2  C   UNL     1     -13.099  15.343  73.348  1.00  0.00    -0.633 C  
ENDROOT
BRANCH   2   3
HETATM    3  C   UNL     1     -13.261  15.393  71.842  1.00  0.00    -0.444 C  
HETATM    4  O   UNL     1     -14.316  15.158  71.262  1.00  0.00    -0.459 OA 
HETATM    5  N   UNL     1     -12.097  15.728  71.184  1.00  0.00    -0.396 N  
HETATM    6  H   UNL     1     -11.257  15.925  71.727  1.00  0.00     0.000 HD 
BRANCH   5   7
HETATM    7  C   UNL     1     -12.039  15.807  69.736  1.00  0.00    -0.281 C  
BRANCH   7   8
HETATM    8  C   UNL     1     -11.521  14.504  69.123  1.00  0.00    -0.324 C  
BRANCH   8   9
HETATM    9  C   UNL     1     -10.371  14.670  68.122  1.00  0.00    -0.230 C  
HETATM   10  C   UNL     1      -9.519  15.954  68.339  1.00  0.00    -0.201 C  
HETATM   11  C   UNL     1      -9.812  16.936  67.178  1.00  0.00    -0.270 C  
HETATM   12  C   UNL     1     -10.544  16.095  66.170  1.00  0.00    -0.288 A  
HETATM   13  C   UNL     1     -10.843  14.827  66.710  1.00  0.00    -0.316 A  
HETATM   14  C   UNL     1     -11.514  13.965  65.841  1.00  0.00    -0.328 A  
HETATM   15  C   UNL     1     -11.818  14.497  64.589  1.00  0.00    -0.453 A  
HETATM   16  O   UNL     1     -12.501  13.581  63.800  1.00  0.00    -0.696 OA 
HETATM   17  C   UNL     1     -11.533  15.750  64.082  1.00  0.00    -0.079 A  
HETATM   18  C   UNL     1     -10.850  16.599  64.916  1.00  0.00    -0.158 A  
HETATM   19  C   UNL     1     -12.639  12.378  64.600  1.00  0.00    -0.375 C  
HETATM   20  C   UNL     1     -11.991  12.586  65.974  1.00  0.00    -0.456 C  
ENDBRANCH   8   9
ENDBRANCH   7   8
ENDBRANCH   5   7
ENDBRANCH   2   3
TORSDOF 4
ENDMDL
MODEL       34
REMARK 921   NORMALIZED FREE ENERGY PREDICTED BY IDOCK:   -5.68 KCAL/MOL
REMARK 922        TOTAL FREE ENERGY PREDICTED BY IDOCK:   -7.21 KCAL/MOL
REMARK 923 INTER-LIGAND FREE ENERGY PREDICTED BY IDOCK:   -6.84 KCAL/MOL
REMARK 924 INTRA-LIGAND FREE ENERGY PREDICTED BY IDOCK:   -0.37 KCAL/MOL
REMARK 927      BINDING AFFINITY PREDICTED BY RF-SCORE:    0.00 PKD
ROOT
HETATM    1  C   UNL     1     -11.789  12.044  63.494  1.00  0.00    -0.587 C  
HETATM    2  C   UNL     1     -12.252  13.241  64.307  1.00  0.00    -0.454 C  
ENDROOT
BRANCH   2   3
HETATM    3  C   UNL     1     -11.871  13.112  65.768  1.00  0.00    -0.397 C  
HETATM    4  O   UNL     1     -12.223  13.902  66.636  1.00  0.00    -0.437 OA 
HETATM    5  N   UNL     1     -11.082  12.011  66.025  1.00  0.00    -0.308 N  
HETATM    6  H   UNL     1     -10.835  11.385  65.259  1.00  0.00     0.000 HD 
BRANCH   5   7
HETATM    7  C   UNL     1     -10.592  11.723  67.360  1.00  0.00    -0.224 C  
BRANCH   7   8
HETATM    8  C   UNL     1     -10.917  10.288  67.780  1.00  0.00    -0.360 C  
BRANCH   8   9
HETATM    9  C   UNL     1     -10.356   9.868  69.144  1.00  0.00    -0.225 C  
HETATM   10  C   UNL     1      -9.876   8.389  69.207  1.00  0.00    -0.186 C  
HETATM   11  C   UNL     1     -10.866   7.593  70.094  1.00  0.00    -0.255 C  
HETATM   12  C   UNL     1     -11.677   8.658  70.775  1.00  0.00    -0.239 A  
HETATM   13  C   UNL     1     -11.376   9.927  70.239  1.00  0.00    -0.357 A  
HETATM   14  C   UNL     1     -12.073  10.988  70.819  1.00  0.00    -0.467 A  
HETATM   15  C   UNL     1     -12.984  10.632  71.811  1.00  0.00    -0.472 A  
HETATM   16  O   UNL     1     -13.645  11.743  72.317  1.00  0.00    -0.328 OA 
HETATM   17  C   UNL     1     -13.281   9.379  72.314  1.00  0.00    -0.528 A  
HETATM   18  C   UNL     1     -12.584   8.329  71.770  1.00  0.00    -0.364 A  
HETATM   19  C   UNL     1     -13.117  12.890  71.603  1.00  0.00    -0.335 C  
HETATM   20  C   UNL     1     -12.059  12.435  70.591  1.00  0.00    -0.317 C  
ENDBRANCH   8   9
ENDBRANCH   7   8
ENDBRANCH   5   7
ENDBRANCH   2   3
TORSDOF 4
ENDMDL
MODEL       35
REMARK 921   NORMALIZED FREE ENERGY PREDICTED BY IDOCK:   -5.65 KCAL/MOL
REMARK 922        TOTAL FREE ENERGY PREDICTED BY IDOCK:   -7.18 KCAL/MOL
REMARK 923 INTER-LIGAND FREE ENERGY PREDICTED BY IDOCK:   -6.88 KCAL/MOL
REMARK 924 INTRA-LIGAND FREE ENERGY PREDICTED BY IDOCK:   -0.29 KCAL/MOL
REMARK 927      BINDING AFFINITY PREDICTED BY RF-SCORE:    0.00 PKD
ROOT
HETATM    1  C   UNL     1     -14.050   8.326  71.876  1.00  0.00    -0.499 C  
HETATM    2  C   UNL     1     -12.571   8.119  71.605  1.00  0.00    -0.347 C  
ENDROOT
BRANCH   2   3
HETATM    3  C   UNL     1     -11.916   9.372  71.059  1.00  0.00    -0.315 C  
HETATM    4  O   UNL     1     -10.793   9.748  71.377  1.00  0.00    -0.308 OA 
HETATM    5  N   UNL     1     -12.715  10.053  70.166  1.00  0.00    -0.532 N  
HETATM    6  H   UNL     1     -13.635   9.679  69.934  1.00  0.00     0.000 HD 
BRANCH   5   7
HETATM    7  C   UNL     1     -12.278  11.291  69.549  1.00  0.00    -0.256 C  
BRANCH   7   8
HETATM    8  C   UNL     1     -11.384  11.029  68.335  1.00  0.00    -0.363 C  
BRANCH   8   9
HETATM    9  C   UNL     1     -10.763  12.281  67.703  1.00  0.00    -0.250 C  
HETATM   10  C   UNL     1     -11.458  13.612  68.112  1.00  0.00    -0.348 C  
HETATM   11  C   UNL     1     -12.224  14.160  66.883  1.00  0.00    -0.400 C  
HETATM   12  C   UNL     1     -11.698  13.343  65.736  1.00  0.00    -0.380 A  
HETATM   13  C   UNL     1     -10.875  12.300  66.211  1.00  0.00    -0.313 A  
HETATM   14  C   UNL     1     -10.326  11.490  65.215  1.00  0.00    -0.322 A  
HETATM   15  C   UNL     1     -10.700  11.810  63.911  1.00  0.00    -0.399 A  
HETATM   16  O   UNL     1     -10.126  10.944  62.991  1.00  0.00    -0.310 OA 
HETATM   17  C   UNL     1     -11.523  12.827  63.465  1.00  0.00    -0.521 A  
HETATM   18  C   UNL     1     -12.049  13.647  64.431  1.00  0.00    -0.470 A  
HETATM   19  C   UNL     1      -9.325  10.008  63.758  1.00  0.00    -0.257 C  
HETATM   20  C   UNL     1      -9.425  10.335  65.253  1.00  0.00    -0.296 C  
ENDBRANCH   8   9
ENDBRANCH   7   8
ENDBRANCH   5   7
ENDBRANCH   2   3
TORSDOF 4
ENDMDL
MODEL       36
REMARK 921   NORMALIZED FREE ENERGY PREDICTED BY IDOCK:   -5.65 KCAL/MOL
REMARK 922        TOTAL FREE ENERGY PREDICTED BY IDOCK:   -7.17 KCAL/MOL
REMARK 923 INTER-LIGAND FREE ENERGY PREDICTED BY IDOCK:   -6.72 KCAL/MOL
REMARK 924 INTRA-LIGAND FREE ENERGY PREDICTED BY IDOCK:   -0.44 KCAL/MOL
REMARK 927      BINDING AFFINITY PREDICTED BY RF-SCORE:    0.00 PKD
ROOT
HETATM    1  C   UNL     1     -13.816  15.389  72.422  1.00  0.00    -0.661 C  
HETATM    2  C   UNL     1     -12.478  14.914  71.882  1.00  0.00    -0.403 C  
ENDROOT
BRANCH   2   3
HETATM    3  C   UNL     1     -12.553  13.495  71.357  1.00  0.00    -0.308 C  
HETATM    4  O   UNL     1     -13.241  12.616  71.865  1.00  0.00    -0.450 OA 
HETATM    5  N   UNL     1     -11.764  13.287  70.246  1.00  0.00    -0.539 N  
HETATM    6  H   UNL     1     -11.226  14.065  69.865  1.00  0.00     0.000 HD 
BRANCH   5   7
HETATM    7  C   UNL     1     -11.680  11.987  69.606  1.00  0.00    -0.335 C  
BRANCH   7   8
HETATM    8  C   UNL     1     -11.877  12.093  68.092  1.00  0.00    -0.362 C  
BRANCH   8   9
HETATM    9  C   UNL     1     -10.582  12.126  67.271  1.00  0.00    -0.255 C  
HETATM   10  C   UNL     1      -9.296  11.838  68.098  1.00  0.00    -0.190 C  
HETATM   11  C   UNL     1      -8.489  13.154  68.220  1.00  0.00    -0.161 C  
HETATM   12  C   UNL     1      -9.131  14.066  67.213  1.00  0.00    -0.224 A  
HETATM   13  C   UNL     1     -10.297  13.474  66.684  1.00  0.00    -0.271 A  
HETATM   14  C   UNL     1     -10.959  14.242  65.725  1.00  0.00    -0.305 A  
HETATM   15  C   UNL     1     -10.392  15.487  65.462  1.00  0.00    -0.394 A  
HETATM   16  O   UNL     1     -11.125  16.190  64.515  1.00  0.00    -0.634 OA 
HETATM   17  C   UNL     1      -9.257  16.061  66.003  1.00  0.00    -0.375 A  
HETATM   18  C   UNL     1      -8.581  15.305  66.928  1.00  0.00    -0.289 A  
HETATM   19  C   UNL     1     -12.235  15.332  64.142  1.00  0.00    -0.114 C  
HETATM   20  C   UNL     1     -12.165  14.015  64.924  1.00  0.00    -0.455 C  
ENDBRANCH   8   9
ENDBRANCH   7   8
ENDBRANCH   5   7
ENDBRANCH   2   3
TORSDOF 4
ENDMDL
MODEL       37
REMARK 921   NORMALIZED FREE ENERGY PREDICTED BY IDOCK:   -5.64 KCAL/MOL
REMARK 922        TOTAL FREE ENERGY PREDICTED BY IDOCK:   -7.16 KCAL/MOL
REMARK 923 INTER-LIGAND FREE ENERGY PREDICTED BY IDOCK:   -6.39 KCAL/MOL
REMARK 924 INTRA-LIGAND FREE ENERGY PREDICTED BY IDOCK:   -0.78 KCAL/MOL
REMARK 927      BINDING AFFINITY PREDICTED BY RF-SCORE:    0.00 PKD
ROOT
HETATM    1  C   UNL     1     -10.788  12.101  63.524  1.00  0.00    -0.518 C  
HETATM    2  C   UNL     1     -12.255  12.408  63.768  1.00  0.00    -0.626 C  
ENDROOT
BRANCH   2   3
HETATM    3  C   UNL     1     -12.479  13.058  65.118  1.00  0.00    -0.496 C  
HETATM    4  O   UNL     1     -13.232  14.008  65.301  1.00  0.00    -0.782 OA 
HETATM    5  N   UNL     1     -11.746  12.472  66.128  1.00  0.00    -0.399 N  
HETATM    6  H   UNL     1     -11.148  11.675  65.911  1.00  0.00     0.000 HD 
BRANCH   5   7
HETATM    7  C   UNL     1     -11.804  12.963  67.492  1.00  0.00    -0.351 C  
BRANCH   7   8
HETATM    8  C   UNL     1     -10.408  13.274  68.036  1.00  0.00    -0.243 C  
BRANCH   8   9
HETATM    9  C   UNL     1      -9.306  13.380  66.975  1.00  0.00    -0.243 C  
HETATM   10  C   UNL     1      -8.032  12.544  67.292  1.00  0.00    -0.173 C  
HETATM   11  C   UNL     1      -6.885  13.521  67.650  1.00  0.00    -0.178 C  
HETATM   12  C   UNL     1      -7.406  14.863  67.219  1.00  0.00    -0.174 A  
HETATM   13  C   UNL     1      -8.760  14.767  66.836  1.00  0.00    -0.264 A  
HETATM   14  C   UNL     1      -9.331  15.965  66.405  1.00  0.00    -0.329 A  
HETATM   15  C   UNL     1      -8.493  17.078  66.452  1.00  0.00    -0.283 A  
HETATM   16  O   UNL     1      -9.148  18.226  66.027  1.00  0.00    -0.510 OA 
HETATM   17  C   UNL     1      -7.172  17.158  66.848  1.00  0.00    -0.237 A  
HETATM   18  C   UNL     1      -6.588  15.982  67.250  1.00  0.00    -0.219 A  
HETATM   19  C   UNL     1     -10.497  17.819  65.679  1.00  0.00    -0.128 C  
HETATM   20  C   UNL     1     -10.667  16.313  65.913  1.00  0.00    -0.235 C  
ENDBRANCH   8   9
ENDBRANCH   7   8
ENDBRANCH   5   7
ENDBRANCH   2   3
TORSDOF 4
ENDMDL
MODEL       38
REMARK 921   NORMALIZED FREE ENERGY PREDICTED BY IDOCK:   -5.63 KCAL/MOL
REMARK 922        TOTAL FREE ENERGY PREDICTED BY IDOCK:   -7.15 KCAL/MOL
REMARK 923 INTER-LIGAND FREE ENERGY PREDICTED BY IDOCK:   -6.66 KCAL/MOL
REMARK 924 INTRA-LIGAND FREE ENERGY PREDICTED BY IDOCK:   -0.48 KCAL/MOL
REMARK 927      BINDING AFFINITY PREDICTED BY RF-SCORE:    0.00 PKD
ROOT
HETATM    1  C   UNL     1     -11.936  16.036  72.618  1.00  0.00    -0.646 C  
HETATM    2  C   UNL     1     -13.356  15.509  72.497  1.00  0.00    -0.591 C  
ENDROOT
BRANCH   2   3
HETATM    3  C   UNL     1     -13.383  14.051  72.086  1.00  0.00    -0.453 C  
HETATM    4  O   UNL     1     -14.150  13.222  72.564  1.00  0.00    -0.709 OA 
HETATM    5  N   UNL     1     -12.451  13.745  71.117  1.00  0.00    -0.366 N  
HETATM    6  H   UNL     1     -11.852  14.484  70.752  1.00  0.00     0.000 HD 
BRANCH   5   7
HETATM    7  C   UNL     1     -12.303  12.396  70.605  1.00  0.00    -0.279 C  
BRANCH   7   8
HETATM    8  C   UNL     1     -11.322  12.345  69.431  1.00  0.00    -0.286 C  
BRANCH   8   9
HETATM    9  C   UNL     1     -11.906  12.773  68.079  1.00  0.00    -0.386 C  
HETATM   10  C   UNL     1     -11.894  11.655  66.997  1.00  0.00    -0.038 C  
HETATM   11  C   UNL     1     -10.837  12.023  65.927  1.00  0.00    -0.329 C  
HETATM   12  C   UNL     1     -10.512  13.460  66.221  1.00  0.00    -0.289 A  
HETATM   13  C   UNL     1     -11.123  13.868  67.425  1.00  0.00    -0.313 A  
HETATM   14  C   UNL     1     -10.890  15.198  67.777  1.00  0.00    -0.292 A  
HETATM   15  C   UNL     1     -10.061  15.909  66.911  1.00  0.00    -0.266 A  
HETATM   16  O   UNL     1      -9.866  17.212  67.349  1.00  0.00    -0.253 OA 
HETATM   17  C   UNL     1      -9.454  15.488  65.743  1.00  0.00    -0.334 A  
HETATM   18  C   UNL     1      -9.697  14.190  65.370  1.00  0.00    -0.126 A  
HETATM   19  C   UNL     1     -10.627  17.346  68.578  1.00  0.00    -0.340 C  
HETATM   20  C   UNL     1     -11.332  16.024  68.904  1.00  0.00    -0.370 C  
ENDBRANCH   8   9
ENDBRANCH   7   8
ENDBRANCH   5   7
ENDBRANCH   2   3
TORSDOF 4
ENDMDL
MODEL       39
REMARK 921   NORMALIZED FREE ENERGY PREDICTED BY IDOCK:   -5.61 KCAL/MOL
REMARK 922        TOTAL FREE ENERGY PREDICTED BY IDOCK:   -7.12 KCAL/MOL
REMARK 923 INTER-LIGAND FREE ENERGY PREDICTED BY IDOCK:   -6.03 KCAL/MOL
REMARK 924 INTRA-LIGAND FREE ENERGY PREDICTED BY IDOCK:   -1.09 KCAL/MOL
REMARK 927      BINDING AFFINITY PREDICTED BY RF-SCORE:    0.00 PKD
ROOT
HETATM    1  C   UNL     1     -11.281   6.108  69.651  1.00  0.00    -0.488 C  
HETATM    2  C   UNL     1     -10.477   5.746  68.414  1.00  0.00    -0.283 C  
ENDROOT
BRANCH   2   3
HETATM    3  C   UNL     1      -9.878   6.971  67.753  1.00  0.00    -0.139 C  
HETATM    4  O   UNL     1      -8.689   7.081  67.471  1.00  0.00    -0.121 OA 
HETATM    5  N   UNL     1     -10.807   7.957  67.499  1.00  0.00    -0.517 N  
HETATM    6  H   UNL     1     -11.783   7.796  67.745  1.00  0.00     0.000 HD 
BRANCH   5   7
HETATM    7  C   UNL     1     -10.428   9.218  66.889  1.00  0.00    -0.214 C  
BRANCH   7   8
HETATM    8  C   UNL     1     -11.070  10.405  67.611  1.00  0.00    -0.361 C  
BRANCH   8   9
HETATM    9  C   UNL     1     -10.261  10.963  68.788  1.00  0.00    -0.210 C  
HETATM   10  C   UNL     1      -8.724  10.985  68.551  1.00  0.00    -0.159 C  
HETATM   11  C   UNL     1      -8.076   9.907  69.456  1.00  0.00    -0.155 C  
HETATM   12  C   UNL     1      -9.173   9.531  70.411  1.00  0.00    -0.305 A  
HETATM   13  C   UNL     1     -10.388  10.136  70.029  1.00  0.00    -0.301 A  
HETATM   14  C   UNL     1     -11.469   9.856  70.868  1.00  0.00    -0.456 A  
HETATM   15  C   UNL     1     -11.194   8.996  71.929  1.00  0.00    -0.368 A  
HETATM   16  O   UNL     1     -12.326   8.756  72.695  1.00  0.00    -0.346 OA 
HETATM   17  C   UNL     1      -9.999   8.396  72.278  1.00  0.00    -0.383 A  
HETATM   18  C   UNL     1      -8.921   8.684  71.479  1.00  0.00    -0.302 A  
HETATM   19  C   UNL     1     -13.399   9.520  72.085  1.00  0.00    -0.461 C  
HETATM   20  C   UNL     1     -12.873  10.276  70.859  1.00  0.00    -0.463 C  
ENDBRANCH   8   9
ENDBRANCH   7   8
ENDBRANCH   5   7
ENDBRANCH   2   3
TORSDOF 4
ENDMDL
MODEL       40
REMARK 921   NORMALIZED FREE ENERGY PREDICTED BY IDOCK:   -5.61 KCAL/MOL
REMARK 922        TOTAL FREE ENERGY PREDICTED BY IDOCK:   -7.12 KCAL/MOL
REMARK 923 INTER-LIGAND FREE ENERGY PREDICTED BY IDOCK:   -6.84 KCAL/MOL
REMARK 924 INTRA-LIGAND FREE ENERGY PREDICTED BY IDOCK:   -0.28 KCAL/MOL
REMARK 927      BINDING AFFINITY PREDICTED BY RF-SCORE:    0.00 PKD
ROOT
HETATM    1  C   UNL     1     -10.175   5.129  69.212  1.00  0.00    -0.276 C  
HETATM    2  C   UNL     1     -11.162   6.212  69.614  1.00  0.00    -0.488 C  
ENDROOT
BRANCH   2   3
HETATM    3  C   UNL     1     -10.459   7.473  70.074  1.00  0.00    -0.228 C  
HETATM    4  O   UNL     1      -9.450   7.476  70.771  1.00  0.00    -0.163 OA 
HETATM    5  N   UNL     1     -11.072   8.625  69.629  1.00  0.00    -0.429 N  
HETATM    6  H   UNL     1     -11.901   8.553  69.041  1.00  0.00     0.000 HD 
BRANCH   5   7
HETATM    7  C   UNL     1     -10.565   9.939  69.980  1.00  0.00    -0.288 C  
BRANCH   7   8
HETATM    8  C   UNL     1     -11.667  10.831  70.554  1.00  0.00    -0.449 C  
BRANCH   8   9
HETATM    9  C   UNL     1     -12.280  11.826  69.560  1.00  0.00    -0.232 C  
HETATM   10  C   UNL     1     -11.637  11.788  68.144  1.00  0.00    -0.391 C  
HETATM   11  C   UNL     1     -10.818  13.088  67.946  1.00  0.00    -0.260 C  
HETATM   12  C   UNL     1     -11.263  13.971  69.076  1.00  0.00    -0.311 A  
HETATM   13  C   UNL     1     -12.087  13.253  69.968  1.00  0.00    -0.385 A  
HETATM   14  C   UNL     1     -12.565  13.996  71.049  1.00  0.00    -0.437 A  
HETATM   15  C   UNL     1     -12.128  15.318  71.105  1.00  0.00    -0.348 A  
HETATM   16  O   UNL     1     -12.632  15.974  72.219  1.00  0.00    -0.446 OA 
HETATM   17  C   UNL     1     -11.304  16.002  70.231  1.00  0.00    -0.391 A  
HETATM   18  C   UNL     1     -10.848  15.291  69.148  1.00  0.00    -0.250 A  
HETATM   19  C   UNL     1     -13.453  15.006  72.923  1.00  0.00    -0.465 C  
HETATM   20  C   UNL     1     -13.441  13.667  72.176  1.00  0.00    -0.606 C  
ENDBRANCH   8   9
ENDBRANCH   7   8
ENDBRANCH   5   7
ENDBRANCH   2   3
TORSDOF 4
ENDMDL
MODEL       41
REMARK 921   NORMALIZED FREE ENERGY PREDICTED BY IDOCK:   -5.60 KCAL/MOL
REMARK 922        TOTAL FREE ENERGY PREDICTED BY IDOCK:   -7.12 KCAL/MOL
REMARK 923 INTER-LIGAND FREE ENERGY PREDICTED BY IDOCK:   -6.75 KCAL/MOL
REMARK 924 INTRA-LIGAND FREE ENERGY PREDICTED BY IDOCK:   -0.37 KCAL/MOL
REMARK 927      BINDING AFFINITY PREDICTED BY RF-SCORE:    0.00 PKD
ROOT
HETATM    1  C   UNL     1     -12.475  12.104  63.502  1.00  0.00    -0.666 C  
HETATM    2  C   UNL     1     -12.112  13.422  64.164  1.00  0.00    -0.491 C  
ENDROOT
BRANCH   2   3
HETATM    3  C   UNL     1     -11.569  13.218  65.564  1.00  0.00    -0.326 C  
HETATM    4  O   UNL     1     -12.150  12.578  66.434  1.00  0.00    -0.576 OA 
HETATM    5  N   UNL     1     -10.349  13.829  65.765  1.00  0.00    -0.299 N  
HETATM    6  H   UNL     1      -9.913  14.335  64.994  1.00  0.00     0.000 HD 
BRANCH   5   7
HETATM    7  C   UNL     1      -9.672  13.770  67.046  1.00  0.00    -0.251 C  
BRANCH   7   8
HETATM    8  C   UNL     1      -8.499  14.751  67.107  1.00  0.00    -0.247 C  
BRANCH   8   9
HETATM    9  C   UNL     1      -8.647  15.875  68.140  1.00  0.00    -0.169 C  
HETATM   10  C   UNL     1      -9.894  15.735  69.060  1.00  0.00    -0.240 C  
HETATM   11  C   UNL     1     -10.912  16.836  68.672  1.00  0.00    -0.298 C  
HETATM   12  C   UNL     1     -10.121  17.767  67.798  1.00  0.00    -0.345 A  
HETATM   13  C   UNL     1      -8.852  17.220  67.515  1.00  0.00    -0.219 A  
HETATM   14  C   UNL     1      -8.035  18.022  66.717  1.00  0.00    -0.261 A  
HETATM   15  C   UNL     1      -8.606  19.219  66.291  1.00  0.00    -0.325 A  
HETATM   16  O   UNL     1      -7.733  19.941  65.488  1.00  0.00    -0.358 OA 
HETATM   17  C   UNL     1      -9.859  19.733  66.563  1.00  0.00    -0.546 A  
HETATM   18  C   UNL     1     -10.664  18.968  67.370  1.00  0.00    -0.559 A  
HETATM   19  C   UNL     1      -6.518  19.153  65.397  1.00  0.00    -0.278 C  
HETATM   20  C   UNL     1      -6.671  17.859  66.206  1.00  0.00    -0.294 C  
ENDBRANCH   8   9
ENDBRANCH   7   8
ENDBRANCH   5   7
ENDBRANCH   2   3
TORSDOF 4
ENDMDL
MODEL       42
REMARK 921   NORMALIZED FREE ENERGY PREDICTED BY IDOCK:   -5.57 KCAL/MOL
REMARK 922        TOTAL FREE ENERGY PREDICTED BY IDOCK:   -7.08 KCAL/MOL
REMARK 923 INTER-LIGAND FREE ENERGY PREDICTED BY IDOCK:   -6.78 KCAL/MOL
REMARK 924 INTRA-LIGAND FREE ENERGY PREDICTED BY IDOCK:   -0.30 KCAL/MOL
REMARK 927      BINDING AFFINITY PREDICTED BY RF-SCORE:    0.00 PKD
ROOT
HETATM    1  C   UNL     1     -13.952  13.751  72.047  1.00  0.00    -0.560 C  
HETATM    2  C   UNL     1     -14.013  15.254  71.835  1.00  0.00    -0.644 C  
ENDROOT
BRANCH   2   3
HETATM    3  C   UNL     1     -12.662  15.825  71.455  1.00  0.00    -0.450 C  
HETATM    4  O   UNL     1     -11.918  16.400  72.243  1.00  0.00    -0.524 OA 
HETATM    5  N   UNL     1     -12.349  15.634  70.126  1.00  0.00    -0.450 N  
HETATM    6  H   UNL     1     -13.006  15.135  69.527  1.00  0.00     0.000 HD 
BRANCH   5   7
HETATM    7  C   UNL     1     -11.108  16.127  69.560  1.00  0.00    -0.344 C  
BRANCH   7   8
HETATM    8  C   UNL     1     -10.831  15.508  68.188  1.00  0.00    -0.296 C  
BRANCH   8   9
HETATM    9  C   UNL     1      -9.420  15.751  67.639  1.00  0.00    -0.218 C  
HETATM   10  C   UNL     1      -8.301  14.977  68.394  1.00  0.00    -0.154 C  
HETATM   11  C   UNL     1      -7.462  15.997  69.202  1.00  0.00    -0.216 C  
HETATM   12  C   UNL     1      -7.887  17.330  68.653  1.00  0.00    -0.272 A  
HETATM   13  C   UNL     1      -8.978  17.175  67.773  1.00  0.00    -0.226 A  
HETATM   14  C   UNL     1      -9.438  18.361  67.198  1.00  0.00    -0.282 A  
HETATM   15  C   UNL     1      -8.776  19.518  67.606  1.00  0.00    -0.315 A  
HETATM   16  O   UNL     1      -9.310  20.649  67.003  1.00  0.00    -0.358 OA 
HETATM   17  C   UNL     1      -7.718  19.654  68.484  1.00  0.00    -0.369 A  
HETATM   18  C   UNL     1      -7.238  18.493  69.037  1.00  0.00    -0.262 A  
HETATM   19  C   UNL     1     -10.385  20.183  66.146  1.00  0.00    -0.373 C  
HETATM   20  C   UNL     1     -10.507  18.657  66.241  1.00  0.00    -0.468 C  
ENDBRANCH   8   9
ENDBRANCH   7   8
ENDBRANCH   5   7
ENDBRANCH   2   3
TORSDOF 4
ENDMDL
MODEL       43
REMARK 921   NORMALIZED FREE ENERGY PREDICTED BY IDOCK:   -5.57 KCAL/MOL
REMARK 922        TOTAL FREE ENERGY PREDICTED BY IDOCK:   -7.08 KCAL/MOL
REMARK 923 INTER-LIGAND FREE ENERGY PREDICTED BY IDOCK:   -6.85 KCAL/MOL
REMARK 924 INTRA-LIGAND FREE ENERGY PREDICTED BY IDOCK:   -0.22 KCAL/MOL
REMARK 927      BINDING AFFINITY PREDICTED BY RF-SCORE:    0.00 PKD
ROOT
HETATM    1  C   UNL     1     -10.878   5.544  66.426  1.00  0.00    -0.195 C  
HETATM    2  C   UNL     1     -10.379   6.365  67.602  1.00  0.00    -0.243 C  
ENDROOT
BRANCH   2   3
HETATM    3  C   UNL     1     -10.194   7.823  67.234  1.00  0.00    -0.273 C  
HETATM    4  O   UNL     1      -9.461   8.210  66.330  1.00  0.00    -0.208 OA 
HETATM    5  N   UNL     1     -10.935   8.678  68.022  1.00  0.00    -0.474 N  
HETATM    6  H   UNL     1     -11.536   8.290  68.749  1.00  0.00     0.000 HD 
BRANCH   5   7
HETATM    7  C   UNL     1     -10.878  10.117  67.843  1.00  0.00    -0.284 C  
BRANCH   7   8
HETATM    8  C   UNL     1     -11.951  10.828  68.671  1.00  0.00    -0.103 C  
BRANCH   8   9
HETATM    9  C   UNL     1     -11.554  11.135  70.120  1.00  0.00    -0.410 C  
HETATM   10  C   UNL     1     -11.978  10.040  71.142  1.00  0.00    -0.484 C  
HETATM   11  C   UNL     1     -13.123  10.607  72.017  1.00  0.00    -0.501 C  
HETATM   12  C   UNL     1     -13.108  12.080  71.720  1.00  0.00    -0.460 A  
HETATM   13  C   UNL     1     -12.220  12.362  70.662  1.00  0.00    -0.368 A  
HETATM   14  C   UNL     1     -12.126  13.712  70.320  1.00  0.00    -0.427 A  
HETATM   15  C   UNL     1     -12.948  14.570  71.048  1.00  0.00    -0.358 A  
HETATM   16  O   UNL     1     -12.806  15.886  70.629  1.00  0.00    -0.442 OA 
HETATM   17  C   UNL     1     -13.828  14.275  72.072  1.00  0.00    -0.564 A  
HETATM   18  C   UNL     1     -13.911  12.954  72.436  1.00  0.00    -0.443 A  
HETATM   19  C   UNL     1     -11.822  15.869  69.563  1.00  0.00    -0.301 C  
HETATM   20  C   UNL     1     -11.335  14.436  69.322  1.00  0.00    -0.319 C  
ENDBRANCH   8   9
ENDBRANCH   7   8
ENDBRANCH   5   7
ENDBRANCH   2   3
TORSDOF 4
ENDMDL
MODEL       44
REMARK 921   NORMALIZED FREE ENERGY PREDICTED BY IDOCK:   -5.53 KCAL/MOL
REMARK 922        TOTAL FREE ENERGY PREDICTED BY IDOCK:   -7.03 KCAL/MOL
REMARK 923 INTER-LIGAND FREE ENERGY PREDICTED BY IDOCK:   -6.70 KCAL/MOL
REMARK 924 INTRA-LIGAND FREE ENERGY PREDICTED BY IDOCK:   -0.33 KCAL/MOL
REMARK 927      BINDING AFFINITY PREDICTED BY RF-SCORE:    0.00 PKD
ROOT
HETATM    1  C   UNL     1      -8.832  18.109  67.870  1.00  0.00    -0.273 C  
HETATM    2  C   UNL     1     -10.217  17.937  68.468  1.00  0.00    -0.393 C  
ENDROOT
BRANCH   2   3
HETATM    3  C   UNL     1     -10.856  16.630  68.044  1.00  0.00    -0.337 C  
HETATM    4  O   UNL     1     -10.845  16.207  66.892  1.00  0.00    -0.282 OA 
HETATM    5  N   UNL     1     -11.458  15.959  69.087  1.00  0.00    -0.363 N  
HETATM    6  H   UNL     1     -11.419  16.359  70.024  1.00  0.00     0.000 HD 
BRANCH   5   7
HETATM    7  C   UNL     1     -12.145  14.698  68.883  1.00  0.00    -0.216 C  
BRANCH   7   8
HETATM    8  C   UNL     1     -11.159  13.533  68.769  1.00  0.00    -0.298 C  
BRANCH   8   9
HETATM    9  C   UNL     1     -11.769  12.212  68.286  1.00  0.00    -0.401 C  
HETATM   10  C   UNL     1     -11.297  10.963  69.086  1.00  0.00    -0.350 C  
HETATM   11  C   UNL     1     -10.372  10.121  68.173  1.00  0.00    -0.217 C  
HETATM   12  C   UNL     1     -10.591  10.701  66.804  1.00  0.00    -0.297 A  
HETATM   13  C   UNL     1     -11.381  11.866  66.882  1.00  0.00    -0.392 A  
HETATM   14  C   UNL     1     -11.652  12.472  65.655  1.00  0.00    -0.435 A  
HETATM   15  C   UNL     1     -11.073  11.859  64.545  1.00  0.00    -0.325 A  
HETATM   16  O   UNL     1     -11.376  12.538  63.373  1.00  0.00    -0.466 OA 
HETATM   17  C   UNL     1     -10.284  10.726  64.488  1.00  0.00    -0.428 A  
HETATM   18  C   UNL     1     -10.032  10.103  65.685  1.00  0.00    -0.348 A  
HETATM   19  C   UNL     1     -12.211  13.661  63.758  1.00  0.00    -0.356 C  
HETATM   20  C   UNL     1     -12.426  13.657  65.276  1.00  0.00    -0.517 C  
ENDBRANCH   8   9
ENDBRANCH   7   8
ENDBRANCH   5   7
ENDBRANCH   2   3
TORSDOF 4
ENDMDL
MODEL       45
REMARK 921   NORMALIZED FREE ENERGY PREDICTED BY IDOCK:   -5.52 KCAL/MOL
REMARK 922        TOTAL FREE ENERGY PREDICTED BY IDOCK:   -7.01 KCAL/MOL
REMARK 923 INTER-LIGAND FREE ENERGY PREDICTED BY IDOCK:   -5.93 KCAL/MOL
REMARK 924 INTRA-LIGAND FREE ENERGY PREDICTED BY IDOCK:   -1.09 KCAL/MOL
REMARK 927      BINDING AFFINITY PREDICTED BY RF-SCORE:    0.00 PKD
ROOT
HETATM    1  C   UNL     1     -11.867  12.353  69.871  1.00  0.00    -0.376 C  
HETATM    2  C   UNL     1     -12.283  13.736  70.342  1.00  0.00    -0.433 C  
ENDROOT
BRANCH   2   3
HETATM    3  C   UNL     1     -11.503  14.829  69.641  1.00  0.00    -0.292 C  
HETATM    4  O   UNL     1     -12.025  15.734  68.998  1.00  0.00    -0.385 OA 
HETATM    5  N   UNL     1     -10.139  14.704  69.796  1.00  0.00    -0.435 N  
HETATM    6  H   UNL     1      -9.770  13.936  70.355  1.00  0.00     0.000 HD 
BRANCH   5   7
HETATM    7  C   UNL     1      -9.217  15.640  69.181  1.00  0.00    -0.254 C  
BRANCH   7   8
HETATM    8  C   UNL     1      -8.157  14.918  68.346  1.00  0.00    -0.137 C  
BRANCH   8   9
HETATM    9  C   UNL     1      -8.421  14.904  66.835  1.00  0.00    -0.255 C  
HETATM   10  C   UNL     1      -8.655  16.313  66.217  1.00  0.00    -0.374 C  
HETATM   11  C   UNL     1     -10.149  16.430  65.823  1.00  0.00    -0.352 C  
HETATM   12  C   UNL     1     -10.655  15.017  65.906  1.00  0.00    -0.338 A  
HETATM   13  C   UNL     1      -9.675  14.174  66.467  1.00  0.00    -0.307 A  
HETATM   14  C   UNL     1     -10.049  12.833  66.574  1.00  0.00    -0.264 A  
HETATM   15  C   UNL     1     -11.342  12.538  66.146  1.00  0.00    -0.343 A  
HETATM   16  O   UNL     1     -11.635  11.191  66.307  1.00  0.00    -0.171 OA 
HETATM   17  C   UNL     1     -12.298  13.382  65.614  1.00  0.00    -0.521 A  
HETATM   18  C   UNL     1     -11.935  14.699  65.478  1.00  0.00    -0.256 A  
HETATM   19  C   UNL     1     -10.446  10.581  66.872  1.00  0.00    -0.246 C  
HETATM   20  C   UNL     1      -9.355  11.640  67.067  1.00  0.00    -0.186 C  
ENDBRANCH   8   9
ENDBRANCH   7   8
ENDBRANCH   5   7
ENDBRANCH   2   3
TORSDOF 4
ENDMDL
MODEL       46
REMARK 921   NORMALIZED FREE ENERGY PREDICTED BY IDOCK:   -5.49 KCAL/MOL
REMARK 922        TOTAL FREE ENERGY PREDICTED BY IDOCK:   -6.98 KCAL/MOL
REMARK 923 INTER-LIGAND FREE ENERGY PREDICTED BY IDOCK:   -6.63 KCAL/MOL
REMARK 924 INTRA-LIGAND FREE ENERGY PREDICTED BY IDOCK:   -0.36 KCAL/MOL
REMARK 927      BINDING AFFINITY PREDICTED BY RF-SCORE:    0.00 PKD
ROOT
HETATM    1  C   UNL     1     -14.163  15.321  71.583  1.00  0.00    -0.654 C  
HETATM    2  C   UNL     1     -12.730  15.709  71.262  1.00  0.00    -0.537 C  
ENDROOT
BRANCH   2   3
HETATM    3  C   UNL     1     -12.257  15.095  69.961  1.00  0.00    -0.338 C  
HETATM    4  O   UNL     1     -12.474  13.931  69.638  1.00  0.00    -0.300 OA 
HETATM    5  N   UNL     1     -11.552  15.978  69.171  1.00  0.00    -0.357 N  
HETATM    6  H   UNL     1     -11.419  16.936  69.492  1.00  0.00     0.000 HD 
BRANCH   5   7
HETATM    7  C   UNL     1     -10.995  15.575  67.893  1.00  0.00    -0.316 C  
BRANCH   7   8
HETATM    8  C   UNL     1     -10.173  16.700  67.260  1.00  0.00    -0.290 C  
BRANCH   8   9
HETATM    9  C   UNL     1     -10.075  17.982  68.096  1.00  0.00    -0.378 C  
HETATM   10  C   UNL     1     -10.958  19.152  67.575  1.00  0.00    -0.405 C  
HETATM   11  C   UNL     1     -10.027  20.238  66.982  1.00  0.00    -0.601 C  
HETATM   12  C   UNL     1      -8.659  19.842  67.461  1.00  0.00    -0.393 A  
HETATM   13  C   UNL     1      -8.702  18.581  68.090  1.00  0.00    -0.330 A  
HETATM   14  C   UNL     1      -7.477  18.130  68.583  1.00  0.00    -0.300 A  
HETATM   15  C   UNL     1      -6.393  18.974  68.348  1.00  0.00    -0.228 A  
HETATM   16  O   UNL     1      -5.214  18.440  68.851  1.00  0.00    -0.183 OA 
HETATM   17  C   UNL     1      -6.364  20.201  67.713  1.00  0.00    -0.263 A  
HETATM   18  C   UNL     1      -7.567  20.669  67.247  1.00  0.00    -0.381 A  
HETATM   19  C   UNL     1      -5.570  17.169  69.455  1.00  0.00    -0.182 C  
HETATM   20  C   UNL     1      -7.075  16.919  69.302  1.00  0.00    -0.192 C  
ENDBRANCH   8   9
ENDBRANCH   7   8
ENDBRANCH   5   7
ENDBRANCH   2   3
TORSDOF 4
ENDMDL
MODEL       47
REMARK 921   NORMALIZED FREE ENERGY PREDICTED BY IDOCK:   -5.49 KCAL/MOL
REMARK 922        TOTAL FREE ENERGY PREDICTED BY IDOCK:   -6.97 KCAL/MOL
REMARK 923 INTER-LIGAND FREE ENERGY PREDICTED BY IDOCK:   -6.58 KCAL/MOL
REMARK 924 INTRA-LIGAND FREE ENERGY PREDICTED BY IDOCK:   -0.39 KCAL/MOL
REMARK 927      BINDING AFFINITY PREDICTED BY RF-SCORE:    0.00 PKD
ROOT
HETATM    1  C   UNL     1     -12.296  12.399  63.362  1.00  0.00    -0.603 C  
HETATM    2  C   UNL     1     -10.878  12.127  63.833  1.00  0.00    -0.461 C  
ENDROOT
BRANCH   2   3
HETATM    3  C   UNL     1     -10.457  13.080  64.934  1.00  0.00    -0.339 C  
HETATM    4  O   UNL     1     -10.899  14.217  65.057  1.00  0.00    -0.355 OA 
HETATM    5  N   UNL     1      -9.520  12.539  65.788  1.00  0.00    -0.437 N  
HETATM    6  H   UNL     1      -9.204  11.581  65.638  1.00  0.00     0.000 HD 
BRANCH   5   7
HETATM    7  C   UNL     1      -8.973  13.300  66.896  1.00  0.00    -0.207 C  
BRANCH   7   8
HETATM    8  C   UNL     1      -9.542  12.829  68.236  1.00  0.00    -0.211 C  
BRANCH   8   9
HETATM    9  C   UNL     1     -11.069  12.697  68.282  1.00  0.00    -0.295 C  
HETATM   10  C   UNL     1     -11.816  14.034  68.559  1.00  0.00    -0.399 C  
HETATM   11  C   UNL     1     -12.415  13.971  69.986  1.00  0.00    -0.339 C  
HETATM   12  C   UNL     1     -12.296  12.521  70.363  1.00  0.00    -0.311 A  
HETATM   13  C   UNL     1     -11.547  11.819  69.396  1.00  0.00    -0.386 A  
HETATM   14  C   UNL     1     -11.393  10.456  69.653  1.00  0.00    -0.333 A  
HETATM   15  C   UNL     1     -11.967  10.003  70.839  1.00  0.00    -0.361 A  
HETATM   16  O   UNL     1     -11.748   8.645  71.024  1.00  0.00    -0.281 OA 
HETATM   17  C   UNL     1     -12.684  10.710  71.786  1.00  0.00    -0.489 A  
HETATM   18  C   UNL     1     -12.867  12.046  71.534  1.00  0.00    -0.403 A  
HETATM   19  C   UNL     1     -10.984   8.197  69.874  1.00  0.00    -0.168 C  
HETATM   20  C   UNL     1     -10.724   9.374  68.927  1.00  0.00    -0.203 C  
ENDBRANCH   8   9
ENDBRANCH   7   8
ENDBRANCH   5   7
ENDBRANCH   2   3
TORSDOF 4
ENDMDL
MODEL       48
REMARK 921   NORMALIZED FREE ENERGY PREDICTED BY IDOCK:   -5.49 KCAL/MOL
REMARK 922        TOTAL FREE ENERGY PREDICTED BY IDOCK:   -6.97 KCAL/MOL
REMARK 923 INTER-LIGAND FREE ENERGY PREDICTED BY IDOCK:   -6.57 KCAL/MOL
REMARK 924 INTRA-LIGAND FREE ENERGY PREDICTED BY IDOCK:   -0.40 KCAL/MOL
REMARK 927      BINDING AFFINITY PREDICTED BY RF-SCORE:    0.00 PKD
ROOT
HETATM    1  C   UNL     1     -11.885  11.822  63.602  1.00  0.00    -0.498 C  
HETATM    2  C   UNL     1     -11.879  13.329  63.790  1.00  0.00    -0.522 C  
ENDROOT
BRANCH   2   3
HETATM    3  C   UNL     1     -12.388  13.729  65.160  1.00  0.00    -0.448 C  
HETATM    4  O   UNL     1     -13.521  14.149  65.371  1.00  0.00    -0.648 OA 
HETATM    5  N   UNL     1     -11.445  13.574  66.154  1.00  0.00    -0.317 N  
HETATM    6  H   UNL     1     -10.525  13.206  65.914  1.00  0.00     0.000 HD 
BRANCH   5   7
HETATM    7  C   UNL     1     -11.730  13.923  67.533  1.00  0.00    -0.380 C  
BRANCH   7   8
HETATM    8  C   UNL     1     -11.115  15.273  67.909  1.00  0.00    -0.321 C  
BRANCH   8   9
HETATM    9  C   UNL     1      -9.670  15.480  67.440  1.00  0.00    -0.218 C  
HETATM   10  C   UNL     1      -8.614  14.683  68.260  1.00  0.00    -0.167 C  
HETATM   11  C   UNL     1      -7.798  15.687  69.111  1.00  0.00    -0.220 C  
HETATM   12  C   UNL     1      -8.159  17.027  68.533  1.00  0.00    -0.251 A  
HETATM   13  C   UNL     1      -9.202  16.894  67.594  1.00  0.00    -0.228 A  
HETATM   14  C   UNL     1      -9.599  18.087  66.989  1.00  0.00    -0.287 A  
HETATM   15  C   UNL     1      -8.934  19.230  67.429  1.00  0.00    -0.296 A  
HETATM   16  O   UNL     1      -9.406  20.370  66.793  1.00  0.00    -0.352 OA 
HETATM   17  C   UNL     1      -7.924  19.345  68.366  1.00  0.00    -0.376 A  
HETATM   18  C   UNL     1      -7.505  18.176  68.949  1.00  0.00    -0.246 A  
HETATM   19  C   UNL     1     -10.441  19.925  65.878  1.00  0.00    -0.461 C  
HETATM   20  C   UNL     1     -10.605  18.404  65.972  1.00  0.00    -0.339 C  
ENDBRANCH   8   9
ENDBRANCH   7   8
ENDBRANCH   5   7
ENDBRANCH   2   3
TORSDOF 4
ENDMDL
MODEL       49
REMARK 921   NORMALIZED FREE ENERGY PREDICTED BY IDOCK:   -5.47 KCAL/MOL
REMARK 922        TOTAL FREE ENERGY PREDICTED BY IDOCK:   -6.95 KCAL/MOL
REMARK 923 INTER-LIGAND FREE ENERGY PREDICTED BY IDOCK:   -6.67 KCAL/MOL
REMARK 924 INTRA-LIGAND FREE ENERGY PREDICTED BY IDOCK:   -0.29 KCAL/MOL
REMARK 927      BINDING AFFINITY PREDICTED BY RF-SCORE:    0.00 PKD
ROOT
HETATM    1  C   UNL     1      -6.787  20.840  67.677  1.00  0.00    -0.386 C  
HETATM    2  C   UNL     1      -7.566  20.211  66.535  1.00  0.00    -0.316 C  
ENDROOT
BRANCH   2   3
HETATM    3  C   UNL     1      -8.910  19.681  66.993  1.00  0.00    -0.317 C  
HETATM    4  O   UNL     1      -9.969  20.277  66.829  1.00  0.00    -0.442 OA 
HETATM    5  N   UNL     1      -8.823  18.456  67.618  1.00  0.00    -0.261 N  
HETATM    6  H   UNL     1      -7.912  18.007  67.710  1.00  0.00     0.000 HD 
BRANCH   5   7
HETATM    7  C   UNL     1      -9.997  17.790  68.150  1.00  0.00    -0.342 C  
BRANCH   7   8
HETATM    8  C   UNL     1     -10.426  16.617  67.265  1.00  0.00    -0.313 C  
BRANCH   8   9
HETATM    9  C   UNL     1     -11.648  15.839  67.767  1.00  0.00    -0.097 C  
HETATM   10  C   UNL     1     -11.690  15.645  69.311  1.00  0.00    -0.388 C  
HETATM   11  C   UNL     1     -11.420  14.152  69.621  1.00  0.00    -0.329 C  
HETATM   12  C   UNL     1     -11.559  13.474  68.287  1.00  0.00    -0.381 A  
HETATM   13  C   UNL     1     -11.694  14.431  67.260  1.00  0.00    -0.429 A  
HETATM   14  C   UNL     1     -11.844  13.896  65.979  1.00  0.00    -0.412 A  
HETATM   15  C   UNL     1     -11.801  12.506  65.904  1.00  0.00    -0.430 A  
HETATM   16  O   UNL     1     -11.936  12.063  64.596  1.00  0.00    -0.323 OA 
HETATM   17  C   UNL     1     -11.650  11.582  66.921  1.00  0.00    -0.166 A  
HETATM   18  C   UNL     1     -11.528  12.092  68.189  1.00  0.00    -0.375 A  
HETATM   19  C   UNL     1     -12.081  13.253  63.777  1.00  0.00    -0.482 C  
HETATM   20  C   UNL     1     -12.028  14.505  64.659  1.00  0.00    -0.478 C  
ENDBRANCH   8   9
ENDBRANCH   7   8
ENDBRANCH   5   7
ENDBRANCH   2   3
TORSDOF 4
ENDMDL
MODEL       50
REMARK 921   NORMALIZED FREE ENERGY PREDICTED BY IDOCK:   -5.44 KCAL/MOL
REMARK 922        TOTAL FREE ENERGY PREDICTED BY IDOCK:   -6.92 KCAL/MOL
REMARK 923 INTER-LIGAND FREE ENERGY PREDICTED BY IDOCK:   -6.45 KCAL/MOL
REMARK 924 INTRA-LIGAND FREE ENERGY PREDICTED BY IDOCK:   -0.46 KCAL/MOL
REMARK 927      BINDING AFFINITY PREDICTED BY RF-SCORE:    0.00 PKD
ROOT
HETATM    1  C   UNL     1     -12.005   6.850  70.843  1.00  0.00    -0.430 C  
HETATM    2  C   UNL     1     -11.249   5.983  69.851  1.00  0.00    -0.438 C  
ENDROOT
BRANCH   2   3
HETATM    3  C   UNL     1     -10.947   6.728  68.566  1.00  0.00    -0.192 C  
HETATM    4  O   UNL     1     -11.044   6.229  67.450  1.00  0.00    -0.350 OA 
HETATM    5  N   UNL     1     -10.549   8.030  68.778  1.00  0.00    -0.351 N  
HETATM    6  H   UNL     1     -10.502   8.388  69.731  1.00  0.00     0.000 HD 
BRANCH   5   7
HETATM    7  C   UNL     1     -10.193   8.904  67.675  1.00  0.00    -0.237 C  
BRANCH   7   8
HETATM    8  C   UNL     1     -10.139  10.369  68.114  1.00  0.00    -0.179 C  
BRANCH   8   9
HETATM    9  C   UNL     1     -11.380  11.198  67.761  1.00  0.00    -0.364 C  
HETATM   10  C   UNL     1     -11.144  12.255  66.644  1.00  0.00    -0.344 C  
HETATM   11  C   UNL     1     -11.183  13.663  67.289  1.00  0.00    -0.329 C  
HETATM   12  C   UNL     1     -11.758  13.417  68.656  1.00  0.00    -0.384 A  
HETATM   13  C   UNL     1     -11.870  12.033  68.903  1.00  0.00    -0.356 A  
HETATM   14  C   UNL     1     -12.409  11.703  70.147  1.00  0.00    -0.297 A  
HETATM   15  C   UNL     1     -12.720  12.785  70.969  1.00  0.00    -0.243 A  
HETATM   16  O   UNL     1     -13.229  12.366  72.191  1.00  0.00    -0.491 OA 
HETATM   17  C   UNL     1     -12.587  14.137  70.718  1.00  0.00    -0.432 A  
HETATM   18  C   UNL     1     -12.083  14.477  69.488  1.00  0.00    -0.348 A  
HETATM   19  C   UNL     1     -13.250  10.915  72.145  1.00  0.00    -0.228 C  
HETATM   20  C   UNL     1     -12.713  10.425  70.796  1.00  0.00    -0.460 C  
ENDBRANCH   8   9
ENDBRANCH   7   8
ENDBRANCH   5   7
ENDBRANCH   2   3
TORSDOF 4
ENDMDL
MODEL       51
REMARK 921   NORMALIZED FREE ENERGY PREDICTED BY IDOCK:   -5.43 KCAL/MOL
REMARK 922        TOTAL FREE ENERGY PREDICTED BY IDOCK:   -6.90 KCAL/MOL
REMARK 923 INTER-LIGAND FREE ENERGY PREDICTED BY IDOCK:   -6.62 KCAL/MOL
REMARK 924 INTRA-LIGAND FREE ENERGY PREDICTED BY IDOCK:   -0.28 KCAL/MOL
REMARK 927      BINDING AFFINITY PREDICTED BY RF-SCORE:    0.00 PKD
ROOT
HETATM    1  C   UNL     1     -13.143  15.858  73.106  1.00  0.00    -0.673 C  
HETATM    2  C   UNL     1     -13.021  15.233  71.727  1.00  0.00    -0.475 C  
ENDROOT
BRANCH   2   3
HETATM    3  C   UNL     1     -13.230  13.733  71.768  1.00  0.00    -0.386 C  
HETATM    4  O   UNL     1     -14.078  13.181  72.460  1.00  0.00    -0.672 OA 
HETATM    5  N   UNL     1     -12.364  13.045  70.944  1.00  0.00    -0.400 N  
HETATM    6  H   UNL     1     -11.691  13.566  70.383  1.00  0.00     0.000 HD 
BRANCH   5   7
HETATM    7  C   UNL     1     -12.389  11.597  70.858  1.00  0.00    -0.336 C  
BRANCH   7   8
HETATM    8  C   UNL     1     -12.185  11.117  69.419  1.00  0.00    -0.329 C  
BRANCH   8   9
HETATM    9  C   UNL     1     -10.797  10.537  69.119  1.00  0.00    -0.277 C  
HETATM   10  C   UNL     1     -10.237  10.916  67.718  1.00  0.00    -0.209 C  
HETATM   11  C   UNL     1     -10.247   9.648  66.829  1.00  0.00    -0.308 C  
HETATM   12  C   UNL     1     -10.486   8.528  67.801  1.00  0.00    -0.287 A  
HETATM   13  C   UNL     1     -10.785   9.040  69.081  1.00  0.00    -0.176 A  
HETATM   14  C   UNL     1     -11.010   8.071  70.060  1.00  0.00    -0.202 A  
HETATM   15  C   UNL     1     -10.942   6.751  69.621  1.00  0.00    -0.288 A  
HETATM   16  O   UNL     1     -11.199   5.858  70.652  1.00  0.00    -0.294 OA 
HETATM   17  C   UNL     1     -10.665   6.266  68.357  1.00  0.00    -0.356 A  
HETATM   18  C   UNL     1     -10.415   7.206  67.389  1.00  0.00    -0.354 A  
HETATM   19  C   UNL     1     -11.443   6.662  71.835  1.00  0.00    -0.291 C  
HETATM   20  C   UNL     1     -11.325   8.151  71.489  1.00  0.00    -0.308 C  
ENDBRANCH   8   9
ENDBRANCH   7   8
ENDBRANCH   5   7
ENDBRANCH   2   3
TORSDOF 4
ENDMDL
MODEL       52
REMARK 921   NORMALIZED FREE ENERGY PREDICTED BY IDOCK:   -5.42 KCAL/MOL
REMARK 922        TOTAL FREE ENERGY PREDICTED BY IDOCK:   -6.89 KCAL/MOL
REMARK 923 INTER-LIGAND FREE ENERGY PREDICTED BY IDOCK:   -6.45 KCAL/MOL
REMARK 924 INTRA-LIGAND FREE ENERGY PREDICTED BY IDOCK:   -0.44 KCAL/MOL
REMARK 927      BINDING AFFINITY PREDICTED BY RF-SCORE:    0.00 PKD
ROOT
HETATM    1  C   UNL     1     -11.269   6.339  67.426  1.00  0.00    -0.242 C  
HETATM    2  C   UNL     1     -10.742   5.723  68.710  1.00  0.00    -0.318 C  
ENDROOT
BRANCH   2   3
HETATM    3  C   UNL     1     -10.471   6.772  69.769  1.00  0.00    -0.210 C  
HETATM    4  O   UNL     1      -9.397   6.893  70.350  1.00  0.00    -0.159 OA 
HETATM    5  N   UNL     1     -11.558   7.582  70.018  1.00  0.00    -0.488 N  
HETATM    6  H   UNL     1     -12.418   7.438  69.490  1.00  0.00     0.000 HD 
BRANCH   5   7
HETATM    7  C   UNL     1     -11.508   8.635  71.015  1.00  0.00    -0.278 C  
BRANCH   7   8
HETATM    8  C   UNL     1     -10.900   9.919  70.445  1.00  0.00    -0.380 C  
BRANCH   8   9
HETATM    9  C   UNL     1     -11.766  10.641  69.406  1.00  0.00    -0.344 C  
HETATM   10  C   UNL     1     -11.176  10.629  67.966  1.00  0.00    -0.373 C  
HETATM   11  C   UNL     1     -10.706  12.063  67.620  1.00  0.00    -0.252 C  
HETATM   12  C   UNL     1     -11.320  12.914  68.696  1.00  0.00    -0.327 A  
HETATM   13  C   UNL     1     -11.917  12.104  69.684  1.00  0.00    -0.351 A  
HETATM   14  C   UNL     1     -12.529  12.806  70.724  1.00  0.00    -0.357 A  
HETATM   15  C   UNL     1     -12.426  14.194  70.649  1.00  0.00    -0.362 A  
HETATM   16  O   UNL     1     -13.042  14.809  71.730  1.00  0.00    -0.304 OA 
HETATM   17  C   UNL     1     -11.821  14.972  69.680  1.00  0.00    -0.358 A  
HETATM   18  C   UNL     1     -11.239  14.296  68.637  1.00  0.00    -0.287 A  
HETATM   19  C   UNL     1     -13.580  13.741  72.552  1.00  0.00    -0.575 C  
HETATM   20  C   UNL     1     -13.264  12.381  71.918  1.00  0.00    -0.486 C  
ENDBRANCH   8   9
ENDBRANCH   7   8
ENDBRANCH   5   7
ENDBRANCH   2   3
TORSDOF 4
ENDMDL
MODEL       53
REMARK 921   NORMALIZED FREE ENERGY PREDICTED BY IDOCK:   -5.41 KCAL/MOL
REMARK 922        TOTAL FREE ENERGY PREDICTED BY IDOCK:   -6.88 KCAL/MOL
REMARK 923 INTER-LIGAND FREE ENERGY PREDICTED BY IDOCK:   -6.43 KCAL/MOL
REMARK 924 INTRA-LIGAND FREE ENERGY PREDICTED BY IDOCK:   -0.45 KCAL/MOL
REMARK 927      BINDING AFFINITY PREDICTED BY RF-SCORE:    0.00 PKD
ROOT
HETATM    1  C   UNL     1      -5.750  19.575  64.015  1.00  0.00    -0.322 C  
HETATM    2  C   UNL     1      -6.648  20.480  64.841  1.00  0.00    -0.310 C  
ENDROOT
BRANCH   2   3
HETATM    3  C   UNL     1      -7.371  19.715  65.931  1.00  0.00    -0.308 C  
HETATM    4  O   UNL     1      -8.012  20.250  66.829  1.00  0.00    -0.304 OA 
HETATM    5  N   UNL     1      -7.233  18.348  65.814  1.00  0.00    -0.231 N  
HETATM    6  H   UNL     1      -6.697  17.966  65.035  1.00  0.00     0.000 HD 
BRANCH   5   7
HETATM    7  C   UNL     1      -7.832  17.440  66.774  1.00  0.00    -0.238 C  
BRANCH   7   8
HETATM    8  C   UNL     1      -8.950  16.609  66.139  1.00  0.00    -0.321 C  
BRANCH   8   9
HETATM    9  C   UNL     1     -10.338  16.808  66.759  1.00  0.00    -0.293 C  
HETATM   10  C   UNL     1     -10.354  17.755  67.993  1.00  0.00    -0.395 C  
HETATM   11  C   UNL     1     -10.623  16.903  69.259  1.00  0.00    -0.325 C  
HETATM   12  C   UNL     1     -11.076  15.579  68.712  1.00  0.00    -0.291 A  
HETATM   13  C   UNL     1     -10.918  15.543  67.311  1.00  0.00    -0.303 A  
HETATM   14  C   UNL     1     -11.327  14.353  66.707  1.00  0.00    -0.360 A  
HETATM   15  C   UNL     1     -11.792  13.370  67.579  1.00  0.00    -0.366 A  
HETATM   16  O   UNL     1     -12.155  12.217  66.897  1.00  0.00    -0.600 OA 
HETATM   17  C   UNL     1     -11.923  13.415  68.954  1.00  0.00    -0.362 A  
HETATM   18  C   UNL     1     -11.550  14.589  69.559  1.00  0.00    -0.350 A  
HETATM   19  C   UNL     1     -11.911  12.481  65.491  1.00  0.00    -0.439 C  
HETATM   20  C   UNL     1     -11.358  13.900  65.314  1.00  0.00    -0.316 C  
ENDBRANCH   8   9
ENDBRANCH   7   8
ENDBRANCH   5   7
ENDBRANCH   2   3
TORSDOF 4
ENDMDL
MODEL       54
REMARK 921   NORMALIZED FREE ENERGY PREDICTED BY IDOCK:   -5.40 KCAL/MOL
REMARK 922        TOTAL FREE ENERGY PREDICTED BY IDOCK:   -6.87 KCAL/MOL
REMARK 923 INTER-LIGAND FREE ENERGY PREDICTED BY IDOCK:   -6.28 KCAL/MOL
REMARK 924 INTRA-LIGAND FREE ENERGY PREDICTED BY IDOCK:   -0.59 KCAL/MOL
REMARK 927      BINDING AFFINITY PREDICTED BY RF-SCORE:    0.00 PKD
ROOT
HETATM    1  C   UNL     1     -10.900   6.364  70.252  1.00  0.00    -0.350 C  
HETATM    2  C   UNL     1     -11.352   6.737  71.653  1.00  0.00    -0.305 C  
ENDROOT
BRANCH   2   3
HETATM    3  C   UNL     1     -11.464   8.238  71.830  1.00  0.00    -0.293 C  
HETATM    4  O   UNL     1     -10.498   8.984  71.947  1.00  0.00    -0.343 OA 
HETATM    5  N   UNL     1     -12.768   8.684  71.848  1.00  0.00    -0.344 N  
HETATM    6  H   UNL     1     -13.526   8.012  71.732  1.00  0.00     0.000 HD 
BRANCH   5   7
HETATM    7  C   UNL     1     -13.088  10.087  72.030  1.00  0.00    -0.441 C  
BRANCH   7   8
HETATM    8  C   UNL     1     -13.140  10.829  70.692  1.00  0.00    -0.204 C  
BRANCH   8   9
HETATM    9  C   UNL     1     -11.974  11.792  70.439  1.00  0.00    -0.422 C  
HETATM   10  C   UNL     1     -12.287  13.276  70.785  1.00  0.00    -0.425 C  
HETATM   11  C   UNL     1     -12.387  14.075  69.461  1.00  0.00    -0.275 C  
HETATM   12  C   UNL     1     -11.815  13.140  68.432  1.00  0.00    -0.386 A  
HETATM   13  C   UNL     1     -11.582  11.869  68.996  1.00  0.00    -0.376 A  
HETATM   14  C   UNL     1     -11.036  10.931  68.117  1.00  0.00    -0.337 A  
HETATM   15  C   UNL     1     -10.840  11.380  66.813  1.00  0.00    -0.286 A  
HETATM   16  O   UNL     1     -10.316  10.380  66.005  1.00  0.00    -0.241 OA 
HETATM   17  C   UNL     1     -11.091  12.626  66.272  1.00  0.00    -0.330 A  
HETATM   18  C   UNL     1     -11.603  13.566  67.131  1.00  0.00    -0.393 A  
HETATM   19  C   UNL     1     -10.161   9.212  66.853  1.00  0.00    -0.266 C  
HETATM   20  C   UNL     1     -10.629   9.533  68.277  1.00  0.00    -0.260 C  
ENDBRANCH   8   9
ENDBRANCH   7   8
ENDBRANCH   5   7
ENDBRANCH   2   3
TORSDOF 4
ENDMDL
MODEL       55
REMARK 921   NORMALIZED FREE ENERGY PREDICTED BY IDOCK:   -5.40 KCAL/MOL
REMARK 922        TOTAL FREE ENERGY PREDICTED BY IDOCK:   -6.86 KCAL/MOL
REMARK 923 INTER-LIGAND FREE ENERGY PREDICTED BY IDOCK:   -6.43 KCAL/MOL
REMARK 924 INTRA-LIGAND FREE ENERGY PREDICTED BY IDOCK:   -0.43 KCAL/MOL
REMARK 927      BINDING AFFINITY PREDICTED BY RF-SCORE:    0.00 PKD
ROOT
HETATM    1  C   UNL     1      -5.902  19.334  67.661  1.00  0.00    -0.198 C  
HETATM    2  C   UNL     1      -7.069  19.617  68.592  1.00  0.00    -0.369 C  
ENDROOT
BRANCH   2   3
HETATM    3  C   UNL     1      -8.402  19.402  67.906  1.00  0.00    -0.308 C  
HETATM    4  O   UNL     1      -8.690  19.874  66.811  1.00  0.00    -0.314 OA 
HETATM    5  N   UNL     1      -9.267  18.619  68.640  1.00  0.00    -0.339 N  
HETATM    6  H   UNL     1      -8.961  18.246  69.538  1.00  0.00     0.000 HD 
BRANCH   5   7
HETATM    7  C   UNL     1     -10.604  18.314  68.165  1.00  0.00    -0.282 C  
BRANCH   7   8
HETATM    8  C   UNL     1     -10.850  16.805  68.111  1.00  0.00    -0.353 C  
BRANCH   8   9
HETATM    9  C   UNL     1     -10.200  16.084  66.924  1.00  0.00    -0.280 C  
HETATM   10  C   UNL     1     -10.217  16.897  65.598  1.00  0.00    -0.227 C  
HETATM   11  C   UNL     1     -11.218  16.225  64.626  1.00  0.00    -0.264 C  
HETATM   12  C   UNL     1     -11.497  14.892  65.260  1.00  0.00    -0.336 A  
HETATM   13  C   UNL     1     -10.914  14.824  66.542  1.00  0.00    -0.325 A  
HETATM   14  C   UNL     1     -11.108  13.613  67.209  1.00  0.00    -0.309 A  
HETATM   15  C   UNL     1     -11.875  12.671  66.526  1.00  0.00    -0.396 A  
HETATM   16  O   UNL     1     -12.033  11.509  67.269  1.00  0.00    -0.605 OA 
HETATM   17  C   UNL     1     -12.454  12.761  65.275  1.00  0.00    -0.528 A  
HETATM   18  C   UNL     1     -12.250  13.936  64.596  1.00  0.00    -0.449 A  
HETATM   19  C   UNL     1     -11.314  11.720  68.511  1.00  0.00    -0.273 C  
HETATM   20  C   UNL     1     -10.675  13.114  68.517  1.00  0.00    -0.277 C  
ENDBRANCH   8   9
ENDBRANCH   7   8
ENDBRANCH   5   7
ENDBRANCH   2   3
TORSDOF 4
ENDMDL
MODEL       56
REMARK 921   NORMALIZED FREE ENERGY PREDICTED BY IDOCK:   -5.37 KCAL/MOL
REMARK 922        TOTAL FREE ENERGY PREDICTED BY IDOCK:   -6.83 KCAL/MOL
REMARK 923 INTER-LIGAND FREE ENERGY PREDICTED BY IDOCK:   -6.44 KCAL/MOL
REMARK 924 INTRA-LIGAND FREE ENERGY PREDICTED BY IDOCK:   -0.39 KCAL/MOL
REMARK 927      BINDING AFFINITY PREDICTED BY RF-SCORE:    0.00 PKD
ROOT
HETATM    1  C   UNL     1     -10.121   7.306  68.235  1.00  0.00    -0.193 C  
HETATM    2  C   UNL     1     -10.291   7.924  69.612  1.00  0.00    -0.216 C  
ENDROOT
BRANCH   2   3
HETATM    3  C   UNL     1     -10.390   9.435  69.544  1.00  0.00    -0.214 C  
HETATM    4  O   UNL     1      -9.568  10.195  70.044  1.00  0.00    -0.200 OA 
HETATM    5  N   UNL     1     -11.505   9.873  68.861  1.00  0.00    -0.484 N  
HETATM    6  H   UNL     1     -12.143   9.188  68.457  1.00  0.00     0.000 HD 
BRANCH   5   7
HETATM    7  C   UNL     1     -11.792  11.286  68.705  1.00  0.00    -0.300 C  
BRANCH   7   8
HETATM    8  C   UNL     1     -11.262  11.823  67.373  1.00  0.00    -0.357 C  
BRANCH   8   9
HETATM    9  C   UNL     1     -12.158  12.864  66.691  1.00  0.00    -0.360 C  
HETATM   10  C   UNL     1     -12.362  12.628  65.167  1.00  0.00    -0.547 C  
HETATM   11  C   UNL     1     -11.595  13.731  64.396  1.00  0.00    -0.418 C  
HETATM   12  C   UNL     1     -11.257  14.742  65.454  1.00  0.00    -0.347 A  
HETATM   13  C   UNL     1     -11.584  14.247  66.733  1.00  0.00    -0.407 A  
HETATM   14  C   UNL     1     -11.318  15.124  67.786  1.00  0.00    -0.335 A  
HETATM   15  C   UNL     1     -10.737  16.336  67.420  1.00  0.00    -0.287 A  
HETATM   16  O   UNL     1     -10.488  17.135  68.528  1.00  0.00    -0.336 OA 
HETATM   17  C   UNL     1     -10.405  16.800  66.161  1.00  0.00    -0.338 A  
HETATM   18  C   UNL     1     -10.686  15.959  65.113  1.00  0.00    -0.449 A  
HETATM   19  C   UNL     1     -10.946  16.383  69.682  1.00  0.00    -0.329 C  
HETATM   20  C   UNL     1     -11.512  15.031  69.235  1.00  0.00    -0.326 C  
ENDBRANCH   8   9
ENDBRANCH   7   8
ENDBRANCH   5   7
ENDBRANCH   2   3
TORSDOF 4
ENDMDL
MODEL       57
REMARK 921   NORMALIZED FREE ENERGY PREDICTED BY IDOCK:   -5.34 KCAL/MOL
REMARK 922        TOTAL FREE ENERGY PREDICTED BY IDOCK:   -6.80 KCAL/MOL
REMARK 923 INTER-LIGAND FREE ENERGY PREDICTED BY IDOCK:   -6.31 KCAL/MOL
REMARK 924 INTRA-LIGAND FREE ENERGY PREDICTED BY IDOCK:   -0.49 KCAL/MOL
REMARK 927      BINDING AFFINITY PREDICTED BY RF-SCORE:    0.00 PKD
ROOT
HETATM    1  C   UNL     1     -11.854  15.490  72.411  1.00  0.00    -0.570 C  
HETATM    2  C   UNL     1     -12.158  14.652  71.182  1.00  0.00    -0.403 C  
ENDROOT
BRANCH   2   3
HETATM    3  C   UNL     1     -11.453  15.182  69.950  1.00  0.00    -0.288 C  
HETATM    4  O   UNL     1     -11.893  16.086  69.248  1.00  0.00    -0.345 OA 
HETATM    5  N   UNL     1     -10.259  14.541  69.694  1.00  0.00    -0.431 N  
HETATM    6  H   UNL     1      -9.943  13.806  70.326  1.00  0.00     0.000 HD 
BRANCH   5   7
HETATM    7  C   UNL     1      -9.443  14.888  68.545  1.00  0.00    -0.210 C  
BRANCH   7   8
HETATM    8  C   UNL     1      -8.979  13.641  67.789  1.00  0.00    -0.196 C  
BRANCH   8   9
HETATM    9  C   UNL     1     -10.042  12.548  67.627  1.00  0.00    -0.217 C  
HETATM   10  C   UNL     1      -9.521  11.107  67.899  1.00  0.00    -0.178 C  
HETATM   11  C   UNL     1      -9.463  10.347  66.551  1.00  0.00    -0.204 C  
HETATM   12  C   UNL     1     -10.243  11.221  65.610  1.00  0.00    -0.304 A  
HETATM   13  C   UNL     1     -10.567  12.446  66.229  1.00  0.00    -0.277 A  
HETATM   14  C   UNL     1     -11.308  13.323  65.435  1.00  0.00    -0.317 A  
HETATM   15  C   UNL     1     -11.582  12.875  64.145  1.00  0.00    -0.398 A  
HETATM   16  O   UNL     1     -12.301  13.816  63.421  1.00  0.00    -0.750 OA 
HETATM   17  C   UNL     1     -11.241  11.676  63.547  1.00  0.00    -0.462 A  
HETATM   18  C   UNL     1     -10.536  10.792  64.325  1.00  0.00    -0.330 A  
HETATM   19  C   UNL     1     -12.506  14.944  64.312  1.00  0.00    -0.157 C  
HETATM   20  C   UNL     1     -11.860  14.659  65.674  1.00  0.00    -0.273 C  
ENDBRANCH   8   9
ENDBRANCH   7   8
ENDBRANCH   5   7
ENDBRANCH   2   3
TORSDOF 4
ENDMDL
MODEL       58
REMARK 921   NORMALIZED FREE ENERGY PREDICTED BY IDOCK:   -5.34 KCAL/MOL
REMARK 922        TOTAL FREE ENERGY PREDICTED BY IDOCK:   -6.80 KCAL/MOL
REMARK 923 INTER-LIGAND FREE ENERGY PREDICTED BY IDOCK:   -6.52 KCAL/MOL
REMARK 924 INTRA-LIGAND FREE ENERGY PREDICTED BY IDOCK:   -0.27 KCAL/MOL
REMARK 927      BINDING AFFINITY PREDICTED BY RF-SCORE:    0.00 PKD
ROOT
HETATM    1  C   UNL     1     -10.115   5.589  67.174  1.00  0.00    -0.220 C  
HETATM    2  C   UNL     1     -11.073   6.767  67.157  1.00  0.00    -0.404 C  
ENDROOT
BRANCH   2   3
HETATM    3  C   UNL     1     -10.344   8.083  66.973  1.00  0.00    -0.344 C  
HETATM    4  O   UNL     1      -9.278   8.194  66.378  1.00  0.00    -0.176 OA 
HETATM    5  N   UNL     1     -11.003   9.150  67.546  1.00  0.00    -0.449 N  
HETATM    6  H   UNL     1     -11.894   8.991  68.015  1.00  0.00     0.000 HD 
BRANCH   5   7
HETATM    7  C   UNL     1     -10.457  10.493  67.499  1.00  0.00    -0.239 C  
BRANCH   7   8
HETATM    8  C   UNL     1     -11.124  11.407  68.530  1.00  0.00    -0.287 C  
BRANCH   8   9
HETATM    9  C   UNL     1     -12.031  12.494  67.942  1.00  0.00    -0.283 C  
HETATM   10  C   UNL     1     -11.874  12.694  66.407  1.00  0.00    -0.466 C  
HETATM   11  C   UNL     1     -11.175  14.054  66.162  1.00  0.00    -0.318 C  
HETATM   12  C   UNL     1     -11.244  14.742  67.496  1.00  0.00    -0.339 A  
HETATM   13  C   UNL     1     -11.733  13.859  68.481  1.00  0.00    -0.390 A  
HETATM   14  C   UNL     1     -11.847  14.413  69.757  1.00  0.00    -0.375 A  
HETATM   15  C   UNL     1     -11.428  15.737  69.873  1.00  0.00    -0.346 A  
HETATM   16  O   UNL     1     -11.556  16.198  71.176  1.00  0.00    -0.419 OA 
HETATM   17  C   UNL     1     -10.934  16.584  68.899  1.00  0.00    -0.325 A  
HETATM   18  C   UNL     1     -10.841  16.061  67.634  1.00  0.00    -0.311 A  
HETATM   19  C   UNL     1     -12.099  15.095  71.946  1.00  0.00    -0.378 C  
HETATM   20  C   UNL     1     -12.314  13.878  71.039  1.00  0.00    -0.453 C  
ENDBRANCH   8   9
ENDBRANCH   7   8
ENDBRANCH   5   7
ENDBRANCH   2   3
TORSDOF 4
ENDMDL
MODEL       59
REMARK 921   NORMALIZED FREE ENERGY PREDICTED BY IDOCK:   -5.32 KCAL/MOL
REMARK 922        TOTAL FREE ENERGY PREDICTED BY IDOCK:   -6.77 KCAL/MOL
REMARK 923 INTER-LIGAND FREE ENERGY PREDICTED BY IDOCK:   -6.03 KCAL/MOL
REMARK 924 INTRA-LIGAND FREE ENERGY PREDICTED BY IDOCK:   -0.74 KCAL/MOL
REMARK 927      BINDING AFFINITY PREDICTED BY RF-SCORE:    0.00 PKD
ROOT
HETATM    1  C   UNL     1      -7.498  14.609  67.434  1.00  0.00    -0.212 C  
HETATM    2  C   UNL     1      -7.207  13.164  67.799  1.00  0.00    -0.147 C  
ENDROOT
BRANCH   2   3
HETATM    3  C   UNL     1      -8.335  12.240  67.386  1.00  0.00    -0.177 C  
HETATM    4  O   UNL     1      -8.644  11.224  67.999  1.00  0.00    -0.129 OA 
HETATM    5  N   UNL     1      -8.984  12.657  66.243  1.00  0.00    -0.430 N  
HETATM    6  H   UNL     1      -8.687  13.520  65.789  1.00  0.00     0.000 HD 
BRANCH   5   7
HETATM    7  C   UNL     1     -10.079  11.897  65.671  1.00  0.00    -0.243 C  
BRANCH   7   8
HETATM    8  C   UNL     1     -11.374  12.094  66.464  1.00  0.00    -0.405 C  
BRANCH   8   9
HETATM    9  C   UNL     1     -12.114  13.406  66.182  1.00  0.00    -0.481 C  
HETATM   10  C   UNL     1     -11.943  13.934  64.728  1.00  0.00    -0.426 C  
HETATM   11  C   UNL     1     -11.050  15.199  64.771  1.00  0.00    -0.395 C  
HETATM   12  C   UNL     1     -11.004  15.559  66.229  1.00  0.00    -0.242 A  
HETATM   13  C   UNL     1     -11.610  14.551  67.006  1.00  0.00    -0.402 A  
HETATM   14  C   UNL     1     -11.628  14.802  68.378  1.00  0.00    -0.350 A  
HETATM   15  C   UNL     1     -11.015  15.988  68.776  1.00  0.00    -0.320 A  
HETATM   16  O   UNL     1     -11.061  16.147  70.155  1.00  0.00    -0.336 OA 
HETATM   17  C   UNL     1     -10.409  16.959  68.002  1.00  0.00    -0.334 A  
HETATM   18  C   UNL     1     -10.407  16.738  66.647  1.00  0.00    -0.297 A  
HETATM   19  C   UNL     1     -11.756  14.984  70.674  1.00  0.00    -0.308 C  
HETATM   20  C   UNL     1     -12.158  14.055  69.523  1.00  0.00    -0.397 C  
ENDBRANCH   8   9
ENDBRANCH   7   8
ENDBRANCH   5   7
ENDBRANCH   2   3
TORSDOF 4
ENDMDL
MODEL       60
REMARK 921   NORMALIZED FREE ENERGY PREDICTED BY IDOCK:   -5.29 KCAL/MOL
REMARK 922        TOTAL FREE ENERGY PREDICTED BY IDOCK:   -6.73 KCAL/MOL
REMARK 923 INTER-LIGAND FREE ENERGY PREDICTED BY IDOCK:   -6.11 KCAL/MOL
REMARK 924 INTRA-LIGAND FREE ENERGY PREDICTED BY IDOCK:   -0.61 KCAL/MOL
REMARK 927      BINDING AFFINITY PREDICTED BY RF-SCORE:    0.00 PKD
ROOT
HETATM    1  C   UNL     1     -12.211  14.524  64.465  1.00  0.00    -0.483 C  
HETATM    2  C   UNL     1     -10.949  15.216  64.948  1.00  0.00    -0.434 C  
ENDROOT
BRANCH   2   3
HETATM    3  C   UNL     1     -10.879  15.270  66.461  1.00  0.00    -0.311 C  
HETATM    4  O   UNL     1     -10.068  15.948  67.083  1.00  0.00    -0.253 OA 
HETATM    5  N   UNL     1     -11.824  14.475  67.074  1.00  0.00    -0.401 N  
HETATM    6  H   UNL     1     -12.479  13.946  66.498  1.00  0.00     0.000 HD 
BRANCH   5   7
HETATM    7  C   UNL     1     -11.908  14.371  68.519  1.00  0.00    -0.334 C  
BRANCH   7   8
HETATM    8  C   UNL     1     -11.147  13.149  69.039  1.00  0.00    -0.282 C  
BRANCH   8   9
HETATM    9  C   UNL     1     -11.927  11.829  68.985  1.00  0.00    -0.341 C  
HETATM   10  C   UNL     1     -12.240  11.217  70.380  1.00  0.00    -0.457 C  
HETATM   11  C   UNL     1     -11.371   9.948  70.562  1.00  0.00    -0.399 C  
HETATM   12  C   UNL     1     -10.843   9.672  69.183  1.00  0.00    -0.212 A  
HETATM   13  C   UNL     1     -11.168  10.729  68.309  1.00  0.00    -0.358 A  
HETATM   14  C   UNL     1     -10.730  10.557  66.995  1.00  0.00    -0.310 A  
HETATM   15  C   UNL     1     -10.008   9.390  66.754  1.00  0.00    -0.239 A  
HETATM   16  O   UNL     1      -9.594   9.312  65.432  1.00  0.00    -0.259 OA 
HETATM   17  C   UNL     1      -9.682   8.370  67.628  1.00  0.00    -0.201 A  
HETATM   18  C   UNL     1     -10.130   8.513  68.918  1.00  0.00    -0.213 A  
HETATM   19  C   UNL     1     -10.090  10.510  64.779  1.00  0.00    -0.336 C  
HETATM   20  C   UNL     1     -10.859  11.374  65.785  1.00  0.00    -0.290 C  
ENDBRANCH   8   9
ENDBRANCH   7   8
ENDBRANCH   5   7
ENDBRANCH   2   3
TORSDOF 4
ENDMDL
MODEL       61
REMARK 921   NORMALIZED FREE ENERGY PREDICTED BY IDOCK:   -5.27 KCAL/MOL
REMARK 922        TOTAL FREE ENERGY PREDICTED BY IDOCK:   -6.70 KCAL/MOL
REMARK 923 INTER-LIGAND FREE ENERGY PREDICTED BY IDOCK:   -6.51 KCAL/MOL
REMARK 924 INTRA-LIGAND FREE ENERGY PREDICTED BY IDOCK:   -0.19 KCAL/MOL
REMARK 927      BINDING AFFINITY PREDICTED BY RF-SCORE:    0.00 PKD
ROOT
HETATM    1  C   UNL     1     -12.708  12.041  63.363  1.00  0.00    -0.527 C  
HETATM    2  C   UNL     1     -11.999  13.238  63.973  1.00  0.00    -0.525 C  
ENDROOT
BRANCH   2   3
HETATM    3  C   UNL     1     -12.199  13.307  65.474  1.00  0.00    -0.457 C  
HETATM    4  O   UNL     1     -13.022  14.035  66.019  1.00  0.00    -0.381 OA 
HETATM    5  N   UNL     1     -11.357  12.467  66.170  1.00  0.00    -0.333 N  
HETATM    6  H   UNL     1     -10.704  11.877  65.655  1.00  0.00     0.000 HD 
BRANCH   5   7
HETATM    7  C   UNL     1     -11.377  12.403  67.620  1.00  0.00    -0.312 C  
BRANCH   7   8
HETATM    8  C   UNL     1     -11.661  10.983  68.115  1.00  0.00    -0.345 C  
BRANCH   8   9
HETATM    9  C   UNL     1     -10.421  10.101  68.301  1.00  0.00    -0.244 C  
HETATM   10  C   UNL     1      -9.781   9.613  66.969  1.00  0.00    -0.232 C  
HETATM   11  C   UNL     1     -10.045   8.094  66.829  1.00  0.00    -0.365 C  
HETATM   12  C   UNL     1     -10.520   7.682  68.194  1.00  0.00    -0.233 A  
HETATM   13  C   UNL     1     -10.718   8.816  69.009  1.00  0.00    -0.134 A  
HETATM   14  C   UNL     1     -11.148   8.534  70.307  1.00  0.00    -0.222 A  
HETATM   15  C   UNL     1     -11.351   7.184  70.589  1.00  0.00    -0.292 A  
HETATM   16  O   UNL     1     -11.797   6.998  71.890  1.00  0.00    -0.281 OA 
HETATM   17  C   UNL     1     -11.169   6.086  69.771  1.00  0.00    -0.440 A  
HETATM   18  C   UNL     1     -10.720   6.346  68.500  1.00  0.00    -0.347 A  
HETATM   19  C   UNL     1     -11.880   8.320  72.484  1.00  0.00    -0.373 C  
HETATM   20  C   UNL     1     -11.453   9.381  71.463  1.00  0.00    -0.467 C  
ENDBRANCH   8   9
ENDBRANCH   7   8
ENDBRANCH   5   7
ENDBRANCH   2   3
TORSDOF 4
ENDMDL
MODEL       62
REMARK 921   NORMALIZED FREE ENERGY PREDICTED BY IDOCK:   -5.25 KCAL/MOL
REMARK 922        TOTAL FREE ENERGY PREDICTED BY IDOCK:   -6.68 KCAL/MOL
REMARK 923 INTER-LIGAND FREE ENERGY PREDICTED BY IDOCK:   -6.29 KCAL/MOL
REMARK 924 INTRA-LIGAND FREE ENERGY PREDICTED BY IDOCK:   -0.39 KCAL/MOL
REMARK 927      BINDING AFFINITY PREDICTED BY RF-SCORE:    0.00 PKD
ROOT
HETATM    1  C   UNL     1      -8.931   7.989  69.865  1.00  0.00    -0.145 C  
HETATM    2  C   UNL     1      -9.022   9.484  70.116  1.00  0.00    -0.269 C  
ENDROOT
BRANCH   2   3
HETATM    3  C   UNL     1     -10.450   9.984  70.040  1.00  0.00    -0.287 C  
HETATM    4  O   UNL     1     -11.424   9.315  70.369  1.00  0.00    -0.263 OA 
HETATM    5  N   UNL     1     -10.548  11.272  69.559  1.00  0.00    -0.439 N  
HETATM    6  H   UNL     1      -9.697  11.778  69.316  1.00  0.00     0.000 HD 
BRANCH   5   7
HETATM    7  C   UNL     1     -11.833  11.924  69.389  1.00  0.00    -0.327 C  
BRANCH   7   8
HETATM    8  C   UNL     1     -11.672  13.425  69.140  1.00  0.00    -0.375 C  
BRANCH   8   9
HETATM    9  C   UNL     1     -10.463  13.814  68.281  1.00  0.00    -0.251 C  
HETATM   10  C   UNL     1      -9.613  14.978  68.867  1.00  0.00    -0.221 C  
HETATM   11  C   UNL     1      -9.828  16.231  67.982  1.00  0.00    -0.236 C  
HETATM   12  C   UNL     1     -10.505  15.694  66.753  1.00  0.00    -0.297 A  
HETATM   13  C   UNL     1     -10.848  14.338  66.932  1.00  0.00    -0.298 A  
HETATM   14  C   UNL     1     -11.472  13.743  65.834  1.00  0.00    -0.330 A  
HETATM   15  C   UNL     1     -11.696  14.585  64.747  1.00  0.00    -0.422 A  
HETATM   16  O   UNL     1     -12.338  13.919  63.712  1.00  0.00    -0.669 OA 
HETATM   17  C   UNL     1     -11.369  15.919  64.595  1.00  0.00    -0.328 A  
HETATM   18  C   UNL     1     -10.730  16.510  65.656  1.00  0.00    -0.257 A  
HETATM   19  C   UNL     1     -12.535  12.555  64.167  1.00  0.00    -0.430 C  
HETATM   20  C   UNL     1     -11.969  12.388  65.582  1.00  0.00    -0.449 C  
ENDBRANCH   8   9
ENDBRANCH   7   8
ENDBRANCH   5   7
ENDBRANCH   2   3
TORSDOF 4
ENDMDL
MODEL       63
REMARK 921   NORMALIZED FREE ENERGY PREDICTED BY IDOCK:   -5.21 KCAL/MOL
REMARK 922        TOTAL FREE ENERGY PREDICTED BY IDOCK:   -6.63 KCAL/MOL
REMARK 923 INTER-LIGAND FREE ENERGY PREDICTED BY IDOCK:   -6.33 KCAL/MOL
REMARK 924 INTRA-LIGAND FREE ENERGY PREDICTED BY IDOCK:   -0.30 KCAL/MOL
REMARK 927      BINDING AFFINITY PREDICTED BY RF-SCORE:    0.00 PKD
ROOT
HETATM    1  C   UNL     1     -11.611   6.580  70.489  1.00  0.00    -0.455 C  
HETATM    2  C   UNL     1     -10.726   6.206  69.313  1.00  0.00    -0.383 C  
ENDROOT
BRANCH   2   3
HETATM    3  C   UNL     1     -10.876   7.179  68.162  1.00  0.00    -0.109 C  
HETATM    4  O   UNL     1     -11.140   6.840  67.013  1.00  0.00    -0.403 OA 
HETATM    5  N   UNL     1     -10.683   8.492  68.535  1.00  0.00    -0.417 N  
HETATM    6  H   UNL     1     -10.480   8.707  69.511  1.00  0.00     0.000 HD 
BRANCH   5   7
HETATM    7  C   UNL     1     -10.762   9.574  67.572  1.00  0.00    -0.245 C  
BRANCH   7   8
HETATM    8  C   UNL     1      -9.424   9.794  66.864  1.00  0.00    -0.202 C  
BRANCH   8   9
HETATM    9  C   UNL     1      -9.019  11.262  66.683  1.00  0.00    -0.180 C  
HETATM   10  C   UNL     1      -8.434  11.924  67.964  1.00  0.00    -0.162 C  
HETATM   11  C   UNL     1      -9.467  12.947  68.499  1.00  0.00    -0.098 C  
HETATM   12  C   UNL     1     -10.446  13.096  67.369  1.00  0.00    -0.243 A  
HETATM   13  C   UNL     1     -10.178  12.152  66.356  1.00  0.00    -0.245 A  
HETATM   14  C   UNL     1     -11.029  12.221  65.252  1.00  0.00    -0.347 A  
HETATM   15  C   UNL     1     -12.034  13.183  65.333  1.00  0.00    -0.406 A  
HETATM   16  O   UNL     1     -12.845  13.167  64.206  1.00  0.00    -0.658 OA 
HETATM   17  C   UNL     1     -12.294  14.090  66.342  1.00  0.00    -0.468 A  
HETATM   18  C   UNL     1     -11.448  14.052  67.422  1.00  0.00    -0.373 A  
HETATM   19  C   UNL     1     -12.319  12.126  63.342  1.00  0.00    -0.538 C  
HETATM   20  C   UNL     1     -11.101  11.466  63.999  1.00  0.00    -0.400 C  
ENDBRANCH   8   9
ENDBRANCH   7   8
ENDBRANCH   5   7
ENDBRANCH   2   3
TORSDOF 4
ENDMDL
MODEL       64
REMARK 921   NORMALIZED FREE ENERGY PREDICTED BY IDOCK:   -5.21 KCAL/MOL
REMARK 922        TOTAL FREE ENERGY PREDICTED BY IDOCK:   -6.63 KCAL/MOL
REMARK 923 INTER-LIGAND FREE ENERGY PREDICTED BY IDOCK:   -6.10 KCAL/MOL
REMARK 924 INTRA-LIGAND FREE ENERGY PREDICTED BY IDOCK:   -0.53 KCAL/MOL
REMARK 927      BINDING AFFINITY PREDICTED BY RF-SCORE:    0.00 PKD
ROOT
HETATM    1  C   UNL     1      -7.533  15.861  69.407  1.00  0.00    -0.213 C  
HETATM    2  C   UNL     1      -8.720  15.838  68.460  1.00  0.00    -0.184 C  
ENDROOT
BRANCH   2   3
HETATM    3  C   UNL     1      -8.878  14.491  67.785  1.00  0.00    -0.183 C  
HETATM    4  O   UNL     1      -9.045  14.348  66.579  1.00  0.00    -0.257 OA 
HETATM    5  N   UNL     1      -8.817  13.434  68.668  1.00  0.00    -0.366 N  
HETATM    6  H   UNL     1      -8.662  13.621  69.659  1.00  0.00     0.000 HD 
BRANCH   5   7
HETATM    7  C   UNL     1      -8.969  12.062  68.222  1.00  0.00    -0.186 C  
BRANCH   7   8
HETATM    8  C   UNL     1     -10.305  11.468  68.675  1.00  0.00    -0.226 C  
BRANCH   8   9
HETATM    9  C   UNL     1     -10.992  10.560  67.649  1.00  0.00    -0.375 C  
HETATM   10  C   UNL     1     -10.353   9.147  67.519  1.00  0.00    -0.324 C  
HETATM   11  C   UNL     1      -9.633   9.062  66.150  1.00  0.00    -0.341 C  
HETATM   12  C   UNL     1     -10.139  10.262  65.401  1.00  0.00    -0.354 A  
HETATM   13  C   UNL     1     -10.905  11.087  66.250  1.00  0.00    -0.234 A  
HETATM   14  C   UNL     1     -11.432  12.226  65.639  1.00  0.00    -0.416 A  
HETATM   15  C   UNL     1     -11.094  12.394  64.298  1.00  0.00    -0.349 A  
HETATM   16  O   UNL     1     -11.642  13.559  63.777  1.00  0.00    -0.357 OA 
HETATM   17  C   UNL     1     -10.326  11.583  63.484  1.00  0.00    -0.484 A  
HETATM   18  C   UNL     1      -9.823  10.446  64.064  1.00  0.00    -0.355 A  
HETATM   19  C   UNL     1     -12.387  14.176  64.860  1.00  0.00    -0.430 C  
HETATM   20  C   UNL     1     -12.278  13.318  66.126  1.00  0.00    -0.466 C  
ENDBRANCH   8   9
ENDBRANCH   7   8
ENDBRANCH   5   7
ENDBRANCH   2   3
TORSDOF 4
ENDMDL
MODEL       65
REMARK 921   NORMALIZED FREE ENERGY PREDICTED BY IDOCK:   -5.21 KCAL/MOL
REMARK 922        TOTAL FREE ENERGY PREDICTED BY IDOCK:   -6.63 KCAL/MOL
REMARK 923 INTER-LIGAND FREE ENERGY PREDICTED BY IDOCK:   -5.93 KCAL/MOL
REMARK 924 INTRA-LIGAND FREE ENERGY PREDICTED BY IDOCK:   -0.69 KCAL/MOL
REMARK 927      BINDING AFFINITY PREDICTED BY RF-SCORE:    0.00 PKD
ROOT
HETATM    1  C   UNL     1     -11.468  14.131  69.158  1.00  0.00    -0.338 C  
HETATM    2  C   UNL     1     -11.978  13.319  67.980  1.00  0.00    -0.351 C  
ENDROOT
BRANCH   2   3
HETATM    3  C   UNL     1     -11.950  14.115  66.691  1.00  0.00    -0.444 C  
HETATM    4  O   UNL     1     -12.799  14.019  65.811  1.00  0.00    -0.516 OA 
HETATM    5  N   UNL     1     -10.867  14.964  66.604  1.00  0.00    -0.314 N  
HETATM    6  H   UNL     1     -10.204  15.006  67.378  1.00  0.00     0.000 HD 
BRANCH   5   7
HETATM    7  C   UNL     1     -10.647  15.797  65.437  1.00  0.00    -0.421 C  
BRANCH   7   8
HETATM    8  C   UNL     1     -10.286  17.231  65.831  1.00  0.00    -0.287 C  
BRANCH   8   9
HETATM    9  C   UNL     1     -10.173  17.480  67.339  1.00  0.00    -0.337 C  
HETATM   10  C   UNL     1     -10.881  18.778  67.825  1.00  0.00    -0.333 C  
HETATM   11  C   UNL     1      -9.793  19.804  68.229  1.00  0.00    -0.537 C  
HETATM   12  C   UNL     1      -8.532  18.990  68.287  1.00  0.00    -0.366 A  
HETATM   13  C   UNL     1      -8.762  17.689  67.793  1.00  0.00    -0.232 A  
HETATM   14  C   UNL     1      -7.648  16.848  67.820  1.00  0.00    -0.180 A  
HETATM   15  C   UNL     1      -6.473  17.429  68.293  1.00  0.00    -0.172 A  
HETATM   16  O   UNL     1      -5.414  16.532  68.264  1.00  0.00    -0.103 OA 
HETATM   17  C   UNL     1      -6.260  18.714  68.756  1.00  0.00    -0.232 A  
HETATM   18  C   UNL     1      -7.353  19.543  68.762  1.00  0.00    -0.393 A  
HETATM   19  C   UNL     1      -5.950  15.288  67.741  1.00  0.00    -0.137 C  
HETATM   20  C   UNL     1      -7.443  15.451  67.431  1.00  0.00    -0.239 C  
ENDBRANCH   8   9
ENDBRANCH   7   8
ENDBRANCH   5   7
ENDBRANCH   2   3
TORSDOF 4
ENDMDL
MODEL       66
REMARK 921   NORMALIZED FREE ENERGY PREDICTED BY IDOCK:   -5.17 KCAL/MOL
REMARK 922        TOTAL FREE ENERGY PREDICTED BY IDOCK:   -6.58 KCAL/MOL
REMARK 923 INTER-LIGAND FREE ENERGY PREDICTED BY IDOCK:   -6.23 KCAL/MOL
REMARK 924 INTRA-LIGAND FREE ENERGY PREDICTED BY IDOCK:   -0.35 KCAL/MOL
REMARK 927      BINDING AFFINITY PREDICTED BY RF-SCORE:    0.00 PKD
ROOT
HETATM    1  C   UNL     1     -10.762  15.181  67.065  1.00  0.00    -0.307 C  
HETATM    2  C   UNL     1     -12.069  14.454  66.800  1.00  0.00    -0.393 C  
ENDROOT
BRANCH   2   3
HETATM    3  C   UNL     1     -11.838  13.070  66.228  1.00  0.00    -0.408 C  
HETATM    4  O   UNL     1     -12.309  12.686  65.163  1.00  0.00    -0.472 OA 
HETATM    5  N   UNL     1     -11.043  12.279  67.030  1.00  0.00    -0.271 N  
HETATM    6  H   UNL     1     -10.672  12.665  67.898  1.00  0.00     0.000 HD 
BRANCH   5   7
HETATM    7  C   UNL     1     -10.723  10.911  66.669  1.00  0.00    -0.230 C  
BRANCH   7   8
HETATM    8  C   UNL     1     -10.793   9.979  67.881  1.00  0.00    -0.323 C  
BRANCH   8   9
HETATM    9  C   UNL     1     -10.075  10.490  69.135  1.00  0.00    -0.240 C  
HETATM   10  C   UNL     1      -8.529  10.314  69.100  1.00  0.00    -0.164 C  
HETATM   11  C   UNL     1      -8.141   9.210  70.115  1.00  0.00    -0.145 C  
HETATM   12  C   UNL     1      -9.388   9.016  70.931  1.00  0.00    -0.326 A  
HETATM   13  C   UNL     1     -10.460   9.745  70.375  1.00  0.00    -0.358 A  
HETATM   14  C   UNL     1     -11.664   9.638  71.073  1.00  0.00    -0.433 A  
HETATM   15  C   UNL     1     -11.636   8.803  72.188  1.00  0.00    -0.364 A  
HETATM   16  O   UNL     1     -12.876   8.739  72.807  1.00  0.00    -0.340 OA 
HETATM   17  C   UNL     1     -10.579   8.080  72.710  1.00  0.00    -0.420 A  
HETATM   18  C   UNL     1      -9.382   8.196  72.049  1.00  0.00    -0.266 A  
HETATM   19  C   UNL     1     -13.759   9.598  72.039  1.00  0.00    -0.316 C  
HETATM   20  C   UNL     1     -12.991  10.224  70.869  1.00  0.00    -0.456 C  
ENDBRANCH   8   9
ENDBRANCH   7   8
ENDBRANCH   5   7
ENDBRANCH   2   3
TORSDOF 4
ENDMDL
MODEL       67
REMARK 921   NORMALIZED FREE ENERGY PREDICTED BY IDOCK:   -5.15 KCAL/MOL
REMARK 922        TOTAL FREE ENERGY PREDICTED BY IDOCK:   -6.55 KCAL/MOL
REMARK 923 INTER-LIGAND FREE ENERGY PREDICTED BY IDOCK:   -6.01 KCAL/MOL
REMARK 924 INTRA-LIGAND FREE ENERGY PREDICTED BY IDOCK:   -0.54 KCAL/MOL
REMARK 927      BINDING AFFINITY PREDICTED BY RF-SCORE:    0.00 PKD
ROOT
HETATM    1  C   UNL     1     -10.982   6.725  66.880  1.00  0.00    -0.370 C  
HETATM    2  C   UNL     1      -9.478   6.513  66.926  1.00  0.00    -0.178 C  
ENDROOT
BRANCH   2   3
HETATM    3  C   UNL     1      -8.771   7.243  65.802  1.00  0.00    -0.109 C  
HETATM    4  O   UNL     1      -7.717   6.865  65.301  1.00  0.00    -0.095 OA 
HETATM    5  N   UNL     1      -9.433   8.382  65.397  1.00  0.00    -0.385 N  
HETATM    6  H   UNL     1     -10.313   8.633  65.846  1.00  0.00     0.000 HD 
BRANCH   5   7
HETATM    7  C   UNL     1      -8.906   9.234  64.347  1.00  0.00    -0.159 C  
BRANCH   7   8
HETATM    8  C   UNL     1      -9.278  10.701  64.573  1.00  0.00    -0.264 C  
BRANCH   8   9
HETATM    9  C   UNL     1     -10.784  10.986  64.631  1.00  0.00    -0.318 C  
HETATM   10  C   UNL     1     -11.301  11.908  63.489  1.00  0.00    -0.516 C  
HETATM   11  C   UNL     1     -11.673  13.281  64.101  1.00  0.00    -0.470 C  
HETATM   12  C   UNL     1     -11.683  13.025  65.582  1.00  0.00    -0.418 A  
HETATM   13  C   UNL     1     -11.190  11.734  65.863  1.00  0.00    -0.345 A  
HETATM   14  C   UNL     1     -11.173  11.397  67.217  1.00  0.00    -0.370 A  
HETATM   15  C   UNL     1     -11.609  12.395  68.086  1.00  0.00    -0.341 A  
HETATM   16  O   UNL     1     -11.539  11.982  69.410  1.00  0.00    -0.288 OA 
HETATM   17  C   UNL     1     -12.073  13.663  67.795  1.00  0.00    -0.325 A  
HETATM   18  C   UNL     1     -12.121  13.999  66.465  1.00  0.00    -0.488 A  
HETATM   19  C   UNL     1     -11.027  10.624  69.386  1.00  0.00    -0.255 C  
HETATM   20  C   UNL     1     -10.770  10.187  67.939  1.00  0.00    -0.317 C  
ENDBRANCH   8   9
ENDBRANCH   7   8
ENDBRANCH   5   7
ENDBRANCH   2   3
TORSDOF 4
ENDMDL
MODEL       68
REMARK 921   NORMALIZED FREE ENERGY PREDICTED BY IDOCK:   -5.10 KCAL/MOL
REMARK 922        TOTAL FREE ENERGY PREDICTED BY IDOCK:   -6.49 KCAL/MOL
REMARK 923 INTER-LIGAND FREE ENERGY PREDICTED BY IDOCK:   -5.85 KCAL/MOL
REMARK 924 INTRA-LIGAND FREE ENERGY PREDICTED BY IDOCK:   -0.64 KCAL/MOL
REMARK 927      BINDING AFFINITY PREDICTED BY RF-SCORE:    0.00 PKD
ROOT
HETATM    1  C   UNL     1      -9.583  15.627  69.210  1.00  0.00    -0.268 C  
HETATM    2  C   UNL     1     -10.668  16.370  68.450  1.00  0.00    -0.327 C  
ENDROOT
BRANCH   2   3
HETATM    3  C   UNL     1     -10.976  15.713  67.120  1.00  0.00    -0.270 C  
HETATM    4  O   UNL     1     -10.449  16.038  66.061  1.00  0.00    -0.320 OA 
HETATM    5  N   UNL     1     -11.914  14.708  67.217  1.00  0.00    -0.497 N  
HETATM    6  H   UNL     1     -12.304  14.477  68.131  1.00  0.00     0.000 HD 
BRANCH   5   7
HETATM    7  C   UNL     1     -12.361  13.970  66.050  1.00  0.00    -0.473 C  
BRANCH   7   8
HETATM    8  C   UNL     1     -11.978  12.491  66.140  1.00  0.00    -0.432 C  
BRANCH   8   9
HETATM    9  C   UNL     1     -10.624  12.211  66.804  1.00  0.00    -0.256 C  
HETATM   10  C   UNL     1      -9.563  11.591  65.850  1.00  0.00    -0.254 C  
HETATM   11  C   UNL     1      -9.341  10.115  66.262  1.00  0.00    -0.214 C  
HETATM   12  C   UNL     1     -10.002  10.012  67.607  1.00  0.00    -0.214 A  
HETATM   13  C   UNL     1     -10.710  11.195  67.901  1.00  0.00    -0.261 A  
HETATM   14  C   UNL     1     -11.350  11.201  69.141  1.00  0.00    -0.340 A  
HETATM   15  C   UNL     1     -11.225  10.028  69.883  1.00  0.00    -0.275 A  
HETATM   16  O   UNL     1     -11.908  10.114  71.089  1.00  0.00    -0.345 OA 
HETATM   17  C   UNL     1     -10.541   8.869  69.572  1.00  0.00    -0.233 A  
HETATM   18  C   UNL     1      -9.884   8.859  68.367  1.00  0.00    -0.191 A  
HETATM   19  C   UNL     1     -12.508  11.435  71.123  1.00  0.00    -0.360 C  
HETATM   20  C   UNL     1     -12.160  12.201  69.841  1.00  0.00    -0.324 C  
ENDBRANCH   8   9
ENDBRANCH   7   8
ENDBRANCH   5   7
ENDBRANCH   2   3
TORSDOF 4
ENDMDL
MODEL       69
REMARK 921   NORMALIZED FREE ENERGY PREDICTED BY IDOCK:   -5.09 KCAL/MOL
REMARK 922        TOTAL FREE ENERGY PREDICTED BY IDOCK:   -6.48 KCAL/MOL
REMARK 923 INTER-LIGAND FREE ENERGY PREDICTED BY IDOCK:   -6.10 KCAL/MOL
REMARK 924 INTRA-LIGAND FREE ENERGY PREDICTED BY IDOCK:   -0.38 KCAL/MOL
REMARK 927      BINDING AFFINITY PREDICTED BY RF-SCORE:    0.00 PKD
ROOT
HETATM    1  C   UNL     1     -10.763  19.647  67.270  1.00  0.00    -0.583 C  
HETATM    2  C   UNL     1      -9.261  19.619  67.044  1.00  0.00    -0.425 C  
ENDROOT
BRANCH   2   3
HETATM    3  C   UNL     1      -8.767  18.225  66.711  1.00  0.00    -0.272 C  
HETATM    4  O   UNL     1      -7.583  17.904  66.711  1.00  0.00    -0.196 OA 
HETATM    5  N   UNL     1      -9.786  17.350  66.404  1.00  0.00    -0.294 N  
HETATM    6  H   UNL     1     -10.751  17.678  66.436  1.00  0.00     0.000 HD 
BRANCH   5   7
HETATM    7  C   UNL     1      -9.518  15.972  66.036  1.00  0.00    -0.349 C  
BRANCH   7   8
HETATM    8  C   UNL     1      -9.730  15.024  67.218  1.00  0.00    -0.220 C  
BRANCH   8   9
HETATM    9  C   UNL     1     -11.171  14.533  67.406  1.00  0.00    -0.337 C  
HETATM   10  C   UNL     1     -11.948  15.260  68.542  1.00  0.00    -0.228 C  
HETATM   11  C   UNL     1     -12.142  14.266  69.713  1.00  0.00    -0.401 C  
HETATM   12  C   UNL     1     -11.785  12.933  69.119  1.00  0.00    -0.376 A  
HETATM   13  C   UNL     1     -11.250  13.098  67.824  1.00  0.00    -0.308 A  
HETATM   14  C   UNL     1     -10.899  11.910  67.181  1.00  0.00    -0.301 A  
HETATM   15  C   UNL     1     -11.095  10.748  67.925  1.00  0.00    -0.308 A  
HETATM   16  O   UNL     1     -10.701   9.619  67.219  1.00  0.00    -0.263 OA 
HETATM   17  C   UNL     1     -11.604  10.605  69.202  1.00  0.00    -0.342 A  
HETATM   18  C   UNL     1     -11.979  11.764  69.836  1.00  0.00    -0.405 A  
HETATM   19  C   UNL     1     -10.225  10.092  65.932  1.00  0.00    -0.205 C  
HETATM   20  C   UNL     1     -10.341  11.618  65.858  1.00  0.00    -0.289 C  
ENDBRANCH   8   9
ENDBRANCH   7   8
ENDBRANCH   5   7
ENDBRANCH   2   3
TORSDOF 4
ENDMDL
MODEL       70
REMARK 921   NORMALIZED FREE ENERGY PREDICTED BY IDOCK:   -5.09 KCAL/MOL
REMARK 922        TOTAL FREE ENERGY PREDICTED BY IDOCK:   -6.48 KCAL/MOL
REMARK 923 INTER-LIGAND FREE ENERGY PREDICTED BY IDOCK:   -5.98 KCAL/MOL
REMARK 924 INTRA-LIGAND FREE ENERGY PREDICTED BY IDOCK:   -0.51 KCAL/MOL
REMARK 927      BINDING AFFINITY PREDICTED BY RF-SCORE:    0.00 PKD
ROOT
HETATM    1  C   UNL     1      -6.991  13.979  67.463  1.00  0.00    -0.167 C  
HETATM    2  C   UNL     1      -7.391  13.056  68.601  1.00  0.00    -0.097 C  
ENDROOT
BRANCH   2   3
HETATM    3  C   UNL     1      -8.391  12.010  68.153  1.00  0.00    -0.165 C  
HETATM    4  O   UNL     1      -8.150  10.808  68.117  1.00  0.00    -0.109 OA 
HETATM    5  N   UNL     1      -9.607  12.547  67.785  1.00  0.00    -0.197 N  
HETATM    6  H   UNL     1      -9.746  13.554  67.852  1.00  0.00     0.000 HD 
BRANCH   5   7
HETATM    7  C   UNL     1     -10.691  11.711  67.305  1.00  0.00    -0.238 C  
BRANCH   7   8
HETATM    8  C   UNL     1     -11.846  11.659  68.307  1.00  0.00    -0.335 C  
BRANCH   8   9
HETATM    9  C   UNL     1     -11.424  11.545  69.777  1.00  0.00    -0.362 C  
HETATM   10  C   UNL     1     -11.923  10.252  70.484  1.00  0.00    -0.415 C  
HETATM   11  C   UNL     1     -13.022  10.645  71.502  1.00  0.00    -0.566 C  
HETATM   12  C   UNL     1     -12.902  12.140  71.603  1.00  0.00    -0.390 A  
HETATM   13  C   UNL     1     -11.999  12.628  70.636  1.00  0.00    -0.196 A  
HETATM   14  C   UNL     1     -11.810  14.011  70.660  1.00  0.00    -0.310 A  
HETATM   15  C   UNL     1     -12.566  14.701  71.605  1.00  0.00    -0.337 A  
HETATM   16  O   UNL     1     -12.332  16.068  71.544  1.00  0.00    -0.442 OA 
HETATM   17  C   UNL     1     -13.462  14.208  72.534  1.00  0.00    -0.634 A  
HETATM   18  C   UNL     1     -13.638  12.847  72.541  1.00  0.00    -0.460 A  
HETATM   19  C   UNL     1     -11.354  16.266  70.489  1.00  0.00    -0.299 C  
HETATM   20  C   UNL     1     -10.972  14.917  69.870  1.00  0.00    -0.257 C  
ENDBRANCH   8   9
ENDBRANCH   7   8
ENDBRANCH   5   7
ENDBRANCH   2   3
TORSDOF 4
ENDMDL
MODEL       71
REMARK 921   NORMALIZED FREE ENERGY PREDICTED BY IDOCK:   -5.08 KCAL/MOL
REMARK 922        TOTAL FREE ENERGY PREDICTED BY IDOCK:   -6.47 KCAL/MOL
REMARK 923 INTER-LIGAND FREE ENERGY PREDICTED BY IDOCK:   -6.21 KCAL/MOL
REMARK 924 INTRA-LIGAND FREE ENERGY PREDICTED BY IDOCK:   -0.27 KCAL/MOL
REMARK 927      BINDING AFFINITY PREDICTED BY RF-SCORE:    0.00 PKD
ROOT
HETATM    1  C   UNL     1     -12.659  11.871  63.388  1.00  0.00    -0.555 C  
HETATM    2  C   UNL     1     -11.366  12.640  63.600  1.00  0.00    -0.544 C  
ENDROOT
BRANCH   2   3
HETATM    3  C   UNL     1     -11.037  12.794  65.071  1.00  0.00    -0.285 C  
HETATM    4  O   UNL     1      -9.894  12.799  65.517  1.00  0.00    -0.242 OA 
HETATM    5  N   UNL     1     -12.156  12.927  65.864  1.00  0.00    -0.445 N  
HETATM    6  H   UNL     1     -13.078  12.929  65.428  1.00  0.00     0.000 HD 
BRANCH   5   7
HETATM    7  C   UNL     1     -12.054  13.064  67.305  1.00  0.00    -0.245 C  
BRANCH   7   8
HETATM    8  C   UNL     1     -11.857  11.708  67.986  1.00  0.00    -0.295 C  
BRANCH   8   9
HETATM    9  C   UNL     1     -10.737  11.664  69.032  1.00  0.00    -0.217 C  
HETATM   10  C   UNL     1      -9.309  11.520  68.431  1.00  0.00    -0.194 C  
HETATM   11  C   UNL     1      -8.785  10.099  68.756  1.00  0.00    -0.138 C  
HETATM   12  C   UNL     1      -9.747   9.587  69.790  1.00  0.00    -0.234 A  
HETATM   13  C   UNL     1     -10.830  10.477  69.940  1.00  0.00    -0.334 A  
HETATM   14  C   UNL     1     -11.775  10.093  70.893  1.00  0.00    -0.468 A  
HETATM   15  C   UNL     1     -11.527   8.876  71.524  1.00  0.00    -0.321 A  
HETATM   16  O   UNL     1     -12.524   8.563  72.437  1.00  0.00    -0.373 OA 
HETATM   17  C   UNL     1     -10.467   8.005  71.352  1.00  0.00    -0.257 A  
HETATM   18  C   UNL     1      -9.516   8.383  70.437  1.00  0.00    -0.179 A  
HETATM   19  C   UNL     1     -13.474   9.660  72.392  1.00  0.00    -0.333 C  
HETATM   20  C   UNL     1     -13.014  10.710  71.374  1.00  0.00    -0.545 C  
ENDBRANCH   8   9
ENDBRANCH   7   8
ENDBRANCH   5   7
ENDBRANCH   2   3
TORSDOF 4
ENDMDL
MODEL       72
REMARK 921   NORMALIZED FREE ENERGY PREDICTED BY IDOCK:   -5.07 KCAL/MOL
REMARK 922        TOTAL FREE ENERGY PREDICTED BY IDOCK:   -6.46 KCAL/MOL
REMARK 923 INTER-LIGAND FREE ENERGY PREDICTED BY IDOCK:   -5.57 KCAL/MOL
REMARK 924 INTRA-LIGAND FREE ENERGY PREDICTED BY IDOCK:   -0.89 KCAL/MOL
REMARK 927      BINDING AFFINITY PREDICTED BY RF-SCORE:    0.00 PKD
ROOT
HETATM    1  C   UNL     1      -7.037  14.808  68.427  1.00  0.00    -0.114 C  
HETATM    2  C   UNL     1      -6.950  13.356  68.866  1.00  0.00    -0.102 C  
ENDROOT
BRANCH   2   3
HETATM    3  C   UNL     1      -7.917  12.476  68.098  1.00  0.00    -0.157 C  
HETATM    4  O   UNL     1      -7.844  12.276  66.890  1.00  0.00    -0.138 OA 
HETATM    5  N   UNL     1      -8.894  11.922  68.897  1.00  0.00    -0.376 N  
HETATM    6  H   UNL     1      -8.890  12.118  69.897  1.00  0.00     0.000 HD 
BRANCH   5   7
HETATM    7  C   UNL     1      -9.928  11.066  68.347  1.00  0.00    -0.186 C  
BRANCH   7   8
HETATM    8  C   UNL     1     -11.302  11.398  68.935  1.00  0.00    -0.334 C  
BRANCH   8   9
HETATM    9  C   UNL     1     -12.075  12.498  68.197  1.00  0.00    -0.124 C  
HETATM   10  C   UNL     1     -11.684  12.655  66.699  1.00  0.00    -0.464 C  
HETATM   11  C   UNL     1     -10.910  13.986  66.534  1.00  0.00    -0.300 C  
HETATM   12  C   UNL     1     -11.154  14.708  67.828  1.00  0.00    -0.306 A  
HETATM   13  C   UNL     1     -11.813  13.866  68.747  1.00  0.00    -0.396 A  
HETATM   14  C   UNL     1     -12.097  14.454  69.980  1.00  0.00    -0.401 A  
HETATM   15  C   UNL     1     -11.655  15.767  70.131  1.00  0.00    -0.357 A  
HETATM   16  O   UNL     1     -11.960  16.264  71.391  1.00  0.00    -0.429 OA 
HETATM   17  C   UNL     1     -10.993  16.574  69.226  1.00  0.00    -0.302 A  
HETATM   18  C   UNL     1     -10.731  16.017  67.999  1.00  0.00    -0.309 A  
HETATM   19  C   UNL     1     -12.649  15.197  72.093  1.00  0.00    -0.332 C  
HETATM   20  C   UNL     1     -12.767  13.966  71.188  1.00  0.00    -0.441 C  
ENDBRANCH   8   9
ENDBRANCH   7   8
ENDBRANCH   5   7
ENDBRANCH   2   3
TORSDOF 4
ENDMDL
MODEL       73
REMARK 921   NORMALIZED FREE ENERGY PREDICTED BY IDOCK:   -5.07 KCAL/MOL
REMARK 922        TOTAL FREE ENERGY PREDICTED BY IDOCK:   -6.46 KCAL/MOL
REMARK 923 INTER-LIGAND FREE ENERGY PREDICTED BY IDOCK:   -5.63 KCAL/MOL
REMARK 924 INTRA-LIGAND FREE ENERGY PREDICTED BY IDOCK:   -0.82 KCAL/MOL
REMARK 927      BINDING AFFINITY PREDICTED BY RF-SCORE:    0.00 PKD
ROOT
HETATM    1  C   UNL     1     -10.812  15.408  64.984  1.00  0.00    -0.462 C  
HETATM    2  C   UNL     1     -12.168  14.754  64.789  1.00  0.00    -0.356 C  
ENDROOT
BRANCH   2   3
HETATM    3  C   UNL     1     -12.069  13.242  64.773  1.00  0.00    -0.409 C  
HETATM    4  O   UNL     1     -13.034  12.495  64.888  1.00  0.00    -0.821 OA 
HETATM    5  N   UNL     1     -10.777  12.787  64.618  1.00  0.00    -0.318 N  
HETATM    6  H   UNL     1     -10.020  13.463  64.514  1.00  0.00     0.000 HD 
BRANCH   5   7
HETATM    7  C   UNL     1     -10.468  11.370  64.600  1.00  0.00    -0.315 C  
BRANCH   7   8
HETATM    8  C   UNL     1      -9.103  11.085  65.229  1.00  0.00    -0.207 C  
BRANCH   8   9
HETATM    9  C   UNL     1      -9.128  10.809  66.738  1.00  0.00    -0.167 C  
HETATM   10  C   UNL     1      -9.981   9.573  67.145  1.00  0.00    -0.261 C  
HETATM   11  C   UNL     1     -11.254  10.076  67.870  1.00  0.00    -0.169 C  
HETATM   12  C   UNL     1     -10.957  11.521  68.157  1.00  0.00    -0.279 A  
HETATM   13  C   UNL     1      -9.761  11.915  67.524  1.00  0.00    -0.185 A  
HETATM   14  C   UNL     1      -9.392  13.243  67.744  1.00  0.00    -0.209 A  
HETATM   15  C   UNL     1     -10.277  13.987  68.522  1.00  0.00    -0.237 A  
HETATM   16  O   UNL     1      -9.845  15.297  68.672  1.00  0.00    -0.199 OA 
HETATM   17  C   UNL     1     -11.457  13.589  69.122  1.00  0.00    -0.345 A  
HETATM   18  C   UNL     1     -11.818  12.278  68.936  1.00  0.00    -0.355 A  
HETATM   19  C   UNL     1      -8.594  15.398  67.943  1.00  0.00    -0.155 C  
HETATM   20  C   UNL     1      -8.248  14.047  67.306  1.00  0.00    -0.187 C  
ENDBRANCH   8   9
ENDBRANCH   7   8
ENDBRANCH   5   7
ENDBRANCH   2   3
TORSDOF 4
ENDMDL
MODEL       74
REMARK 921   NORMALIZED FREE ENERGY PREDICTED BY IDOCK:   -5.06 KCAL/MOL
REMARK 922        TOTAL FREE ENERGY PREDICTED BY IDOCK:   -6.45 KCAL/MOL
REMARK 923 INTER-LIGAND FREE ENERGY PREDICTED BY IDOCK:   -5.66 KCAL/MOL
REMARK 924 INTRA-LIGAND FREE ENERGY PREDICTED BY IDOCK:   -0.79 KCAL/MOL
REMARK 927      BINDING AFFINITY PREDICTED BY RF-SCORE:    0.00 PKD
ROOT
HETATM    1  C   UNL     1      -9.029  16.564  66.033  1.00  0.00    -0.276 C  
HETATM    2  C   UNL     1      -8.294  16.015  67.243  1.00  0.00    -0.205 C  
ENDROOT
BRANCH   2   3
HETATM    3  C   UNL     1      -8.589  14.544  67.462  1.00  0.00    -0.189 C  
HETATM    4  O   UNL     1      -8.674  14.024  68.570  1.00  0.00    -0.181 OA 
HETATM    5  N   UNL     1      -8.751  13.845  66.286  1.00  0.00    -0.364 N  
HETATM    6  H   UNL     1      -8.682  14.341  65.398  1.00  0.00     0.000 HD 
BRANCH   5   7
HETATM    7  C   UNL     1      -9.018  12.419  66.281  1.00  0.00    -0.037 C  
BRANCH   7   8
HETATM    8  C   UNL     1     -10.130  12.059  65.293  1.00  0.00    -0.289 C  
BRANCH   8   9
HETATM    9  C   UNL     1     -11.556  12.275  65.814  1.00  0.00    -0.443 C  
HETATM   10  C   UNL     1     -12.164  13.660  65.448  1.00  0.00    -0.474 C  
HETATM   11  C   UNL     1     -12.256  14.509  66.740  1.00  0.00    -0.232 C  
HETATM   12  C   UNL     1     -12.023  13.515  67.842  1.00  0.00    -0.372 A  
HETATM   13  C   UNL     1     -11.640  12.267  67.309  1.00  0.00    -0.427 A  
HETATM   14  C   UNL     1     -11.414  11.270  68.258  1.00  0.00    -0.378 A  
HETATM   15  C   UNL     1     -11.564  11.665  69.586  1.00  0.00    -0.330 A  
HETATM   16  O   UNL     1     -11.300  10.619  70.461  1.00  0.00    -0.314 OA 
HETATM   17  C   UNL     1     -11.923  12.899  70.094  1.00  0.00    -0.373 A  
HETATM   18  C   UNL     1     -12.175  13.882  69.170  1.00  0.00    -0.305 A  
HETATM   19  C   UNL     1     -10.963   9.474  69.635  1.00  0.00    -0.212 C  
HETATM   20  C   UNL     1     -11.028   9.860  68.153  1.00  0.00    -0.261 C  
ENDBRANCH   8   9
ENDBRANCH   7   8
ENDBRANCH   5   7
ENDBRANCH   2   3
TORSDOF 4
ENDMDL
MODEL       75
REMARK 921   NORMALIZED FREE ENERGY PREDICTED BY IDOCK:   -4.99 KCAL/MOL
REMARK 922        TOTAL FREE ENERGY PREDICTED BY IDOCK:   -6.36 KCAL/MOL
REMARK 923 INTER-LIGAND FREE ENERGY PREDICTED BY IDOCK:   -5.87 KCAL/MOL
REMARK 924 INTRA-LIGAND FREE ENERGY PREDICTED BY IDOCK:   -0.50 KCAL/MOL
REMARK 927      BINDING AFFINITY PREDICTED BY RF-SCORE:    0.00 PKD
ROOT
HETATM    1  C   UNL     1     -10.872  11.879  63.581  1.00  0.00    -0.510 C  
HETATM    2  C   UNL     1     -12.154  12.684  63.456  1.00  0.00    -0.648 C  
ENDROOT
BRANCH   2   3
HETATM    3  C   UNL     1     -12.030  14.047  64.106  1.00  0.00    -0.408 C  
HETATM    4  O   UNL     1     -12.750  15.001  63.831  1.00  0.00    -0.775 OA 
HETATM    5  N   UNL     1     -11.020  14.110  65.041  1.00  0.00    -0.362 N  
HETATM    6  H   UNL     1     -10.466  13.276  65.233  1.00  0.00     0.000 HD 
BRANCH   5   7
HETATM    7  C   UNL     1     -10.725  15.336  65.759  1.00  0.00    -0.348 C  
BRANCH   7   8
HETATM    8  C   UNL     1     -11.182  15.257  67.217  1.00  0.00    -0.306 C  
BRANCH   8   9
HETATM    9  C   UNL     1     -10.079  14.914  68.226  1.00  0.00    -0.221 C  
HETATM   10  C   UNL     1      -8.706  15.577  67.917  1.00  0.00    -0.163 C  
HETATM   11  C   UNL     1      -7.725  14.474  67.449  1.00  0.00    -0.215 C  
HETATM   12  C   UNL     1      -8.426  13.193  67.807  1.00  0.00    -0.185 A  
HETATM   13  C   UNL     1      -9.739  13.456  68.247  1.00  0.00    -0.226 A  
HETATM   14  C   UNL     1     -10.469  12.325  68.618  1.00  0.00    -0.228 A  
HETATM   15  C   UNL     1      -9.805  11.109  68.462  1.00  0.00    -0.198 A  
HETATM   16  O   UNL     1     -10.609  10.040  68.832  1.00  0.00    -0.200 OA 
HETATM   17  C   UNL     1      -8.522  10.868  68.010  1.00  0.00    -0.130 A  
HETATM   18  C   UNL     1      -7.783  11.973  67.668  1.00  0.00    -0.144 A  
HETATM   19  C   UNL     1     -11.873  10.612  69.260  1.00  0.00    -0.237 C  
HETATM   20  C   UNL     1     -11.826  12.139  69.137  1.00  0.00    -0.361 C  
ENDBRANCH   8   9
ENDBRANCH   7   8
ENDBRANCH   5   7
ENDBRANCH   2   3
TORSDOF 4
ENDMDL
MODEL       76
REMARK 921   NORMALIZED FREE ENERGY PREDICTED BY IDOCK:   -4.98 KCAL/MOL
REMARK 922        TOTAL FREE ENERGY PREDICTED BY IDOCK:   -6.34 KCAL/MOL
REMARK 923 INTER-LIGAND FREE ENERGY PREDICTED BY IDOCK:   -6.09 KCAL/MOL
REMARK 924 INTRA-LIGAND FREE ENERGY PREDICTED BY IDOCK:   -0.25 KCAL/MOL
REMARK 927      BINDING AFFINITY PREDICTED BY RF-SCORE:    0.00 PKD
ROOT
HETATM    1  C   UNL     1     -11.941  13.252  63.749  1.00  0.00    -0.551 C  
HETATM    2  C   UNL     1     -11.299  11.876  63.734  1.00  0.00    -0.532 C  
ENDROOT
BRANCH   2   3
HETATM    3  C   UNL     1     -10.541  11.594  65.016  1.00  0.00    -0.289 C  
HETATM    4  O   UNL     1     -10.142  12.468  65.778  1.00  0.00    -0.256 OA 
HETATM    5  N   UNL     1     -10.341  10.249  65.240  1.00  0.00    -0.232 N  
HETATM    6  H   UNL     1     -10.711   9.572  64.573  1.00  0.00     0.000 HD 
BRANCH   5   7
HETATM    7  C   UNL     1      -9.616   9.773  66.403  1.00  0.00    -0.200 C  
BRANCH   7   8
HETATM    8  C   UNL     1     -10.516   9.711  67.640  1.00  0.00    -0.317 C  
BRANCH   8   9
HETATM    9  C   UNL     1      -9.842   9.170  68.906  1.00  0.00    -0.179 C  
HETATM   10  C   UNL     1      -9.012   7.873  68.681  1.00  0.00    -0.134 C  
HETATM   11  C   UNL     1      -9.757   6.694  69.354  1.00  0.00    -0.153 C  
HETATM   12  C   UNL     1     -10.792   7.365  70.213  1.00  0.00    -0.260 A  
HETATM   13  C   UNL     1     -10.822   8.751  69.957  1.00  0.00    -0.231 A  
HETATM   14  C   UNL     1     -11.746   9.466  70.720  1.00  0.00    -0.349 A  
HETATM   15  C   UNL     1     -12.522   8.702  71.589  1.00  0.00    -0.335 A  
HETATM   16  O   UNL     1     -13.426   9.488  72.290  1.00  0.00    -0.440 OA 
HETATM   17  C   UNL     1     -12.492   7.339  71.815  1.00  0.00    -0.378 A  
HETATM   18  C   UNL     1     -11.569   6.626  71.091  1.00  0.00    -0.384 A  
HETATM   19  C   UNL     1     -13.210  10.852  71.843  1.00  0.00    -0.403 C  
HETATM   20  C   UNL     1     -12.093  10.888  70.793  1.00  0.00    -0.469 C  
ENDBRANCH   8   9
ENDBRANCH   7   8
ENDBRANCH   5   7
ENDBRANCH   2   3
TORSDOF 4
ENDMDL
MODEL       77
REMARK 921   NORMALIZED FREE ENERGY PREDICTED BY IDOCK:   -4.97 KCAL/MOL
REMARK 922        TOTAL FREE ENERGY PREDICTED BY IDOCK:   -6.34 KCAL/MOL
REMARK 923 INTER-LIGAND FREE ENERGY PREDICTED BY IDOCK:   -5.83 KCAL/MOL
REMARK 924 INTRA-LIGAND FREE ENERGY PREDICTED BY IDOCK:   -0.50 KCAL/MOL
REMARK 927      BINDING AFFINITY PREDICTED BY RF-SCORE:    0.00 PKD
ROOT
HETATM    1  C   UNL     1     -10.689   5.997  67.272  1.00  0.00    -0.400 C  
HETATM    2  C   UNL     1      -9.321   6.585  66.969  1.00  0.00    -0.155 C  
ENDROOT
BRANCH   2   3
HETATM    3  C   UNL     1      -9.136   7.943  67.614  1.00  0.00    -0.133 C  
HETATM    4  O   UNL     1      -8.047   8.494  67.743  1.00  0.00    -0.113 OA 
HETATM    5  N   UNL     1     -10.319   8.502  68.048  1.00  0.00    -0.233 N  
HETATM    6  H   UNL     1     -11.192   7.997  67.898  1.00  0.00     0.000 HD 
BRANCH   5   7
HETATM    7  C   UNL     1     -10.351   9.791  68.713  1.00  0.00    -0.208 C  
BRANCH   7   8
HETATM    8  C   UNL     1     -11.383  10.725  68.077  1.00  0.00    -0.378 C  
BRANCH   8   9
HETATM    9  C   UNL     1     -10.811  12.026  67.500  1.00  0.00    -0.284 C  
HETATM   10  C   UNL     1     -11.563  13.310  67.954  1.00  0.00    -0.370 C  
HETATM   11  C   UNL     1     -12.343  13.873  66.741  1.00  0.00    -0.370 C  
HETATM   12  C   UNL     1     -11.776  13.124  65.568  1.00  0.00    -0.393 A  
HETATM   13  C   UNL     1     -10.914  12.098  66.008  1.00  0.00    -0.332 A  
HETATM   14  C   UNL     1     -10.325  11.352  64.986  1.00  0.00    -0.342 A  
HETATM   15  C   UNL     1     -10.704  11.706  63.693  1.00  0.00    -0.435 A  
HETATM   16  O   UNL     1     -10.089  10.901  62.744  1.00  0.00    -0.224 OA 
HETATM   17  C   UNL     1     -11.565  12.705  63.279  1.00  0.00    -0.419 A  
HETATM   18  C   UNL     1     -12.131  13.465  64.272  1.00  0.00    -0.479 A  
HETATM   19  C   UNL     1      -9.255   9.970  63.481  1.00  0.00    -0.277 C  
HETATM   20  C   UNL     1      -9.378  10.234  64.986  1.00  0.00    -0.290 C  
ENDBRANCH   8   9
ENDBRANCH   7   8
ENDBRANCH   5   7
ENDBRANCH   2   3
TORSDOF 4
ENDMDL
MODEL       78
REMARK 921   NORMALIZED FREE ENERGY PREDICTED BY IDOCK:   -4.96 KCAL/MOL
REMARK 922        TOTAL FREE ENERGY PREDICTED BY IDOCK:   -6.33 KCAL/MOL
REMARK 923 INTER-LIGAND FREE ENERGY PREDICTED BY IDOCK:   -5.96 KCAL/MOL
REMARK 924 INTRA-LIGAND FREE ENERGY PREDICTED BY IDOCK:   -0.37 KCAL/MOL
REMARK 927      BINDING AFFINITY PREDICTED BY RF-SCORE:    0.00 PKD
ROOT
HETATM    1  C   UNL     1     -13.144  11.604  71.844  1.00  0.00    -0.490 C  
HETATM    2  C   UNL     1     -12.952  10.124  71.564  1.00  0.00    -0.547 C  
ENDROOT
BRANCH   2   3
HETATM    3  C   UNL     1     -11.587   9.835  70.972  1.00  0.00    -0.376 C  
HETATM    4  O   UNL     1     -10.607   9.521  71.640  1.00  0.00    -0.291 OA 
HETATM    5  N   UNL     1     -11.554   9.962  69.600  1.00  0.00    -0.443 N  
HETATM    6  H   UNL     1     -12.409  10.213  69.103  1.00  0.00     0.000 HD 
BRANCH   5   7
HETATM    7  C   UNL     1     -10.333   9.749  68.846  1.00  0.00    -0.210 C  
BRANCH   7   8
HETATM    8  C   UNL     1     -10.617   9.588  67.351  1.00  0.00    -0.337 C  
BRANCH   8   9
HETATM    9  C   UNL     1      -9.630  10.305  66.423  1.00  0.00    -0.233 C  
HETATM   10  C   UNL     1      -8.133  10.055  66.767  1.00  0.00    -0.118 C  
HETATM   11  C   UNL     1      -7.540  11.363  67.345  1.00  0.00    -0.124 C  
HETATM   12  C   UNL     1      -8.575  12.403  67.020  1.00  0.00    -0.191 A  
HETATM   13  C   UNL     1      -9.736  11.797  66.497  1.00  0.00    -0.224 A  
HETATM   14  C   UNL     1     -10.754  12.687  66.150  1.00  0.00    -0.293 A  
HETATM   15  C   UNL     1     -10.486  14.030  66.406  1.00  0.00    -0.284 A  
HETATM   16  O   UNL     1     -11.557  14.839  66.052  1.00  0.00    -0.349 OA 
HETATM   17  C   UNL     1      -9.348  14.606  66.937  1.00  0.00    -0.258 A  
HETATM   18  C   UNL     1      -8.328  13.746  67.258  1.00  0.00    -0.186 A  
HETATM   19  C   UNL     1     -12.580  13.952  65.528  1.00  0.00    -0.526 C  
HETATM   20  C   UNL     1     -12.087  12.501  65.571  1.00  0.00    -0.481 C  
ENDBRANCH   8   9
ENDBRANCH   7   8
ENDBRANCH   5   7
ENDBRANCH   2   3
TORSDOF 4
ENDMDL
MODEL       79
REMARK 921   NORMALIZED FREE ENERGY PREDICTED BY IDOCK:   -4.95 KCAL/MOL
REMARK 922        TOTAL FREE ENERGY PREDICTED BY IDOCK:   -6.31 KCAL/MOL
REMARK 923 INTER-LIGAND FREE ENERGY PREDICTED BY IDOCK:   -5.50 KCAL/MOL
REMARK 924 INTRA-LIGAND FREE ENERGY PREDICTED BY IDOCK:   -0.81 KCAL/MOL
REMARK 927      BINDING AFFINITY PREDICTED BY RF-SCORE:    0.00 PKD
ROOT
HETATM    1  C   UNL     1      -8.146   6.388  67.508  1.00  0.00    -0.117 C  
HETATM    2  C   UNL     1      -9.088   5.577  68.380  1.00  0.00    -0.117 C  
ENDROOT
BRANCH   2   3
HETATM    3  C   UNL     1     -10.297   6.384  68.807  1.00  0.00    -0.198 C  
HETATM    4  O   UNL     1     -10.743   7.332  68.170  1.00  0.00    -0.195 OA 
HETATM    5  N   UNL     1     -10.848   5.946  69.992  1.00  0.00    -0.332 N  
HETATM    6  H   UNL     1     -10.436   5.142  70.466  1.00  0.00     0.000 HD 
BRANCH   5   7
HETATM    7  C   UNL     1     -12.000   6.602  70.582  1.00  0.00    -0.343 C  
BRANCH   7   8
HETATM    8  C   UNL     1     -11.752   6.961  72.049  1.00  0.00    -0.336 C  
BRANCH   8   9
HETATM    9  C   UNL     1     -11.746   8.463  72.356  1.00  0.00    -0.452 C  
HETATM   10  C   UNL     1     -13.162   9.100  72.451  1.00  0.00    -0.512 C  
HETATM   11  C   UNL     1     -13.370  10.011  71.216  1.00  0.00    -0.410 C  
HETATM   12  C   UNL     1     -11.993  10.144  70.629  1.00  0.00    -0.423 A  
HETATM   13  C   UNL     1     -11.093   9.277  71.282  1.00  0.00    -0.427 A  
HETATM   14  C   UNL     1      -9.779   9.338  70.814  1.00  0.00    -0.348 A  
HETATM   15  C   UNL     1      -9.564  10.214  69.752  1.00  0.00    -0.177 A  
HETATM   16  O   UNL     1      -8.239  10.195  69.338  1.00  0.00    -0.140 OA 
HETATM   17  C   UNL     1     -10.463  11.044  69.111  1.00  0.00    -0.238 A  
HETATM   18  C   UNL     1     -11.753  11.015  69.578  1.00  0.00    -0.400 A  
HETATM   19  C   UNL     1      -7.558   9.244  70.198  1.00  0.00    -0.111 C  
HETATM   20  C   UNL     1      -8.548   8.646  71.205  1.00  0.00    -0.224 C  
ENDBRANCH   8   9
ENDBRANCH   7   8
ENDBRANCH   5   7
ENDBRANCH   2   3
TORSDOF 4
ENDMDL
MODEL       80
REMARK 921   NORMALIZED FREE ENERGY PREDICTED BY IDOCK:   -4.95 KCAL/MOL
REMARK 922        TOTAL FREE ENERGY PREDICTED BY IDOCK:   -6.31 KCAL/MOL
REMARK 923 INTER-LIGAND FREE ENERGY PREDICTED BY IDOCK:   -6.01 KCAL/MOL
REMARK 924 INTRA-LIGAND FREE ENERGY PREDICTED BY IDOCK:   -0.31 KCAL/MOL
REMARK 927      BINDING AFFINITY PREDICTED BY RF-SCORE:    0.00 PKD
ROOT
HETATM    1  C   UNL     1      -9.413  16.681  68.525  1.00  0.00    -0.239 C  
HETATM    2  C   UNL     1     -10.409  16.089  69.506  1.00  0.00    -0.278 C  
ENDROOT
BRANCH   2   3
HETATM    3  C   UNL     1     -11.111  14.874  68.933  1.00  0.00    -0.257 C  
HETATM    4  O   UNL     1     -11.528  14.808  67.782  1.00  0.00    -0.319 OA 
HETATM    5  N   UNL     1     -11.236  13.845  69.841  1.00  0.00    -0.470 N  
HETATM    6  H   UNL     1     -10.855  13.960  70.780  1.00  0.00     0.000 HD 
BRANCH   5   7
HETATM    7  C   UNL     1     -11.899  12.602  69.493  1.00  0.00    -0.312 C  
BRANCH   7   8
HETATM    8  C   UNL     1     -12.306  11.815  70.741  1.00  0.00    -0.433 C  
BRANCH   8   9
HETATM    9  C   UNL     1     -12.395  10.296  70.548  1.00  0.00    -0.371 C  
HETATM   10  C   UNL     1     -13.536   9.616  71.359  1.00  0.00    -0.403 C  
HETATM   11  C   UNL     1     -12.896   8.785  72.498  1.00  0.00    -0.380 C  
HETATM   12  C   UNL     1     -11.440   8.729  72.131  1.00  0.00    -0.421 A  
HETATM   13  C   UNL     1     -11.176   9.573  71.033  1.00  0.00    -0.432 A  
HETATM   14  C   UNL     1      -9.847   9.579  70.606  1.00  0.00    -0.328 A  
HETATM   15  C   UNL     1      -8.978   8.782  71.349  1.00  0.00    -0.238 A  
HETATM   16  O   UNL     1      -7.678   8.863  70.870  1.00  0.00    -0.096 OA 
HETATM   17  C   UNL     1      -9.251   7.973  72.435  1.00  0.00    -0.264 A  
HETATM   18  C   UNL     1     -10.559   7.936  72.849  1.00  0.00    -0.434 A  
HETATM   19  C   UNL     1      -7.718   9.772  69.739  1.00  0.00    -0.143 C  
HETATM   20  C   UNL     1      -9.150  10.275  69.522  1.00  0.00    -0.187 C  
ENDBRANCH   8   9
ENDBRANCH   7   8
ENDBRANCH   5   7
ENDBRANCH   2   3
TORSDOF 4
ENDMDL
MODEL       81
REMARK 921   NORMALIZED FREE ENERGY PREDICTED BY IDOCK:   -4.94 KCAL/MOL
REMARK 922        TOTAL FREE ENERGY PREDICTED BY IDOCK:   -6.30 KCAL/MOL
REMARK 923 INTER-LIGAND FREE ENERGY PREDICTED BY IDOCK:   -5.89 KCAL/MOL
REMARK 924 INTRA-LIGAND FREE ENERGY PREDICTED BY IDOCK:   -0.42 KCAL/MOL
REMARK 927      BINDING AFFINITY PREDICTED BY RF-SCORE:    0.00 PKD
ROOT
HETATM    1  C   UNL     1     -10.641  11.066  63.498  1.00  0.00    -0.303 C  
HETATM    2  C   UNL     1     -11.015  12.529  63.666  1.00  0.00    -0.507 C  
ENDROOT
BRANCH   2   3
HETATM    3  C   UNL     1     -12.044  12.726  64.761  1.00  0.00    -0.432 C  
HETATM    4  O   UNL     1     -13.247  12.536  64.609  1.00  0.00    -0.848 OA 
HETATM    5  N   UNL     1     -11.492  13.144  65.953  1.00  0.00    -0.322 N  
HETATM    6  H   UNL     1     -10.483  13.270  66.016  1.00  0.00     0.000 HD 
BRANCH   5   7
HETATM    7  C   UNL     1     -12.314  13.411  67.118  1.00  0.00    -0.146 C  
BRANCH   7   8
HETATM    8  C   UNL     1     -11.882  12.561  68.316  1.00  0.00    -0.361 C  
BRANCH   8   9
HETATM    9  C   UNL     1     -11.385  13.356  69.529  1.00  0.00    -0.248 C  
HETATM   10  C   UNL     1     -12.514  14.056  70.339  1.00  0.00    -0.418 C  
HETATM   11  C   UNL     1     -12.406  15.583  70.107  1.00  0.00    -0.384 C  
HETATM   12  C   UNL     1     -11.059  15.756  69.464  1.00  0.00    -0.306 A  
HETATM   13  C   UNL     1     -10.496  14.501  69.153  1.00  0.00    -0.224 A  
HETATM   14  C   UNL     1      -9.233  14.558  68.562  1.00  0.00    -0.195 A  
HETATM   15  C   UNL     1      -8.737  15.840  68.335  1.00  0.00    -0.177 A  
HETATM   16  O   UNL     1      -7.489  15.802  67.727  1.00  0.00    -0.126 OA 
HETATM   17  C   UNL     1      -9.310  17.062  68.630  1.00  0.00    -0.270 A  
HETATM   18  C   UNL     1     -10.541  17.021  69.236  1.00  0.00    -0.276 A  
HETATM   19  C   UNL     1      -7.163  14.398  67.558  1.00  0.00    -0.180 C  
HETATM   20  C   UNL     1      -8.299  13.526  68.104  1.00  0.00    -0.167 C  
ENDBRANCH   8   9
ENDBRANCH   7   8
ENDBRANCH   5   7
ENDBRANCH   2   3
TORSDOF 4
ENDMDL
MODEL       82
REMARK 921   NORMALIZED FREE ENERGY PREDICTED BY IDOCK:   -4.94 KCAL/MOL
REMARK 922        TOTAL FREE ENERGY PREDICTED BY IDOCK:   -6.30 KCAL/MOL
REMARK 923 INTER-LIGAND FREE ENERGY PREDICTED BY IDOCK:   -6.02 KCAL/MOL
REMARK 924 INTRA-LIGAND FREE ENERGY PREDICTED BY IDOCK:   -0.28 KCAL/MOL
REMARK 927      BINDING AFFINITY PREDICTED BY RF-SCORE:    0.00 PKD
ROOT
HETATM    1  C   UNL     1     -10.217  19.105  67.982  1.00  0.00    -0.489 C  
HETATM    2  C   UNL     1      -9.635  17.751  68.348  1.00  0.00    -0.323 C  
ENDROOT
BRANCH   2   3
HETATM    3  C   UNL     1     -10.718  16.731  68.635  1.00  0.00    -0.352 C  
HETATM    4  O   UNL     1     -11.227  16.018  67.777  1.00  0.00    -0.315 OA 
HETATM    5  N   UNL     1     -11.077  16.684  69.965  1.00  0.00    -0.435 N  
HETATM    6  H   UNL     1     -10.604  17.295  70.631  1.00  0.00     0.000 HD 
BRANCH   5   7
HETATM    7  C   UNL     1     -12.113  15.786  70.440  1.00  0.00    -0.370 C  
BRANCH   7   8
HETATM    8  C   UNL     1     -11.599  14.350  70.564  1.00  0.00    -0.270 C  
BRANCH   8   9
HETATM    9  C   UNL     1     -12.660  13.262  70.361  1.00  0.00    -0.211 C  
HETATM   10  C   UNL     1     -13.363  12.805  71.672  1.00  0.00    -0.345 C  
HETATM   11  C   UNL     1     -12.886  11.370  72.006  1.00  0.00    -0.265 C  
HETATM   12  C   UNL     1     -12.203  10.914  70.748  1.00  0.00    -0.483 A  
HETATM   13  C   UNL     1     -12.091  11.982  69.833  1.00  0.00    -0.334 A  
HETATM   14  C   UNL     1     -11.479  11.652  68.622  1.00  0.00    -0.349 A  
HETATM   15  C   UNL     1     -11.041  10.334  68.514  1.00  0.00    -0.242 A  
HETATM   16  O   UNL     1     -10.428  10.101  67.291  1.00  0.00    -0.224 OA 
HETATM   17  C   UNL     1     -11.143   9.303  69.429  1.00  0.00    -0.063 A  
HETATM   18  C   UNL     1     -11.766   9.606  70.614  1.00  0.00    -0.353 A  
HETATM   19  C   UNL     1     -10.483  11.355  66.563  1.00  0.00    -0.249 C  
HETATM   20  C   UNL     1     -11.180  12.424  67.413  1.00  0.00    -0.351 C  
ENDBRANCH   8   9
ENDBRANCH   7   8
ENDBRANCH   5   7
ENDBRANCH   2   3
TORSDOF 4
ENDMDL
MODEL       83
REMARK 921   NORMALIZED FREE ENERGY PREDICTED BY IDOCK:   -4.93 KCAL/MOL
REMARK 922        TOTAL FREE ENERGY PREDICTED BY IDOCK:   -6.28 KCAL/MOL
REMARK 923 INTER-LIGAND FREE ENERGY PREDICTED BY IDOCK:   -5.92 KCAL/MOL
REMARK 924 INTRA-LIGAND FREE ENERGY PREDICTED BY IDOCK:   -0.36 KCAL/MOL
REMARK 927      BINDING AFFINITY PREDICTED BY RF-SCORE:    0.00 PKD
ROOT
HETATM    1  C   UNL     1      -5.273  14.290  68.303  1.00  0.00    -0.113 C  
HETATM    2  C   UNL     1      -5.210  12.945  67.601  1.00  0.00    -0.090 C  
ENDROOT
BRANCH   2   3
HETATM    3  C   UNL     1      -6.592  12.403  67.296  1.00  0.00    -0.136 C  
HETATM    4  O   UNL     1      -6.825  11.221  67.065  1.00  0.00    -0.106 OA 
HETATM    5  N   UNL     1      -7.567  13.377  67.301  1.00  0.00    -0.339 N  
HETATM    6  H   UNL     1      -7.309  14.339  67.514  1.00  0.00     0.000 HD 
BRANCH   5   7
HETATM    7  C   UNL     1      -8.954  13.064  67.010  1.00  0.00    -0.225 C  
BRANCH   7   8
HETATM    8  C   UNL     1      -9.801  13.029  68.283  1.00  0.00    -0.225 C  
BRANCH   8   9
HETATM    9  C   UNL     1     -11.232  13.557  68.125  1.00  0.00    -0.302 C  
HETATM   10  C   UNL     1     -11.320  14.990  67.525  1.00  0.00    -0.340 C  
HETATM   11  C   UNL     1     -11.777  15.959  68.643  1.00  0.00    -0.328 C  
HETATM   12  C   UNL     1     -12.254  15.048  69.738  1.00  0.00    -0.324 A  
HETATM   13  C   UNL     1     -11.949  13.706  69.431  1.00  0.00    -0.394 A  
HETATM   14  C   UNL     1     -12.367  12.778  70.386  1.00  0.00    -0.324 A  
HETATM   15  C   UNL     1     -12.986  13.317  71.512  1.00  0.00    -0.337 A  
HETATM   16  O   UNL     1     -13.348  12.328  72.416  1.00  0.00    -0.453 OA 
HETATM   17  C   UNL     1     -13.261  14.639  71.806  1.00  0.00    -0.434 A  
HETATM   18  C   UNL     1     -12.880  15.561  70.864  1.00  0.00    -0.535 A  
HETATM   19  C   UNL     1     -12.937  11.068  71.825  1.00  0.00    -0.438 C  
HETATM   20  C   UNL     1     -12.277  11.317  70.464  1.00  0.00    -0.474 C  
ENDBRANCH   8   9
ENDBRANCH   7   8
ENDBRANCH   5   7
ENDBRANCH   2   3
TORSDOF 4
ENDMDL
MODEL       84
REMARK 921   NORMALIZED FREE ENERGY PREDICTED BY IDOCK:   -4.92 KCAL/MOL
REMARK 922        TOTAL FREE ENERGY PREDICTED BY IDOCK:   -6.27 KCAL/MOL
REMARK 923 INTER-LIGAND FREE ENERGY PREDICTED BY IDOCK:   -5.91 KCAL/MOL
REMARK 924 INTRA-LIGAND FREE ENERGY PREDICTED BY IDOCK:   -0.36 KCAL/MOL
REMARK 927      BINDING AFFINITY PREDICTED BY RF-SCORE:    0.00 PKD
ROOT
HETATM    1  C   UNL     1      -8.893   7.045  74.162  1.00  0.00    -0.223 C  
HETATM    2  C   UNL     1      -8.265   6.844  72.794  1.00  0.00    -0.116 C  
ENDROOT
BRANCH   2   3
HETATM    3  C   UNL     1      -8.383   8.085  71.932  1.00  0.00    -0.131 C  
HETATM    4  O   UNL     1      -7.614   9.037  71.999  1.00  0.00    -0.343 OA 
HETATM    5  N   UNL     1      -9.450   8.037  71.060  1.00  0.00    -0.155 N  
HETATM    6  H   UNL     1     -10.044   7.209  71.045  1.00  0.00     0.000 HD 
BRANCH   5   7
HETATM    7  C   UNL     1      -9.748   9.138  70.164  1.00  0.00    -0.204 C  
BRANCH   7   8
HETATM    8  C   UNL     1     -10.934   9.966  70.665  1.00  0.00    -0.405 C  
BRANCH   8   9
HETATM    9  C   UNL     1     -11.739  10.675  69.570  1.00  0.00    -0.356 C  
HETATM   10  C   UNL     1     -11.070  10.643  68.165  1.00  0.00    -0.343 C  
HETATM   11  C   UNL     1     -10.577  12.072  67.828  1.00  0.00    -0.234 C  
HETATM   12  C   UNL     1     -11.248  12.938  68.856  1.00  0.00    -0.327 A  
HETATM   13  C   UNL     1     -11.901  12.142  69.821  1.00  0.00    -0.397 A  
HETATM   14  C   UNL     1     -12.568  12.859  70.815  1.00  0.00    -0.314 A  
HETATM   15  C   UNL     1     -12.458  14.246  70.727  1.00  0.00    -0.358 A  
HETATM   16  O   UNL     1     -13.131  14.876  71.765  1.00  0.00    -0.303 OA 
HETATM   17  C   UNL     1     -11.798  15.010  69.784  1.00  0.00    -0.357 A  
HETATM   18  C   UNL     1     -11.160  14.319  68.785  1.00  0.00    -0.276 A  
HETATM   19  C   UNL     1     -13.717  13.819  72.570  1.00  0.00    -0.561 C  
HETATM   20  C   UNL     1     -13.370  12.451  71.972  1.00  0.00    -0.511 C  
ENDBRANCH   8   9
ENDBRANCH   7   8
ENDBRANCH   5   7
ENDBRANCH   2   3
TORSDOF 4
ENDMDL
MODEL       85
REMARK 921   NORMALIZED FREE ENERGY PREDICTED BY IDOCK:   -4.91 KCAL/MOL
REMARK 922        TOTAL FREE ENERGY PREDICTED BY IDOCK:   -6.26 KCAL/MOL
REMARK 923 INTER-LIGAND FREE ENERGY PREDICTED BY IDOCK:   -5.84 KCAL/MOL
REMARK 924 INTRA-LIGAND FREE ENERGY PREDICTED BY IDOCK:   -0.42 KCAL/MOL
REMARK 927      BINDING AFFINITY PREDICTED BY RF-SCORE:    0.00 PKD
ROOT
HETATM    1  C   UNL     1     -13.123  11.411  71.778  1.00  0.00    -0.523 C  
HETATM    2  C   UNL     1     -13.125   9.896  71.884  1.00  0.00    -0.559 C  
ENDROOT
BRANCH   2   3
HETATM    3  C   UNL     1     -12.039   9.270  71.032  1.00  0.00    -0.280 C  
HETATM    4  O   UNL     1     -11.966   8.069  70.796  1.00  0.00    -0.242 OA 
HETATM    5  N   UNL     1     -11.135  10.191  70.547  1.00  0.00    -0.313 N  
HETATM    6  H   UNL     1     -11.262  11.178  70.770  1.00  0.00     0.000 HD 
BRANCH   5   7
HETATM    7  C   UNL     1     -10.007   9.788  69.728  1.00  0.00    -0.236 C  
BRANCH   7   8
HETATM    8  C   UNL     1     -10.130  10.326  68.300  1.00  0.00    -0.176 C  
BRANCH   8   9
HETATM    9  C   UNL     1     -10.445   9.269  67.234  1.00  0.00    -0.334 C  
HETATM   10  C   UNL     1      -9.801   7.879  67.506  1.00  0.00    -0.221 C  
HETATM   11  C   UNL     1      -8.673   7.653  66.470  1.00  0.00    -0.161 C  
HETATM   12  C   UNL     1      -8.902   8.728  65.446  1.00  0.00    -0.221 A  
HETATM   13  C   UNL     1      -9.902   9.621  65.884  1.00  0.00    -0.358 A  
HETATM   14  C   UNL     1     -10.198  10.652  64.990  1.00  0.00    -0.380 A  
HETATM   15  C   UNL     1      -9.438  10.665  63.822  1.00  0.00    -0.290 A  
HETATM   16  O   UNL     1      -9.782  11.732  63.004  1.00  0.00    -0.394 OA 
HETATM   17  C   UNL     1      -8.447   9.791  63.416  1.00  0.00    -0.186 A  
HETATM   18  C   UNL     1      -8.165   8.757  64.273  1.00  0.00    -0.164 A  
HETATM   19  C   UNL     1     -10.839  12.449  63.694  1.00  0.00    -0.462 C  
HETATM   20  C   UNL     1     -11.154  11.761  65.028  1.00  0.00    -0.343 C  
ENDBRANCH   8   9
ENDBRANCH   7   8
ENDBRANCH   5   7
ENDBRANCH   2   3
TORSDOF 4
ENDMDL
MODEL       86
REMARK 921   NORMALIZED FREE ENERGY PREDICTED BY IDOCK:   -4.90 KCAL/MOL
REMARK 922        TOTAL FREE ENERGY PREDICTED BY IDOCK:   -6.25 KCAL/MOL
REMARK 923 INTER-LIGAND FREE ENERGY PREDICTED BY IDOCK:   -5.73 KCAL/MOL
REMARK 924 INTRA-LIGAND FREE ENERGY PREDICTED BY IDOCK:   -0.52 KCAL/MOL
REMARK 927      BINDING AFFINITY PREDICTED BY RF-SCORE:    0.00 PKD
ROOT
HETATM    1  C   UNL     1      -9.902  17.735  66.691  1.00  0.00    -0.322 C  
HETATM    2  C   UNL     1     -10.545  17.600  68.060  1.00  0.00    -0.379 C  
ENDROOT
BRANCH   2   3
HETATM    3  C   UNL     1     -10.115  16.327  68.762  1.00  0.00    -0.243 C  
HETATM    4  O   UNL     1     -10.462  16.026  69.899  1.00  0.00    -0.290 OA 
HETATM    5  N   UNL     1      -9.288  15.538  67.991  1.00  0.00    -0.192 N  
HETATM    6  H   UNL     1      -9.049  15.841  67.047  1.00  0.00     0.000 HD 
BRANCH   5   7
HETATM    7  C   UNL     1      -8.750  14.287  68.492  1.00  0.00    -0.175 C  
BRANCH   7   8
HETATM    8  C   UNL     1      -8.221  13.409  67.356  1.00  0.00    -0.188 C  
BRANCH   8   9
HETATM    9  C   UNL     1      -8.923  12.054  67.204  1.00  0.00    -0.185 C  
HETATM   10  C   UNL     1      -7.959  10.865  66.922  1.00  0.00    -0.138 C  
HETATM   11  C   UNL     1      -8.164  10.407  65.457  1.00  0.00    -0.162 C  
HETATM   12  C   UNL     1      -9.435  11.092  65.040  1.00  0.00    -0.269 A  
HETATM   13  C   UNL     1      -9.852  12.004  66.030  1.00  0.00    -0.258 A  
HETATM   14  C   UNL     1     -11.036  12.683  65.739  1.00  0.00    -0.332 A  
HETATM   15  C   UNL     1     -11.606  12.385  64.503  1.00  0.00    -0.348 A  
HETATM   16  O   UNL     1     -12.765  13.118  64.287  1.00  0.00    -0.648 OA 
HETATM   17  C   UNL     1     -11.174  11.499  63.534  1.00  0.00    -0.412 A  
HETATM   18  C   UNL     1     -10.025  10.805  63.819  1.00  0.00    -0.411 A  
HETATM   19  C   UNL     1     -12.953  13.938  65.470  1.00  0.00    -0.332 C  
HETATM   20  C   UNL     1     -11.822  13.680  66.471  1.00  0.00    -0.441 C  
ENDBRANCH   8   9
ENDBRANCH   7   8
ENDBRANCH   5   7
ENDBRANCH   2   3
TORSDOF 4
ENDMDL
MODEL       87
REMARK 921   NORMALIZED FREE ENERGY PREDICTED BY IDOCK:   -4.90 KCAL/MOL
REMARK 922        TOTAL FREE ENERGY PREDICTED BY IDOCK:   -6.25 KCAL/MOL
REMARK 923 INTER-LIGAND FREE ENERGY PREDICTED BY IDOCK:   -5.95 KCAL/MOL
REMARK 924 INTRA-LIGAND FREE ENERGY PREDICTED BY IDOCK:   -0.30 KCAL/MOL
REMARK 927      BINDING AFFINITY PREDICTED BY RF-SCORE:    0.00 PKD
ROOT
HETATM    1  C   UNL     1      -9.592   5.698  66.709  1.00  0.00    -0.159 C  
HETATM    2  C   UNL     1     -10.398   6.933  67.070  1.00  0.00    -0.348 C  
ENDROOT
BRANCH   2   3
HETATM    3  C   UNL     1      -9.840   8.182  66.418  1.00  0.00    -0.190 C  
HETATM    4  O   UNL     1      -8.956   8.170  65.568  1.00  0.00    -0.137 OA 
HETATM    5  N   UNL     1     -10.427   9.341  66.878  1.00  0.00    -0.238 N  
HETATM    6  H   UNL     1     -11.168   9.280  67.576  1.00  0.00     0.000 HD 
BRANCH   5   7
HETATM    7  C   UNL     1     -10.016  10.645  66.394  1.00  0.00    -0.222 C  
BRANCH   7   8
HETATM    8  C   UNL     1     -10.131  11.711  67.485  1.00  0.00    -0.209 C  
BRANCH   8   9
HETATM    9  C   UNL     1     -11.471  12.455  67.527  1.00  0.00    -0.410 C  
HETATM   10  C   UNL     1     -11.448  13.848  66.833  1.00  0.00    -0.370 C  
HETATM   11  C   UNL     1     -11.546  14.939  67.928  1.00  0.00    -0.364 C  
HETATM   12  C   UNL     1     -11.949  14.179  69.160  1.00  0.00    -0.388 A  
HETATM   13  C   UNL     1     -11.911  12.791  68.918  1.00  0.00    -0.351 A  
HETATM   14  C   UNL     1     -12.285  11.997  70.004  1.00  0.00    -0.280 A  
HETATM   15  C   UNL     1     -12.603  12.692  71.169  1.00  0.00    -0.258 A  
HETATM   16  O   UNL     1     -12.941  11.827  72.201  1.00  0.00    -0.374 OA 
HETATM   17  C   UNL     1     -12.618  14.055  71.395  1.00  0.00    -0.451 A  
HETATM   18  C   UNL     1     -12.278  14.849  70.328  1.00  0.00    -0.389 A  
HETATM   19  C   UNL     1     -12.837  10.485  71.656  1.00  0.00    -0.475 C  
HETATM   20  C   UNL     1     -12.403  10.549  70.187  1.00  0.00    -0.339 C  
ENDBRANCH   8   9
ENDBRANCH   7   8
ENDBRANCH   5   7
ENDBRANCH   2   3
TORSDOF 4
ENDMDL
MODEL       88
REMARK 921   NORMALIZED FREE ENERGY PREDICTED BY IDOCK:   -4.89 KCAL/MOL
REMARK 922        TOTAL FREE ENERGY PREDICTED BY IDOCK:   -6.24 KCAL/MOL
REMARK 923 INTER-LIGAND FREE ENERGY PREDICTED BY IDOCK:   -5.85 KCAL/MOL
REMARK 924 INTRA-LIGAND FREE ENERGY PREDICTED BY IDOCK:   -0.39 KCAL/MOL
REMARK 927      BINDING AFFINITY PREDICTED BY RF-SCORE:    0.00 PKD
ROOT
HETATM    1  C   UNL     1     -11.223  11.584  63.951  1.00  0.00    -0.439 C  
HETATM    2  C   UNL     1     -12.214  12.544  63.315  1.00  0.00    -0.512 C  
ENDROOT
BRANCH   2   3
HETATM    3  C   UNL     1     -12.090  13.942  63.886  1.00  0.00    -0.345 C  
HETATM    4  O   UNL     1     -12.896  14.841  63.669  1.00  0.00    -0.619 OA 
HETATM    5  N   UNL     1     -10.974  14.106  64.678  1.00  0.00    -0.500 N  
HETATM    6  H   UNL     1     -10.350  13.313  64.829  1.00  0.00     0.000 HD 
BRANCH   5   7
HETATM    7  C   UNL     1     -10.664  15.379  65.300  1.00  0.00    -0.421 C  
BRANCH   7   8
HETATM    8  C   UNL     1     -11.049  15.389  66.781  1.00  0.00    -0.244 C  
BRANCH   8   9
HETATM    9  C   UNL     1     -10.434  16.528  67.603  1.00  0.00    -0.305 C  
HETATM   10  C   UNL     1     -11.026  17.932  67.288  1.00  0.00    -0.053 C  
HETATM   11  C   UNL     1      -9.950  18.758  66.541  1.00  0.00    -0.415 C  
HETATM   12  C   UNL     1      -8.689  17.964  66.731  1.00  0.00    -0.269 A  
HETATM   13  C   UNL     1      -8.974  16.722  67.334  1.00  0.00    -0.211 A  
HETATM   14  C   UNL     1      -7.859  15.915  67.566  1.00  0.00    -0.176 A  
HETATM   15  C   UNL     1      -6.642  16.439  67.135  1.00  0.00    -0.199 A  
HETATM   16  O   UNL     1      -5.594  15.564  67.385  1.00  0.00    -0.319 OA 
HETATM   17  C   UNL     1      -6.382  17.653  66.528  1.00  0.00    -0.252 A  
HETATM   18  C   UNL     1      -7.466  18.469  66.319  1.00  0.00    -0.289 A  
HETATM   19  C   UNL     1      -6.180  14.400  68.025  1.00  0.00    -0.155 C  
HETATM   20  C   UNL     1      -7.695  14.590  68.170  1.00  0.00    -0.128 C  
ENDBRANCH   8   9
ENDBRANCH   7   8
ENDBRANCH   5   7
ENDBRANCH   2   3
TORSDOF 4
ENDMDL
MODEL       89
REMARK 921   NORMALIZED FREE ENERGY PREDICTED BY IDOCK:   -4.89 KCAL/MOL
REMARK 922        TOTAL FREE ENERGY PREDICTED BY IDOCK:   -6.24 KCAL/MOL
REMARK 923 INTER-LIGAND FREE ENERGY PREDICTED BY IDOCK:   -5.85 KCAL/MOL
REMARK 924 INTRA-LIGAND FREE ENERGY PREDICTED BY IDOCK:   -0.39 KCAL/MOL
REMARK 927      BINDING AFFINITY PREDICTED BY RF-SCORE:    0.00 PKD
ROOT
HETATM    1  C   UNL     1      -9.602   3.893  66.886  1.00  0.00    -0.226 C  
HETATM    2  C   UNL     1     -10.441   4.971  66.222  1.00  0.00    -0.352 C  
ENDROOT
BRANCH   2   3
HETATM    3  C   UNL     1     -10.838   6.060  67.199  1.00  0.00    -0.329 C  
HETATM    4  O   UNL     1     -11.096   7.212  66.868  1.00  0.00    -0.327 OA 
HETATM    5  N   UNL     1     -10.878   5.624  68.506  1.00  0.00    -0.176 N  
HETATM    6  H   UNL     1     -10.666   4.648  68.712  1.00  0.00     0.000 HD 
BRANCH   5   7
HETATM    7  C   UNL     1     -11.216   6.521  69.595  1.00  0.00    -0.384 C  
BRANCH   7   8
HETATM    8  C   UNL     1     -10.046   6.687  70.568  1.00  0.00    -0.209 C  
BRANCH   8   9
HETATM    9  C   UNL     1     -10.187   7.848  71.560  1.00  0.00    -0.232 C  
HETATM   10  C   UNL     1     -11.292   7.637  72.635  1.00  0.00    -0.423 C  
HETATM   11  C   UNL     1     -12.461   8.605  72.331  1.00  0.00    -0.428 C  
HETATM   12  C   UNL     1     -11.886   9.559  71.322  1.00  0.00    -0.450 A  
HETATM   13  C   UNL     1     -10.610   9.127  70.906  1.00  0.00    -0.341 A  
HETATM   14  C   UNL     1      -9.986   9.960  69.975  1.00  0.00    -0.302 A  
HETATM   15  C   UNL     1     -10.729  11.067  69.572  1.00  0.00    -0.183 A  
HETATM   16  O   UNL     1     -10.043  11.825  68.633  1.00  0.00    -0.216 OA 
HETATM   17  C   UNL     1     -11.988  11.467  69.977  1.00  0.00    -0.442 A  
HETATM   18  C   UNL     1     -12.603  10.672  70.912  1.00  0.00    -0.503 A  
HETATM   19  C   UNL     1      -8.770  11.159  68.425  1.00  0.00    -0.157 C  
HETATM   20  C   UNL     1      -8.685   9.906  69.304  1.00  0.00    -0.172 C  
ENDBRANCH   8   9
ENDBRANCH   7   8
ENDBRANCH   5   7
ENDBRANCH   2   3
TORSDOF 4
ENDMDL
MODEL       90
REMARK 921   NORMALIZED FREE ENERGY PREDICTED BY IDOCK:   -4.89 KCAL/MOL
REMARK 922        TOTAL FREE ENERGY PREDICTED BY IDOCK:   -6.24 KCAL/MOL
REMARK 923 INTER-LIGAND FREE ENERGY PREDICTED BY IDOCK:   -5.79 KCAL/MOL
REMARK 924 INTRA-LIGAND FREE ENERGY PREDICTED BY IDOCK:   -0.44 KCAL/MOL
REMARK 927      BINDING AFFINITY PREDICTED BY RF-SCORE:    0.00 PKD
ROOT
HETATM    1  C   UNL     1      -8.512   9.830  62.523  1.00  0.00    -0.179 C  
HETATM    2  C   UNL     1      -9.137  11.205  62.356  1.00  0.00    -0.292 C  
ENDROOT
BRANCH   2   3
HETATM    3  C   UNL     1     -10.089  11.532  63.488  1.00  0.00    -0.409 C  
HETATM    4  O   UNL     1     -11.236  11.933  63.319  1.00  0.00    -0.364 OA 
HETATM    5  N   UNL     1      -9.535  11.336  64.735  1.00  0.00    -0.295 N  
HETATM    6  H   UNL     1      -8.580  10.987  64.805  1.00  0.00     0.000 HD 
BRANCH   5   7
HETATM    7  C   UNL     1     -10.279  11.614  65.949  1.00  0.00    -0.238 C  
BRANCH   7   8
HETATM    8  C   UNL     1      -9.802  12.905  66.617  1.00  0.00    -0.250 C  
BRANCH   8   9
HETATM    9  C   UNL     1     -10.697  14.128  66.379  1.00  0.00    -0.288 C  
HETATM   10  C   UNL     1     -10.192  15.078  65.255  1.00  0.00    -0.409 C  
HETATM   11  C   UNL     1      -9.685  16.385  65.913  1.00  0.00    -0.327 C  
HETATM   12  C   UNL     1     -10.200  16.304  67.322  1.00  0.00    -0.279 A  
HETATM   13  C   UNL     1     -10.771  15.037  67.566  1.00  0.00    -0.284 A  
HETATM   14  C   UNL     1     -11.293  14.869  68.849  1.00  0.00    -0.301 A  
HETATM   15  C   UNL     1     -11.139  15.959  69.704  1.00  0.00    -0.320 A  
HETATM   16  O   UNL     1     -11.665  15.698  70.962  1.00  0.00    -0.328 OA 
HETATM   17  C   UNL     1     -10.560  17.189  69.454  1.00  0.00    -0.161 A  
HETATM   18  C   UNL     1     -10.066  17.378  68.187  1.00  0.00    -0.328 A  
HETATM   19  C   UNL     1     -12.198  14.348  70.906  1.00  0.00    -0.342 C  
HETATM   20  C   UNL     1     -11.974  13.754  69.511  1.00  0.00    -0.399 C  
ENDBRANCH   8   9
ENDBRANCH   7   8
ENDBRANCH   5   7
ENDBRANCH   2   3
TORSDOF 4
ENDMDL
MODEL       91
REMARK 921   NORMALIZED FREE ENERGY PREDICTED BY IDOCK:   -4.88 KCAL/MOL
REMARK 922        TOTAL FREE ENERGY PREDICTED BY IDOCK:   -6.23 KCAL/MOL
REMARK 923 INTER-LIGAND FREE ENERGY PREDICTED BY IDOCK:   -5.75 KCAL/MOL
REMARK 924 INTRA-LIGAND FREE ENERGY PREDICTED BY IDOCK:   -0.48 KCAL/MOL
REMARK 927      BINDING AFFINITY PREDICTED BY RF-SCORE:    0.00 PKD
ROOT
HETATM    1  C   UNL     1      -9.881  11.319  63.662  1.00  0.00    -0.377 C  
HETATM    2  C   UNL     1     -11.260  11.775  64.106  1.00  0.00    -0.437 C  
ENDROOT
BRANCH   2   3
HETATM    3  C   UNL     1     -11.279  12.173  65.568  1.00  0.00    -0.334 C  
HETATM    4  O   UNL     1     -12.262  12.636  66.136  1.00  0.00    -0.568 OA 
HETATM    5  N   UNL     1     -10.073  11.962  66.201  1.00  0.00    -0.221 N  
HETATM    6  H   UNL     1      -9.298  11.560  65.674  1.00  0.00     0.000 HD 
BRANCH   5   7
HETATM    7  C   UNL     1      -9.879  12.299  67.598  1.00  0.00    -0.196 C  
BRANCH   7   8
HETATM    8  C   UNL     1      -9.892  11.051  68.484  1.00  0.00    -0.194 C  
BRANCH   8   9
HETATM    9  C   UNL     1     -11.288  10.542  68.866  1.00  0.00    -0.313 C  
HETATM   10  C   UNL     1     -12.146  11.570  69.658  1.00  0.00    -0.363 C  
HETATM   11  C   UNL     1     -12.273  11.076  71.121  1.00  0.00    -0.415 C  
HETATM   12  C   UNL     1     -11.789   9.654  71.064  1.00  0.00    -0.428 A  
HETATM   13  C   UNL     1     -11.248   9.367  69.794  1.00  0.00    -0.139 A  
HETATM   14  C   UNL     1     -10.782   8.061  69.639  1.00  0.00    -0.207 A  
HETATM   15  C   UNL     1     -10.888   7.251  70.768  1.00  0.00    -0.241 A  
HETATM   16  O   UNL     1     -10.383   5.980  70.531  1.00  0.00    -0.198 OA 
HETATM   17  C   UNL     1     -11.406   7.554  72.012  1.00  0.00    -0.314 A  
HETATM   18  C   UNL     1     -11.892   8.827  72.172  1.00  0.00    -0.436 A  
HETATM   19  C   UNL     1      -9.927   5.974  69.153  1.00  0.00    -0.162 C  
HETATM   20  C   UNL     1     -10.176   7.345  68.513  1.00  0.00    -0.201 C  
ENDBRANCH   8   9
ENDBRANCH   7   8
ENDBRANCH   5   7
ENDBRANCH   2   3
TORSDOF 4
ENDMDL
MODEL       92
REMARK 921   NORMALIZED FREE ENERGY PREDICTED BY IDOCK:   -4.87 KCAL/MOL
REMARK 922        TOTAL FREE ENERGY PREDICTED BY IDOCK:   -6.21 KCAL/MOL
REMARK 923 INTER-LIGAND FREE ENERGY PREDICTED BY IDOCK:   -5.70 KCAL/MOL
REMARK 924 INTRA-LIGAND FREE ENERGY PREDICTED BY IDOCK:   -0.51 KCAL/MOL
REMARK 927      BINDING AFFINITY PREDICTED BY RF-SCORE:    0.00 PKD
ROOT
HETATM    1  C   UNL     1     -13.639  15.244  71.241  1.00  0.00    -0.584 C  
HETATM    2  C   UNL     1     -12.487  14.256  71.288  1.00  0.00    -0.439 C  
ENDROOT
BRANCH   2   3
HETATM    3  C   UNL     1     -12.157  13.707  69.914  1.00  0.00    -0.341 C  
HETATM    4  O   UNL     1     -11.832  12.544  69.705  1.00  0.00    -0.315 OA 
HETATM    5  N   UNL     1     -12.258  14.653  68.916  1.00  0.00    -0.570 N  
HETATM    6  H   UNL     1     -12.547  15.601  69.156  1.00  0.00     0.000 HD 
BRANCH   5   7
HETATM    7  C   UNL     1     -11.961  14.332  67.533  1.00  0.00    -0.376 C  
BRANCH   7   8
HETATM    8  C   UNL     1     -11.159  15.446  66.857  1.00  0.00    -0.256 C  
BRANCH   8   9
HETATM    9  C   UNL     1     -10.407  16.377  67.816  1.00  0.00    -0.287 C  
HETATM   10  C   UNL     1     -10.777  17.880  67.666  1.00  0.00    -0.343 C  
HETATM   11  C   UNL     1      -9.572  18.619  67.034  1.00  0.00    -0.319 C  
HETATM   12  C   UNL     1      -8.446  17.629  67.141  1.00  0.00    -0.239 A  
HETATM   13  C   UNL     1      -8.927  16.381  67.587  1.00  0.00    -0.198 A  
HETATM   14  C   UNL     1      -7.950  15.395  67.732  1.00  0.00    -0.159 A  
HETATM   15  C   UNL     1      -6.657  15.780  67.379  1.00  0.00    -0.180 A  
HETATM   16  O   UNL     1      -5.756  14.735  67.533  1.00  0.00    -0.332 OA 
HETATM   17  C   UNL     1      -6.205  17.004  66.925  1.00  0.00    -0.235 A  
HETATM   18  C   UNL     1      -7.151  17.991  66.804  1.00  0.00    -0.236 A  
HETATM   19  C   UNL     1      -6.524  13.605  68.023  1.00  0.00    -0.138 C  
HETATM   20  C   UNL     1      -7.998  13.999  68.174  1.00  0.00    -0.149 C  
ENDBRANCH   8   9
ENDBRANCH   7   8
ENDBRANCH   5   7
ENDBRANCH   2   3
TORSDOF 4
ENDMDL
MODEL       93
REMARK 921   NORMALIZED FREE ENERGY PREDICTED BY IDOCK:   -4.86 KCAL/MOL
REMARK 922        TOTAL FREE ENERGY PREDICTED BY IDOCK:   -6.20 KCAL/MOL
REMARK 923 INTER-LIGAND FREE ENERGY PREDICTED BY IDOCK:   -5.92 KCAL/MOL
REMARK 924 INTRA-LIGAND FREE ENERGY PREDICTED BY IDOCK:   -0.28 KCAL/MOL
REMARK 927      BINDING AFFINITY PREDICTED BY RF-SCORE:    0.00 PKD
ROOT
HETATM    1  C   UNL     1      -8.608  18.942  66.766  1.00  0.00    -0.305 C  
HETATM    2  C   UNL     1      -8.193  17.556  66.302  1.00  0.00    -0.275 C  
ENDROOT
BRANCH   2   3
HETATM    3  C   UNL     1      -8.236  16.548  67.433  1.00  0.00    -0.163 C  
HETATM    4  O   UNL     1      -7.492  16.585  68.408  1.00  0.00    -0.170 OA 
HETATM    5  N   UNL     1      -9.197  15.576  67.255  1.00  0.00    -0.205 N  
HETATM    6  H   UNL     1      -9.792  15.610  66.427  1.00  0.00     0.000 HD 
BRANCH   5   7
HETATM    7  C   UNL     1      -9.382  14.506  68.216  1.00  0.00    -0.203 C  
BRANCH   7   8
HETATM    8  C   UNL     1     -10.219  14.964  69.413  1.00  0.00    -0.180 C  
BRANCH   8   9
HETATM    9  C   UNL     1     -11.720  14.667  69.306  1.00  0.00    -0.348 C  
HETATM   10  C   UNL     1     -12.634  15.805  69.844  1.00  0.00    -0.015 C  
HETATM   11  C   UNL     1     -13.291  15.321  71.161  1.00  0.00    -0.568 C  
HETATM   12  C   UNL     1     -13.018  13.844  71.179  1.00  0.00    -0.388 A  
HETATM   13  C   UNL     1     -12.143  13.491  70.130  1.00  0.00    -0.425 A  
HETATM   14  C   UNL     1     -11.839  12.130  70.056  1.00  0.00    -0.383 A  
HETATM   15  C   UNL     1     -12.413  11.335  71.046  1.00  0.00    -0.400 A  
HETATM   16  O   UNL     1     -12.042  10.005  70.908  1.00  0.00    -0.307 OA 
HETATM   17  C   UNL     1     -13.255  11.701  72.079  1.00  0.00    -0.443 A  
HETATM   18  C   UNL     1     -13.584  13.032  72.149  1.00  0.00    -0.618 A  
HETATM   19  C   UNL     1     -11.174   9.943  69.746  1.00  0.00    -0.235 C  
HETATM   20  C   UNL     1     -11.011  11.342  69.140  1.00  0.00    -0.292 C  
ENDBRANCH   8   9
ENDBRANCH   7   8
ENDBRANCH   5   7
ENDBRANCH   2   3
TORSDOF 4
ENDMDL
MODEL       94
REMARK 921   NORMALIZED FREE ENERGY PREDICTED BY IDOCK:   -4.85 KCAL/MOL
REMARK 922        TOTAL FREE ENERGY PREDICTED BY IDOCK:   -6.19 KCAL/MOL
REMARK 923 INTER-LIGAND FREE ENERGY PREDICTED BY IDOCK:   -5.94 KCAL/MOL
REMARK 924 INTRA-LIGAND FREE ENERGY PREDICTED BY IDOCK:   -0.25 KCAL/MOL
REMARK 927      BINDING AFFINITY PREDICTED BY RF-SCORE:    0.00 PKD
ROOT
HETATM    1  C   UNL     1     -10.474  15.476  67.311  1.00  0.00    -0.279 C  
HETATM    2  C   UNL     1     -11.519  15.598  68.406  1.00  0.00    -0.374 C  
ENDROOT
BRANCH   2   3
HETATM    3  C   UNL     1     -11.765  14.273  69.100  1.00  0.00    -0.320 C  
HETATM    4  O   UNL     1     -12.425  14.154  70.127  1.00  0.00    -0.343 OA 
HETATM    5  N   UNL     1     -11.168  13.209  68.460  1.00  0.00    -0.255 N  
HETATM    6  H   UNL     1     -10.644  13.374  67.601  1.00  0.00     0.000 HD 
BRANCH   5   7
HETATM    7  C   UNL     1     -11.266  11.858  68.979  1.00  0.00    -0.258 C  
BRANCH   7   8
HETATM    8  C   UNL     1     -10.138  10.969  68.452  1.00  0.00    -0.194 C  
BRANCH   8   9
HETATM    9  C   UNL     1     -10.556   9.961  67.374  1.00  0.00    -0.338 C  
HETATM   10  C   UNL     1      -9.734   8.640  67.385  1.00  0.00    -0.227 C  
HETATM   11  C   UNL     1      -8.824   8.622  66.131  1.00  0.00    -0.204 C  
HETATM   12  C   UNL     1      -9.366   9.733  65.277  1.00  0.00    -0.315 A  
HETATM   13  C   UNL     1     -10.340  10.469  65.983  1.00  0.00    -0.279 A  
HETATM   14  C   UNL     1     -10.914  11.518  65.264  1.00  0.00    -0.291 A  
HETATM   15  C   UNL     1     -10.415  11.704  63.976  1.00  0.00    -0.367 A  
HETATM   16  O   UNL     1     -11.025  12.778  63.344  1.00  0.00    -0.380 OA 
HETATM   17  C   UNL     1      -9.445  10.983  63.305  1.00  0.00    -0.346 A  
HETATM   18  C   UNL     1      -8.891   9.931  63.990  1.00  0.00    -0.253 A  
HETATM   19  C   UNL     1     -11.985  13.315  64.291  1.00  0.00    -0.421 C  
HETATM   20  C   UNL     1     -11.949  12.503  65.591  1.00  0.00    -0.492 C  
ENDBRANCH   8   9
ENDBRANCH   7   8
ENDBRANCH   5   7
ENDBRANCH   2   3
TORSDOF 4
ENDMDL
MODEL       95
REMARK 921   NORMALIZED FREE ENERGY PREDICTED BY IDOCK:   -4.85 KCAL/MOL
REMARK 922        TOTAL FREE ENERGY PREDICTED BY IDOCK:   -6.19 KCAL/MOL
REMARK 923 INTER-LIGAND FREE ENERGY PREDICTED BY IDOCK:   -5.91 KCAL/MOL
REMARK 924 INTRA-LIGAND FREE ENERGY PREDICTED BY IDOCK:   -0.28 KCAL/MOL
REMARK 927      BINDING AFFINITY PREDICTED BY RF-SCORE:    0.00 PKD
ROOT
HETATM    1  C   UNL     1      -9.950  20.217  69.498  1.00  0.00     0.037 C  
HETATM    2  C   UNL     1      -9.170  19.248  68.626  1.00  0.00    -0.436 C  
ENDROOT
BRANCH   2   3
HETATM    3  C   UNL     1     -10.087  18.324  67.850  1.00  0.00    -0.361 C  
HETATM    4  O   UNL     1     -10.601  18.619  66.776  1.00  0.00    -0.395 OA 
HETATM    5  N   UNL     1     -10.290  17.113  68.476  1.00  0.00    -0.341 N  
HETATM    6  H   UNL     1      -9.822  16.926  69.362  1.00  0.00     0.000 HD 
BRANCH   5   7
HETATM    7  C   UNL     1     -11.156  16.099  67.904  1.00  0.00    -0.293 C  
BRANCH   7   8
HETATM    8  C   UNL     1     -10.353  14.901  67.391  1.00  0.00    -0.243 C  
BRANCH   8   9
HETATM    9  C   UNL     1     -10.090  14.896  65.880  1.00  0.00    -0.348 C  
HETATM   10  C   UNL     1     -10.900  15.964  65.089  1.00  0.00    -0.438 C  
HETATM   11  C   UNL     1     -11.978  15.236  64.250  1.00  0.00    -0.236 C  
HETATM   12  C   UNL     1     -11.567  13.792  64.308  1.00  0.00    -0.395 A  
HETATM   13  C   UNL     1     -10.504  13.618  65.218  1.00  0.00    -0.362 A  
HETATM   14  C   UNL     1     -10.040  12.307  65.332  1.00  0.00    -0.292 A  
HETATM   15  C   UNL     1     -10.718  11.365  64.561  1.00  0.00    -0.327 A  
HETATM   16  O   UNL     1     -10.207  10.089  64.751  1.00  0.00    -0.237 OA 
HETATM   17  C   UNL     1     -11.772  11.550  63.686  1.00  0.00    -0.278 A  
HETATM   18  C   UNL     1     -12.221  12.839  63.543  1.00  0.00    -0.613 A  
HETATM   19  C   UNL     1      -9.123  10.224  65.707  1.00  0.00    -0.170 C  
HETATM   20  C   UNL     1      -8.971  11.691  66.123  1.00  0.00    -0.180 C  
ENDBRANCH   8   9
ENDBRANCH   7   8
ENDBRANCH   5   7
ENDBRANCH   2   3
TORSDOF 4
ENDMDL
MODEL       96
REMARK 921   NORMALIZED FREE ENERGY PREDICTED BY IDOCK:   -4.84 KCAL/MOL
REMARK 922        TOTAL FREE ENERGY PREDICTED BY IDOCK:   -6.17 KCAL/MOL
REMARK 923 INTER-LIGAND FREE ENERGY PREDICTED BY IDOCK:   -5.78 KCAL/MOL
REMARK 924 INTRA-LIGAND FREE ENERGY PREDICTED BY IDOCK:   -0.39 KCAL/MOL
REMARK 927      BINDING AFFINITY PREDICTED BY RF-SCORE:    0.00 PKD
ROOT
HETATM    1  C   UNL     1     -12.309   9.409  71.697  1.00  0.00    -0.465 C  
HETATM    2  C   UNL     1     -11.705   8.411  70.724  1.00  0.00    -0.219 C  
ENDROOT
BRANCH   2   3
HETATM    3  C   UNL     1     -10.313   8.821  70.288  1.00  0.00    -0.203 C  
HETATM    4  O   UNL     1      -9.285   8.329  70.740  1.00  0.00    -0.146 OA 
HETATM    5  N   UNL     1     -10.317   9.809  69.326  1.00  0.00    -0.203 N  
HETATM    6  H   UNL     1     -11.208  10.165  68.982  1.00  0.00     0.000 HD 
BRANCH   5   7
HETATM    7  C   UNL     1      -9.082  10.353  68.793  1.00  0.00    -0.165 C  
BRANCH   7   8
HETATM    8  C   UNL     1      -9.185  10.609  67.288  1.00  0.00    -0.155 C  
BRANCH   8   9
HETATM    9  C   UNL     1      -9.020  12.073  66.865  1.00  0.00    -0.199 C  
HETATM   10  C   UNL     1      -8.674  13.039  68.036  1.00  0.00    -0.187 C  
HETATM   11  C   UNL     1      -9.908  13.932  68.313  1.00  0.00    -0.231 C  
HETATM   12  C   UNL     1     -10.792  13.706  67.119  1.00  0.00    -0.292 A  
HETATM   13  C   UNL     1     -10.278  12.669  66.314  1.00  0.00    -0.264 A  
HETATM   14  C   UNL     1     -11.026  12.393  65.168  1.00  0.00    -0.339 A  
HETATM   15  C   UNL     1     -12.182  13.155  65.012  1.00  0.00    -0.440 A  
HETATM   16  O   UNL     1     -12.873  12.801  63.861  1.00  0.00    -0.687 OA 
HETATM   17  C   UNL     1     -12.682  14.157  65.821  1.00  0.00    -0.443 A  
HETATM   18  C   UNL     1     -11.942  14.458  66.938  1.00  0.00    -0.425 A  
HETATM   19  C   UNL     1     -12.103  11.742  63.235  1.00  0.00    -0.264 C  
HETATM   20  C   UNL     1     -10.856  11.435  64.072  1.00  0.00    -0.450 C  
ENDBRANCH   8   9
ENDBRANCH   7   8
ENDBRANCH   5   7
ENDBRANCH   2   3
TORSDOF 4
ENDMDL
MODEL       97
REMARK 921   NORMALIZED FREE ENERGY PREDICTED BY IDOCK:   -4.82 KCAL/MOL
REMARK 922        TOTAL FREE ENERGY PREDICTED BY IDOCK:   -6.15 KCAL/MOL
REMARK 923 INTER-LIGAND FREE ENERGY PREDICTED BY IDOCK:   -5.82 KCAL/MOL
REMARK 924 INTRA-LIGAND FREE ENERGY PREDICTED BY IDOCK:   -0.33 KCAL/MOL
REMARK 927      BINDING AFFINITY PREDICTED BY RF-SCORE:    0.00 PKD
ROOT
HETATM    1  C   UNL     1      -5.514  14.053  71.158  1.00  0.00    -0.191 C  
HETATM    2  C   UNL     1      -6.093  13.912  69.761  1.00  0.00    -0.129 C  
ENDROOT
BRANCH   2   3
HETATM    3  C   UNL     1      -7.136  14.974  69.473  1.00  0.00    -0.192 C  
HETATM    4  O   UNL     1      -6.916  16.179  69.535  1.00  0.00    -0.215 OA 
HETATM    5  N   UNL     1      -8.364  14.447  69.136  1.00  0.00    -0.358 N  
HETATM    6  H   UNL     1      -8.476  13.435  69.089  1.00  0.00     0.000 HD 
BRANCH   5   7
HETATM    7  C   UNL     1      -9.502  15.300  68.845  1.00  0.00    -0.218 C  
BRANCH   7   8
HETATM    8  C   UNL     1     -10.345  15.557  70.096  1.00  0.00    -0.279 C  
BRANCH   8   9
HETATM    9  C   UNL     1     -11.825  15.179  69.970  1.00  0.00    -0.361 C  
HETATM   10  C   UNL     1     -12.779  16.032  70.856  1.00  0.00     0.013 C  
HETATM   11  C   UNL     1     -13.314  15.134  71.999  1.00  0.00    -0.494 C  
HETATM   12  C   UNL     1     -12.941  13.743  71.571  1.00  0.00    -0.444 A  
HETATM   13  C   UNL     1     -12.114  13.784  70.429  1.00  0.00    -0.421 A  
HETATM   14  C   UNL     1     -11.723  12.534  69.946  1.00  0.00    -0.327 A  
HETATM   15  C   UNL     1     -12.177  11.441  70.682  1.00  0.00    -0.389 A  
HETATM   16  O   UNL     1     -11.725  10.243  70.145  1.00  0.00    -0.263 OA 
HETATM   17  C   UNL     1     -12.973  11.420  71.811  1.00  0.00    -0.519 A  
HETATM   18  C   UNL     1     -13.387  12.641  72.282  1.00  0.00    -0.527 A  
HETATM   19  C   UNL     1     -10.932  10.594  68.981  1.00  0.00    -0.248 C  
HETATM   20  C   UNL     1     -10.904  12.117  68.805  1.00  0.00    -0.265 C  
ENDBRANCH   8   9
ENDBRANCH   7   8
ENDBRANCH   5   7
ENDBRANCH   2   3
TORSDOF 4
ENDMDL
MODEL       98
REMARK 921   NORMALIZED FREE ENERGY PREDICTED BY IDOCK:   -4.82 KCAL/MOL
REMARK 922        TOTAL FREE ENERGY PREDICTED BY IDOCK:   -6.15 KCAL/MOL
REMARK 923 INTER-LIGAND FREE ENERGY PREDICTED BY IDOCK:   -5.79 KCAL/MOL
REMARK 924 INTRA-LIGAND FREE ENERGY PREDICTED BY IDOCK:   -0.36 KCAL/MOL
REMARK 927      BINDING AFFINITY PREDICTED BY RF-SCORE:    0.00 PKD
ROOT
HETATM    1  C   UNL     1     -10.399  15.339  67.802  1.00  0.00    -0.244 C  
HETATM    2  C   UNL     1     -11.664  15.584  68.606  1.00  0.00    -0.363 C  
ENDROOT
BRANCH   2   3
HETATM    3  C   UNL     1     -12.049  14.374  69.435  1.00  0.00    -0.297 C  
HETATM    4  O   UNL     1     -12.879  14.402  70.336  1.00  0.00    -0.350 OA 
HETATM    5  N   UNL     1     -11.366  13.233  69.073  1.00  0.00    -0.270 N  
HETATM    6  H   UNL     1     -10.698  13.275  68.304  1.00  0.00     0.000 HD 
BRANCH   5   7
HETATM    7  C   UNL     1     -11.576  11.973  69.761  1.00  0.00    -0.276 C  
BRANCH   7   8
HETATM    8  C   UNL     1     -11.710  10.810  68.775  1.00  0.00    -0.315 C  
BRANCH   8   9
HETATM    9  C   UNL     1     -10.472   9.914  68.656  1.00  0.00    -0.231 C  
HETATM   10  C   UNL     1     -10.102   9.527  67.195  1.00  0.00    -0.290 C  
HETATM   11  C   UNL     1     -10.413   8.023  66.995  1.00  0.00    -0.410 C  
HETATM   12  C   UNL     1     -10.629   7.511  68.390  1.00  0.00    -0.177 A  
HETATM   13  C   UNL     1     -10.651   8.579  69.311  1.00  0.00    -0.193 A  
HETATM   14  C   UNL     1     -10.834   8.200  70.642  1.00  0.00    -0.246 A  
HETATM   15  C   UNL     1     -11.002   6.834  70.856  1.00  0.00    -0.260 A  
HETATM   16  O   UNL     1     -11.197   6.550  72.200  1.00  0.00    -0.246 OA 
HETATM   17  C   UNL     1     -10.995   5.800  69.939  1.00  0.00    -0.389 A  
HETATM   18  C   UNL     1     -10.790   6.155  68.629  1.00  0.00    -0.403 A  
HETATM   19  C   UNL     1     -11.146   7.823  72.896  1.00  0.00    -0.398 C  
HETATM   20  C   UNL     1     -10.901   8.957  71.894  1.00  0.00    -0.433 C  
ENDBRANCH   8   9
ENDBRANCH   7   8
ENDBRANCH   5   7
ENDBRANCH   2   3
TORSDOF 4
ENDMDL
MODEL       99
REMARK 921   NORMALIZED FREE ENERGY PREDICTED BY IDOCK:   -4.82 KCAL/MOL
REMARK 922        TOTAL FREE ENERGY PREDICTED BY IDOCK:   -6.15 KCAL/MOL
REMARK 923 INTER-LIGAND FREE ENERGY PREDICTED BY IDOCK:   -5.85 KCAL/MOL
REMARK 924 INTRA-LIGAND FREE ENERGY PREDICTED BY IDOCK:   -0.30 KCAL/MOL
REMARK 927      BINDING AFFINITY PREDICTED BY RF-SCORE:    0.00 PKD
ROOT
HETATM    1  C   UNL     1      -9.582  11.105  64.097  1.00  0.00    -0.290 C  
HETATM    2  C   UNL     1      -9.142   9.682  64.394  1.00  0.00    -0.279 C  
ENDROOT
BRANCH   2   3
HETATM    3  C   UNL     1      -9.406   9.300  65.837  1.00  0.00    -0.236 C  
HETATM    4  O   UNL     1      -8.735   8.483  66.459  1.00  0.00    -0.122 OA 
HETATM    5  N   UNL     1     -10.482   9.966  66.384  1.00  0.00    -0.172 N  
HETATM    6  H   UNL     1     -10.989  10.644  65.816  1.00  0.00     0.000 HD 
BRANCH   5   7
HETATM    7  C   UNL     1     -10.910   9.723  67.749  1.00  0.00    -0.246 C  
BRANCH   7   8
HETATM    8  C   UNL     1     -11.727  10.895  68.298  1.00  0.00    -0.259 C  
BRANCH   8   9
HETATM    9  C   UNL     1     -11.335  11.356  69.706  1.00  0.00    -0.332 C  
HETATM   10  C   UNL     1     -12.059  10.592  70.852  1.00  0.00    -0.489 C  
HETATM   11  C   UNL     1     -13.070  11.558  71.519  1.00  0.00    -0.429 C  
HETATM   12  C   UNL     1     -12.682  12.909  70.988  1.00  0.00    -0.338 A  
HETATM   13  C   UNL     1     -11.704  12.781  69.980  1.00  0.00    -0.282 A  
HETATM   14  C   UNL     1     -11.268  13.988  69.432  1.00  0.00    -0.283 A  
HETATM   15  C   UNL     1     -11.888  15.131  69.934  1.00  0.00    -0.330 A  
HETATM   16  O   UNL     1     -11.410  16.280  69.320  1.00  0.00    -0.325 OA 
HETATM   17  C   UNL     1     -12.859  15.237  70.912  1.00  0.00    -0.511 A  
HETATM   18  C   UNL     1     -13.278  14.060  71.479  1.00  0.00    -0.431 A  
HETATM   19  C   UNL     1     -10.411  15.844  68.362  1.00  0.00    -0.254 C  
HETATM   20  C   UNL     1     -10.279  14.317  68.401  1.00  0.00    -0.245 C  
ENDBRANCH   8   9
ENDBRANCH   7   8
ENDBRANCH   5   7
ENDBRANCH   2   3
TORSDOF 4
ENDMDL
MODEL      100
REMARK 921   NORMALIZED FREE ENERGY PREDICTED BY IDOCK:   -4.82 KCAL/MOL
REMARK 922        TOTAL FREE ENERGY PREDICTED BY IDOCK:   -6.15 KCAL/MOL
REMARK 923 INTER-LIGAND FREE ENERGY PREDICTED BY IDOCK:   -5.81 KCAL/MOL
REMARK 924 INTRA-LIGAND FREE ENERGY PREDICTED BY IDOCK:   -0.34 KCAL/MOL
REMARK 927      BINDING AFFINITY PREDICTED BY RF-SCORE:    0.00 PKD
ROOT
HETATM    1  C   UNL     1      -5.468  20.030  66.753  1.00  0.00    -0.178 C  
HETATM    2  C   UNL     1      -6.825  20.638  67.064  1.00  0.00    -0.358 C  
ENDROOT
BRANCH   2   3
HETATM    3  C   UNL     1      -7.953  19.863  66.414  1.00  0.00    -0.323 C  
HETATM    4  O   UNL     1      -7.993  19.593  65.218  1.00  0.00    -0.214 OA 
HETATM    5  N   UNL     1      -8.936  19.490  67.305  1.00  0.00    -0.297 N  
HETATM    6  H   UNL     1      -8.834  19.734  68.290  1.00  0.00     0.000 HD 
BRANCH   5   7
HETATM    7  C   UNL     1     -10.113  18.758  66.875  1.00  0.00    -0.358 C  
BRANCH   7   8
HETATM    8  C   UNL     1     -10.571  17.756  67.937  1.00  0.00    -0.389 C  
BRANCH   8   9
HETATM    9  C   UNL     1      -9.782  16.441  67.971  1.00  0.00    -0.235 C  
HETATM   10  C   UNL     1      -9.285  15.960  66.577  1.00  0.00    -0.310 C  
HETATM   11  C   UNL     1     -10.103  14.708  66.173  1.00  0.00    -0.316 C  
HETATM   12  C   UNL     1     -10.796  14.305  67.444  1.00  0.00    -0.288 A  
HETATM   13  C   UNL     1     -10.601  15.280  68.443  1.00  0.00    -0.246 A  
HETATM   14  C   UNL     1     -11.198  14.987  69.671  1.00  0.00    -0.296 A  
HETATM   15  C   UNL     1     -11.924  13.799  69.712  1.00  0.00    -0.344 A  
HETATM   16  O   UNL     1     -12.499  13.598  70.960  1.00  0.00    -0.354 OA 
HETATM   17  C   UNL     1     -12.120  12.861  68.716  1.00  0.00    -0.175 A  
HETATM   18  C   UNL     1     -11.517  13.123  67.512  1.00  0.00    -0.371 A  
HETATM   19  C   UNL     1     -12.109  14.734  71.774  1.00  0.00    -0.348 C  
HETATM   20  C   UNL     1     -11.235  15.691  70.955  1.00  0.00    -0.411 C  
ENDBRANCH   8   9
ENDBRANCH   7   8
ENDBRANCH   5   7
ENDBRANCH   2   3
TORSDOF 4
ENDMDL
MODEL      101
REMARK 921   NORMALIZED FREE ENERGY PREDICTED BY IDOCK:   -4.81 KCAL/MOL
REMARK 922        TOTAL FREE ENERGY PREDICTED BY IDOCK:   -6.13 KCAL/MOL
REMARK 923 INTER-LIGAND FREE ENERGY PREDICTED BY IDOCK:   -5.67 KCAL/MOL
REMARK 924 INTRA-LIGAND FREE ENERGY PREDICTED BY IDOCK:   -0.46 KCAL/MOL
REMARK 927      BINDING AFFINITY PREDICTED BY RF-SCORE:    0.00 PKD
ROOT
HETATM    1  C   UNL     1     -12.554  13.853  71.438  1.00  0.00    -0.444 C  
HETATM    2  C   UNL     1     -12.457  15.092  70.565  1.00  0.00    -0.425 C  
ENDROOT
BRANCH   2   3
HETATM    3  C   UNL     1     -11.955  14.763  69.173  1.00  0.00    -0.282 C  
HETATM    4  O   UNL     1     -11.543  15.604  68.381  1.00  0.00    -0.365 OA 
HETATM    5  N   UNL     1     -12.009  13.417  68.883  1.00  0.00    -0.338 N  
HETATM    6  H   UNL     1     -12.350  12.768  69.593  1.00  0.00     0.000 HD 
BRANCH   5   7
HETATM    7  C   UNL     1     -11.594  12.900  67.593  1.00  0.00    -0.355 C  
BRANCH   7   8
HETATM    8  C   UNL     1     -11.226  11.417  67.673  1.00  0.00    -0.346 C  
BRANCH   8   9
HETATM    9  C   UNL     1     -10.089  11.083  68.647  1.00  0.00    -0.207 C  
HETATM   10  C   UNL     1      -8.755  10.681  67.954  1.00  0.00    -0.127 C  
HETATM   11  C   UNL     1      -8.525   9.166  68.180  1.00  0.00    -0.125 C  
HETATM   12  C   UNL     1      -9.520   8.805  69.246  1.00  0.00    -0.161 A  
HETATM   13  C   UNL     1     -10.384   9.890  69.503  1.00  0.00    -0.248 A  
HETATM   14  C   UNL     1     -11.339   9.655  70.493  1.00  0.00    -0.360 A  
HETATM   15  C   UNL     1     -11.320   8.378  71.050  1.00  0.00    -0.266 A  
HETATM   16  O   UNL     1     -12.314   8.226  72.007  1.00  0.00    -0.314 OA 
HETATM   17  C   UNL     1     -10.476   7.319  70.774  1.00  0.00    -0.224 A  
HETATM   18  C   UNL     1      -9.514   7.544  69.821  1.00  0.00    -0.156 A  
HETATM   19  C   UNL     1     -13.014   9.495  72.070  1.00  0.00    -0.426 C  
HETATM   20  C   UNL     1     -12.396  10.485  71.076  1.00  0.00    -0.503 C  
ENDBRANCH   8   9
ENDBRANCH   7   8
ENDBRANCH   5   7
ENDBRANCH   2   3
TORSDOF 4
ENDMDL
MODEL      102
REMARK 921   NORMALIZED FREE ENERGY PREDICTED BY IDOCK:   -4.79 KCAL/MOL
REMARK 922        TOTAL FREE ENERGY PREDICTED BY IDOCK:   -6.11 KCAL/MOL
REMARK 923 INTER-LIGAND FREE ENERGY PREDICTED BY IDOCK:   -5.41 KCAL/MOL
REMARK 924 INTRA-LIGAND FREE ENERGY PREDICTED BY IDOCK:   -0.69 KCAL/MOL
REMARK 927      BINDING AFFINITY PREDICTED BY RF-SCORE:    0.00 PKD
ROOT
HETATM    1  C   UNL     1     -12.071  16.060  72.427  1.00  0.00    -0.629 C  
HETATM    2  C   UNL     1     -11.838  14.868  71.514  1.00  0.00    -0.419 C  
ENDROOT
BRANCH   2   3
HETATM    3  C   UNL     1     -11.340  15.293  70.148  1.00  0.00    -0.289 C  
HETATM    4  O   UNL     1     -12.049  15.824  69.299  1.00  0.00    -0.350 OA 
HETATM    5  N   UNL     1     -10.004  15.020  69.950  1.00  0.00    -0.477 N  
HETATM    6  H   UNL     1      -9.467  14.589  70.702  1.00  0.00     0.000 HD 
BRANCH   5   7
HETATM    7  C   UNL     1      -9.343  15.331  68.697  1.00  0.00    -0.201 C  
BRANCH   7   8
HETATM    8  C   UNL     1      -8.453  14.176  68.230  1.00  0.00    -0.169 C  
BRANCH   8   9
HETATM    9  C   UNL     1      -9.168  13.099  67.405  1.00  0.00    -0.213 C  
HETATM   10  C   UNL     1     -10.408  13.616  66.620  1.00  0.00    -0.275 C  
HETATM   11  C   UNL     1     -11.682  13.037  67.284  1.00  0.00    -0.429 C  
HETATM   12  C   UNL     1     -11.158  11.965  68.197  1.00  0.00    -0.294 A  
HETATM   13  C   UNL     1      -9.749  12.006  68.249  1.00  0.00    -0.205 A  
HETATM   14  C   UNL     1      -9.165  11.036  69.064  1.00  0.00    -0.077 A  
HETATM   15  C   UNL     1     -10.059  10.199  69.730  1.00  0.00    -0.231 A  
HETATM   16  O   UNL     1      -9.395   9.281  70.532  1.00  0.00    -0.225 OA 
HETATM   17  C   UNL     1     -11.440  10.184  69.682  1.00  0.00    -0.256 A  
HETATM   18  C   UNL     1     -12.027  11.116  68.863  1.00  0.00    -0.367 A  
HETATM   19  C   UNL     1      -7.978   9.545  70.364  1.00  0.00    -0.178 C  
HETATM   20  C   UNL     1      -7.774  10.710  69.388  1.00  0.00    -0.132 C  
ENDBRANCH   8   9
ENDBRANCH   7   8
ENDBRANCH   5   7
ENDBRANCH   2   3
TORSDOF 4
ENDMDL
MODEL      103
REMARK 921   NORMALIZED FREE ENERGY PREDICTED BY IDOCK:   -4.78 KCAL/MOL
REMARK 922        TOTAL FREE ENERGY PREDICTED BY IDOCK:   -6.10 KCAL/MOL
REMARK 923 INTER-LIGAND FREE ENERGY PREDICTED BY IDOCK:   -5.95 KCAL/MOL
REMARK 924 INTRA-LIGAND FREE ENERGY PREDICTED BY IDOCK:   -0.15 KCAL/MOL
REMARK 927      BINDING AFFINITY PREDICTED BY RF-SCORE:    0.00 PKD
ROOT
HETATM    1  C   UNL     1      -5.746  13.832  70.693  1.00  0.00    -0.182 C  
HETATM    2  C   UNL     1      -6.286  13.399  69.341  1.00  0.00    -0.109 C  
ENDROOT
BRANCH   2   3
HETATM    3  C   UNL     1      -7.525  14.180  68.952  1.00  0.00    -0.112 C  
HETATM    4  O   UNL     1      -7.560  15.403  68.865  1.00  0.00    -0.138 OA 
HETATM    5  N   UNL     1      -8.616  13.375  68.707  1.00  0.00    -0.368 N  
HETATM    6  H   UNL     1      -8.516  12.363  68.785  1.00  0.00     0.000 HD 
BRANCH   5   7
HETATM    7  C   UNL     1      -9.905  13.933  68.342  1.00  0.00    -0.229 C  
BRANCH   7   8
HETATM    8  C   UNL     1     -11.038  13.315  69.166  1.00  0.00    -0.259 C  
BRANCH   8   9
HETATM    9  C   UNL     1     -11.673  12.060  68.556  1.00  0.00    -0.387 C  
HETATM   10  C   UNL     1     -11.181  10.726  69.186  1.00  0.00    -0.323 C  
HETATM   11  C   UNL     1     -10.294   9.994  68.149  1.00  0.00    -0.228 C  
HETATM   12  C   UNL     1     -10.558  10.730  66.866  1.00  0.00    -0.312 A  
HETATM   13  C   UNL     1     -11.338  11.880  67.108  1.00  0.00    -0.393 A  
HETATM   14  C   UNL     1     -11.648  12.626  65.969  1.00  0.00    -0.443 A  
HETATM   15  C   UNL     1     -11.113  12.145  64.776  1.00  0.00    -0.316 A  
HETATM   16  O   UNL     1     -11.453  12.956  63.703  1.00  0.00    -0.439 OA 
HETATM   17  C   UNL     1     -10.334  11.024  64.559  1.00  0.00    -0.420 A  
HETATM   18  C   UNL     1     -10.043  10.266  65.666  1.00  0.00    -0.341 A  
HETATM   19  C   UNL     1     -12.267  14.029  64.246  1.00  0.00    -0.418 C  
HETATM   20  C   UNL     1     -12.428  13.849  65.760  1.00  0.00    -0.530 C  
ENDBRANCH   8   9
ENDBRANCH   7   8
ENDBRANCH   5   7
ENDBRANCH   2   3
TORSDOF 4
ENDMDL
MODEL      104
REMARK 921   NORMALIZED FREE ENERGY PREDICTED BY IDOCK:   -4.77 KCAL/MOL
REMARK 922        TOTAL FREE ENERGY PREDICTED BY IDOCK:   -6.09 KCAL/MOL
REMARK 923 INTER-LIGAND FREE ENERGY PREDICTED BY IDOCK:   -5.72 KCAL/MOL
REMARK 924 INTRA-LIGAND FREE ENERGY PREDICTED BY IDOCK:   -0.37 KCAL/MOL
REMARK 927      BINDING AFFINITY PREDICTED BY RF-SCORE:    0.00 PKD
ROOT
HETATM    1  C   UNL     1      -8.126   8.077  68.804  1.00  0.00    -0.125 C  
HETATM    2  C   UNL     1      -8.391   9.287  69.683  1.00  0.00    -0.140 C  
ENDROOT
BRANCH   2   3
HETATM    3  C   UNL     1      -8.232  10.585  68.919  1.00  0.00    -0.141 C  
HETATM    4  O   UNL     1      -7.221  11.279  68.955  1.00  0.00    -0.103 OA 
HETATM    5  N   UNL     1      -9.345  10.913  68.175  1.00  0.00    -0.160 N  
HETATM    6  H   UNL     1     -10.148  10.285  68.177  1.00  0.00     0.000 HD 
BRANCH   5   7
HETATM    7  C   UNL     1      -9.401  12.131  67.389  1.00  0.00    -0.181 C  
BRANCH   7   8
HETATM    8  C   UNL     1      -9.671  13.355  68.267  1.00  0.00    -0.226 C  
BRANCH   8   9
HETATM    9  C   UNL     1     -11.097  13.912  68.182  1.00  0.00    -0.278 C  
HETATM   10  C   UNL     1     -11.169  15.428  67.837  1.00  0.00    -0.329 C  
HETATM   11  C   UNL     1     -11.638  16.193  69.099  1.00  0.00    -0.285 C  
HETATM   12  C   UNL     1     -12.134  15.110  70.015  1.00  0.00    -0.384 A  
HETATM   13  C   UNL     1     -11.832  13.839  69.485  1.00  0.00    -0.394 A  
HETATM   14  C   UNL     1     -12.267  12.763  70.260  1.00  0.00    -0.351 A  
HETATM   15  C   UNL     1     -12.900  13.106  71.454  1.00  0.00    -0.311 A  
HETATM   16  O   UNL     1     -13.279  11.978  72.170  1.00  0.00    -0.495 OA 
HETATM   17  C   UNL     1     -13.173  14.359  71.968  1.00  0.00    -0.453 A  
HETATM   18  C   UNL     1     -12.774  15.426  71.203  1.00  0.00    -0.503 A  
HETATM   19  C   UNL     1     -12.866  10.835  71.377  1.00  0.00    -0.452 C  
HETATM   20  C   UNL     1     -12.185  11.311  70.088  1.00  0.00    -0.410 C  
ENDBRANCH   8   9
ENDBRANCH   7   8
ENDBRANCH   5   7
ENDBRANCH   2   3
TORSDOF 4
ENDMDL
MODEL      105
REMARK 921   NORMALIZED FREE ENERGY PREDICTED BY IDOCK:   -4.76 KCAL/MOL
REMARK 922        TOTAL FREE ENERGY PREDICTED BY IDOCK:   -6.08 KCAL/MOL
REMARK 923 INTER-LIGAND FREE ENERGY PREDICTED BY IDOCK:   -5.54 KCAL/MOL
REMARK 924 INTRA-LIGAND FREE ENERGY PREDICTED BY IDOCK:   -0.54 KCAL/MOL
REMARK 927      BINDING AFFINITY PREDICTED BY RF-SCORE:    0.00 PKD
ROOT
HETATM    1  C   UNL     1     -11.454   9.738  71.385  1.00  0.00    -0.435 C  
HETATM    2  C   UNL     1     -10.597   8.484  71.377  1.00  0.00    -0.312 C  
ENDROOT
BRANCH   2   3
HETATM    3  C   UNL     1      -9.289   8.699  70.642  1.00  0.00    -0.185 C  
HETATM    4  O   UNL     1      -8.427   7.835  70.518  1.00  0.00    -0.124 OA 
HETATM    5  N   UNL     1      -9.162   9.971  70.126  1.00  0.00    -0.384 N  
HETATM    6  H   UNL     1      -9.923  10.638  70.254  1.00  0.00     0.000 HD 
BRANCH   5   7
HETATM    7  C   UNL     1      -7.972  10.383  69.407  1.00  0.00    -0.157 C  
BRANCH   7   8
HETATM    8  C   UNL     1      -8.321  11.014  68.057  1.00  0.00    -0.125 C  
BRANCH   8   9
HETATM    9  C   UNL     1      -9.597  10.474  67.400  1.00  0.00    -0.181 C  
HETATM   10  C   UNL     1      -9.344   9.389  66.314  1.00  0.00    -0.253 C  
HETATM   11  C   UNL     1      -9.664  10.001  64.928  1.00  0.00    -0.377 C  
HETATM   12  C   UNL     1     -10.392  11.274  65.256  1.00  0.00    -0.337 A  
HETATM   13  C   UNL     1     -10.354  11.522  66.644  1.00  0.00    -0.262 A  
HETATM   14  C   UNL     1     -11.019  12.680  67.049  1.00  0.00    -0.300 A  
HETATM   15  C   UNL     1     -11.586  13.433  66.024  1.00  0.00    -0.344 A  
HETATM   16  O   UNL     1     -12.206  14.574  66.514  1.00  0.00    -0.381 OA 
HETATM   17  C   UNL     1     -11.599  13.185  64.664  1.00  0.00    -0.384 A  
HETATM   18  C   UNL     1     -10.972  12.035  64.253  1.00  0.00    -0.401 A  
HETATM   19  C   UNL     1     -12.027  14.547  67.954  1.00  0.00    -0.287 C  
HETATM   20  C   UNL     1     -11.240  13.295  68.360  1.00  0.00    -0.314 C  
ENDBRANCH   8   9
ENDBRANCH   7   8
ENDBRANCH   5   7
ENDBRANCH   2   3
TORSDOF 4
ENDMDL
MODEL      106
REMARK 921   NORMALIZED FREE ENERGY PREDICTED BY IDOCK:   -4.76 KCAL/MOL
REMARK 922        TOTAL FREE ENERGY PREDICTED BY IDOCK:   -6.08 KCAL/MOL
REMARK 923 INTER-LIGAND FREE ENERGY PREDICTED BY IDOCK:   -5.87 KCAL/MOL
REMARK 924 INTRA-LIGAND FREE ENERGY PREDICTED BY IDOCK:   -0.21 KCAL/MOL
REMARK 927      BINDING AFFINITY PREDICTED BY RF-SCORE:    0.00 PKD
ROOT
HETATM    1  C   UNL     1     -12.464  11.914  63.422  1.00  0.00    -0.582 C  
HETATM    2  C   UNL     1     -10.975  11.622  63.488  1.00  0.00    -0.485 C  
ENDROOT
BRANCH   2   3
HETATM    3  C   UNL     1     -10.538  11.233  64.885  1.00  0.00    -0.300 C  
HETATM    4  O   UNL     1      -9.726  10.345  65.123  1.00  0.00    -0.243 OA 
HETATM    5  N   UNL     1     -11.148  11.979  65.870  1.00  0.00    -0.313 N  
HETATM    6  H   UNL     1     -11.804  12.713  65.604  1.00  0.00     0.000 HD 
BRANCH   5   7
HETATM    7  C   UNL     1     -10.880  11.745  67.276  1.00  0.00    -0.253 C  
BRANCH   7   8
HETATM    8  C   UNL     1     -10.409  13.021  67.979  1.00  0.00    -0.237 C  
BRANCH   8   9
HETATM    9  C   UNL     1      -9.197  13.706  67.335  1.00  0.00    -0.222 C  
HETATM   10  C   UNL     1      -8.020  13.971  68.317  1.00  0.00    -0.146 C  
HETATM   11  C   UNL     1      -7.931  15.496  68.571  1.00  0.00    -0.137 C  
HETATM   12  C   UNL     1      -8.809  16.091  67.507  1.00  0.00    -0.198 A  
HETATM   13  C   UNL     1      -9.506  15.076  66.818  1.00  0.00    -0.263 A  
HETATM   14  C   UNL     1     -10.341  15.531  65.797  1.00  0.00    -0.384 A  
HETATM   15  C   UNL     1     -10.390  16.915  65.636  1.00  0.00    -0.237 A  
HETATM   16  O   UNL     1     -11.258  17.278  64.616  1.00  0.00    -1.014 OA 
HETATM   17  C   UNL     1      -9.713  17.897  66.333  1.00  0.00    -0.321 A  
HETATM   18  C   UNL     1      -8.867  17.463  67.323  1.00  0.00    -0.238 A  
HETATM   19  C   UNL     1     -11.799  16.041  64.083  1.00  0.00     0.114 C  
HETATM   20  C   UNL     1     -11.213  14.844  64.840  1.00  0.00    -0.415 C  
ENDBRANCH   8   9
ENDBRANCH   7   8
ENDBRANCH   5   7
ENDBRANCH   2   3
TORSDOF 4
ENDMDL
MODEL      107
REMARK 921   NORMALIZED FREE ENERGY PREDICTED BY IDOCK:   -4.76 KCAL/MOL
REMARK 922        TOTAL FREE ENERGY PREDICTED BY IDOCK:   -6.07 KCAL/MOL
REMARK 923 INTER-LIGAND FREE ENERGY PREDICTED BY IDOCK:   -5.68 KCAL/MOL
REMARK 924 INTRA-LIGAND FREE ENERGY PREDICTED BY IDOCK:   -0.40 KCAL/MOL
REMARK 927      BINDING AFFINITY PREDICTED BY RF-SCORE:    0.00 PKD
ROOT
HETATM    1  C   UNL     1      -7.482   9.432  64.290  1.00  0.00    -0.110 C  
HETATM    2  C   UNL     1      -8.440   8.784  65.275  1.00  0.00    -0.191 C  
ENDROOT
BRANCH   2   3
HETATM    3  C   UNL     1      -8.750   9.696  66.444  1.00  0.00    -0.134 C  
HETATM    4  O   UNL     1      -8.481   9.426  67.610  1.00  0.00    -0.118 OA 
HETATM    5  N   UNL     1      -9.371  10.867  66.066  1.00  0.00    -0.183 N  
HETATM    6  H   UNL     1      -9.554  11.037  65.077  1.00  0.00     0.000 HD 
BRANCH   5   7
HETATM    7  C   UNL     1      -9.771  11.864  67.041  1.00  0.00    -0.194 C  
BRANCH   7   8
HETATM    8  C   UNL     1     -11.265  11.772  67.358  1.00  0.00    -0.357 C  
BRANCH   8   9
HETATM    9  C   UNL     1     -12.139  12.836  66.683  1.00  0.00    -0.316 C  
HETATM   10  C   UNL     1     -12.317  12.634  65.150  1.00  0.00    -0.547 C  
HETATM   11  C   UNL     1     -11.527  13.746  64.417  1.00  0.00    -0.392 C  
HETATM   12  C   UNL     1     -11.198  14.731  65.503  1.00  0.00    -0.346 A  
HETATM   13  C   UNL     1     -11.554  14.211  66.765  1.00  0.00    -0.409 A  
HETATM   14  C   UNL     1     -11.299  15.063  67.841  1.00  0.00    -0.344 A  
HETATM   15  C   UNL     1     -10.700  16.278  67.512  1.00  0.00    -0.300 A  
HETATM   16  O   UNL     1     -10.464  17.050  68.641  1.00  0.00    -0.320 OA 
HETATM   17  C   UNL     1     -10.341  16.765  66.270  1.00  0.00    -0.316 A  
HETATM   18  C   UNL     1     -10.611  15.949  65.200  1.00  0.00    -0.421 A  
HETATM   19  C   UNL     1     -10.950  16.278  69.771  1.00  0.00    -0.354 C  
HETATM   20  C   UNL     1     -11.520  14.941  69.284  1.00  0.00    -0.324 C  
ENDBRANCH   8   9
ENDBRANCH   7   8
ENDBRANCH   5   7
ENDBRANCH   2   3
TORSDOF 4
ENDMDL
MODEL      108
REMARK 921   NORMALIZED FREE ENERGY PREDICTED BY IDOCK:   -4.75 KCAL/MOL
REMARK 922        TOTAL FREE ENERGY PREDICTED BY IDOCK:   -6.06 KCAL/MOL
REMARK 923 INTER-LIGAND FREE ENERGY PREDICTED BY IDOCK:   -5.80 KCAL/MOL
REMARK 924 INTRA-LIGAND FREE ENERGY PREDICTED BY IDOCK:   -0.26 KCAL/MOL
REMARK 927      BINDING AFFINITY PREDICTED BY RF-SCORE:    0.00 PKD
ROOT
HETATM    1  C   UNL     1      -7.199   9.448  64.260  1.00  0.00    -0.105 C  
HETATM    2  C   UNL     1      -8.548   9.295  64.941  1.00  0.00    -0.204 C  
ENDROOT
BRANCH   2   3
HETATM    3  C   UNL     1      -9.569  10.274  64.396  1.00  0.00    -0.316 C  
HETATM    4  O   UNL     1      -9.829  10.395  63.204  1.00  0.00    -0.299 OA 
HETATM    5  N   UNL     1     -10.177  11.023  65.381  1.00  0.00    -0.262 N  
HETATM    6  H   UNL     1      -9.925  10.863  66.356  1.00  0.00     0.000 HD 
BRANCH   5   7
HETATM    7  C   UNL     1     -11.169  12.033  65.063  1.00  0.00    -0.320 C  
BRANCH   7   8
HETATM    8  C   UNL     1     -11.937  12.478  66.309  1.00  0.00    -0.410 C  
BRANCH   8   9
HETATM    9  C   UNL     1     -11.169  12.340  67.629  1.00  0.00    -0.346 C  
HETATM   10  C   UNL     1     -11.601  11.120  68.493  1.00  0.00    -0.385 C  
HETATM   11  C   UNL     1     -12.357  11.648  69.737  1.00  0.00    -0.197 C  
HETATM   12  C   UNL     1     -12.062  13.121  69.741  1.00  0.00    -0.336 A  
HETATM   13  C   UNL     1     -11.390  13.492  68.558  1.00  0.00    -0.327 A  
HETATM   14  C   UNL     1     -11.059  14.846  68.474  1.00  0.00    -0.275 A  
HETATM   15  C   UNL     1     -11.474  15.629  69.549  1.00  0.00    -0.344 A  
HETATM   16  O   UNL     1     -11.123  16.961  69.373  1.00  0.00    -0.192 OA 
HETATM   17  C   UNL     1     -12.149  15.252  70.694  1.00  0.00    -0.399 A  
HETATM   18  C   UNL     1     -12.457  13.919  70.803  1.00  0.00    -0.445 A  
HETATM   19  C   UNL     1     -10.431  17.034  68.100  1.00  0.00    -0.357 C  
HETATM   20  C   UNL     1     -10.361  15.642  67.461  1.00  0.00    -0.277 C  
ENDBRANCH   8   9
ENDBRANCH   7   8
ENDBRANCH   5   7
ENDBRANCH   2   3
TORSDOF 4
ENDMDL
MODEL      109
REMARK 921   NORMALIZED FREE ENERGY PREDICTED BY IDOCK:   -4.73 KCAL/MOL
REMARK 922        TOTAL FREE ENERGY PREDICTED BY IDOCK:   -6.04 KCAL/MOL
REMARK 923 INTER-LIGAND FREE ENERGY PREDICTED BY IDOCK:   -5.68 KCAL/MOL
REMARK 924 INTRA-LIGAND FREE ENERGY PREDICTED BY IDOCK:   -0.36 KCAL/MOL
REMARK 927      BINDING AFFINITY PREDICTED BY RF-SCORE:    0.00 PKD
ROOT
HETATM    1  C   UNL     1     -10.994  12.360  63.683  1.00  0.00    -0.525 C  
HETATM    2  C   UNL     1     -12.189  12.983  64.383  1.00  0.00    -0.471 C  
ENDROOT
BRANCH   2   3
HETATM    3  C   UNL     1     -11.995  13.042  65.885  1.00  0.00    -0.435 C  
HETATM    4  O   UNL     1     -12.233  14.035  66.564  1.00  0.00    -0.447 OA 
HETATM    5  N   UNL     1     -11.520  11.861  66.416  1.00  0.00    -0.343 N  
HETATM    6  H   UNL     1     -11.357  11.068  65.797  1.00  0.00     0.000 HD 
BRANCH   5   7
HETATM    7  C   UNL     1     -11.248  11.722  67.834  1.00  0.00    -0.267 C  
BRANCH   7   8
HETATM    8  C   UNL     1      -9.750  11.828  68.131  1.00  0.00    -0.192 C  
BRANCH   8   9
HETATM    9  C   UNL     1      -8.930  10.579  67.786  1.00  0.00    -0.132 C  
HETATM   10  C   UNL     1      -8.702  10.368  66.261  1.00  0.00    -0.163 C  
HETATM   11  C   UNL     1      -9.544   9.151  65.806  1.00  0.00    -0.323 C  
HETATM   12  C   UNL     1      -9.962   8.499  67.093  1.00  0.00    -0.304 A  
HETATM   13  C   UNL     1      -9.605   9.306  68.193  1.00  0.00    -0.159 A  
HETATM   14  C   UNL     1      -9.940   8.776  69.440  1.00  0.00    -0.196 A  
HETATM   15  C   UNL     1     -10.608   7.553  69.409  1.00  0.00    -0.223 A  
HETATM   16  O   UNL     1     -10.921   7.113  70.688  1.00  0.00    -0.242 OA 
HETATM   17  C   UNL     1     -10.967   6.783  68.320  1.00  0.00    -0.270 A  
HETATM   18  C   UNL     1     -10.619   7.279  67.088  1.00  0.00    -0.416 A  
HETATM   19  C   UNL     1     -10.414   8.121  71.601  1.00  0.00    -0.228 C  
HETATM   20  C   UNL     1      -9.747   9.254  70.812  1.00  0.00    -0.348 C  
ENDBRANCH   8   9
ENDBRANCH   7   8
ENDBRANCH   5   7
ENDBRANCH   2   3
TORSDOF 4
ENDMDL
MODEL      110
REMARK 921   NORMALIZED FREE ENERGY PREDICTED BY IDOCK:   -4.70 KCAL/MOL
REMARK 922        TOTAL FREE ENERGY PREDICTED BY IDOCK:   -6.01 KCAL/MOL
REMARK 923 INTER-LIGAND FREE ENERGY PREDICTED BY IDOCK:   -5.50 KCAL/MOL
REMARK 924 INTRA-LIGAND FREE ENERGY PREDICTED BY IDOCK:   -0.51 KCAL/MOL
REMARK 927      BINDING AFFINITY PREDICTED BY RF-SCORE:    0.00 PKD
ROOT
HETATM    1  C   UNL     1     -11.987  13.701  69.927  1.00  0.00    -0.415 C  
HETATM    2  C   UNL     1     -11.905  12.398  69.153  1.00  0.00    -0.352 C  
ENDROOT
BRANCH   2   3
HETATM    3  C   UNL     1     -11.542  12.627  67.699  1.00  0.00    -0.357 C  
HETATM    4  O   UNL     1     -12.158  12.139  66.758  1.00  0.00    -0.609 OA 
HETATM    5  N   UNL     1     -10.442  13.443  67.539  1.00  0.00    -0.235 N  
HETATM    6  H   UNL     1      -9.983  13.827  68.365  1.00  0.00     0.000 HD 
BRANCH   5   7
HETATM    7  C   UNL     1      -9.922  13.766  66.224  1.00  0.00    -0.305 C  
BRANCH   7   8
HETATM    8  C   UNL     1      -9.287  15.158  66.198  1.00  0.00    -0.346 C  
BRANCH   8   9
HETATM    9  C   UNL     1      -9.892  16.165  67.184  1.00  0.00    -0.241 C  
HETATM   10  C   UNL     1     -10.886  17.172  66.536  1.00  0.00     0.057 C  
HETATM   11  C   UNL     1     -10.221  18.570  66.517  1.00  0.00    -0.440 C  
HETATM   12  C   UNL     1      -9.036  18.419  67.427  1.00  0.00    -0.265 A  
HETATM   13  C   UNL     1      -8.868  17.069  67.799  1.00  0.00    -0.223 A  
HETATM   14  C   UNL     1      -7.796  16.828  68.659  1.00  0.00    -0.241 A  
HETATM   15  C   UNL     1      -7.033  17.946  68.991  1.00  0.00    -0.243 A  
HETATM   16  O   UNL     1      -5.979  17.612  69.830  1.00  0.00    -0.242 OA 
HETATM   17  C   UNL     1      -7.201  19.262  68.603  1.00  0.00    -0.367 A  
HETATM   18  C   UNL     1      -8.268  19.518  67.778  1.00  0.00    -0.333 A  
HETATM   19  C   UNL     1      -6.077  16.182  70.055  1.00  0.00    -0.142 C  
HETATM   20  C   UNL     1      -7.280  15.612  69.294  1.00  0.00    -0.198 C  
ENDBRANCH   8   9
ENDBRANCH   7   8
ENDBRANCH   5   7
ENDBRANCH   2   3
TORSDOF 4
ENDMDL
MODEL      111
REMARK 921   NORMALIZED FREE ENERGY PREDICTED BY IDOCK:   -4.70 KCAL/MOL
REMARK 922        TOTAL FREE ENERGY PREDICTED BY IDOCK:   -6.00 KCAL/MOL
REMARK 923 INTER-LIGAND FREE ENERGY PREDICTED BY IDOCK:   -5.26 KCAL/MOL
REMARK 924 INTRA-LIGAND FREE ENERGY PREDICTED BY IDOCK:   -0.74 KCAL/MOL
REMARK 927      BINDING AFFINITY PREDICTED BY RF-SCORE:    0.00 PKD
ROOT
HETATM    1  C   UNL     1      -9.498   4.556  68.602  1.00  0.00    -0.220 C  
HETATM    2  C   UNL     1     -10.017   5.067  69.934  1.00  0.00    -0.322 C  
ENDROOT
BRANCH   2   3
HETATM    3  C   UNL     1     -11.062   6.149  69.755  1.00  0.00    -0.416 C  
HETATM    4  O   UNL     1     -11.175   6.826  68.738  1.00  0.00    -0.195 OA 
HETATM    5  N   UNL     1     -11.879   6.299  70.855  1.00  0.00    -0.243 N  
HETATM    6  H   UNL     1     -11.741   5.694  71.664  1.00  0.00     0.000 HD 
BRANCH   5   7
HETATM    7  C   UNL     1     -12.930   7.299  70.890  1.00  0.00    -0.062 C  
BRANCH   7   8
HETATM    8  C   UNL     1     -12.875   8.126  72.177  1.00  0.00    -0.311 C  
BRANCH   8   9
HETATM    9  C   UNL     1     -12.135   9.464  72.056  1.00  0.00    -0.379 C  
HETATM   10  C   UNL     1     -12.772  10.455  71.040  1.00  0.00    -0.490 C  
HETATM   11  C   UNL     1     -11.834  10.564  69.812  1.00  0.00    -0.329 C  
HETATM   12  C   UNL     1     -10.558   9.919  70.274  1.00  0.00    -0.359 A  
HETATM   13  C   UNL     1     -10.739   9.314  71.535  1.00  0.00    -0.425 A  
HETATM   14  C   UNL     1      -9.600   8.698  72.056  1.00  0.00    -0.385 A  
HETATM   15  C   UNL     1      -8.472   8.741  71.240  1.00  0.00    -0.186 A  
HETATM   16  O   UNL     1      -7.396   8.087  71.825  1.00  0.00    -0.067 OA 
HETATM   17  C   UNL     1      -8.316   9.323  69.996  1.00  0.00    -0.176 A  
HETATM   18  C   UNL     1      -9.421   9.957  69.483  1.00  0.00    -0.239 A  
HETATM   19  C   UNL     1      -7.867   7.597  73.107  1.00  0.00    -0.111 C  
HETATM   20  C   UNL     1      -9.337   7.984  73.308  1.00  0.00    -0.344 C  
ENDBRANCH   8   9
ENDBRANCH   7   8
ENDBRANCH   5   7
ENDBRANCH   2   3
TORSDOF 4
ENDMDL
MODEL      112
REMARK 921   NORMALIZED FREE ENERGY PREDICTED BY IDOCK:   -4.70 KCAL/MOL
REMARK 922        TOTAL FREE ENERGY PREDICTED BY IDOCK:   -6.00 KCAL/MOL
REMARK 923 INTER-LIGAND FREE ENERGY PREDICTED BY IDOCK:   -5.33 KCAL/MOL
REMARK 924 INTRA-LIGAND FREE ENERGY PREDICTED BY IDOCK:   -0.67 KCAL/MOL
REMARK 927      BINDING AFFINITY PREDICTED BY RF-SCORE:    0.00 PKD
ROOT
HETATM    1  C   UNL     1      -7.490  14.052  68.351  1.00  0.00    -0.119 C  
HETATM    2  C   UNL     1      -6.263  13.357  67.787  1.00  0.00    -0.160 C  
ENDROOT
BRANCH   2   3
HETATM    3  C   UNL     1      -6.597  11.990  67.226  1.00  0.00    -0.145 C  
HETATM    4  O   UNL     1      -5.967  10.972  67.491  1.00  0.00    -0.044 OA 
HETATM    5  N   UNL     1      -7.685  12.004  66.380  1.00  0.00    -0.370 N  
HETATM    6  H   UNL     1      -8.174  12.883  66.212  1.00  0.00     0.000 HD 
BRANCH   5   7
HETATM    7  C   UNL     1      -8.152  10.798  65.722  1.00  0.00    -0.135 C  
BRANCH   7   8
HETATM    8  C   UNL     1      -9.393  10.227  66.411  1.00  0.00    -0.201 C  
BRANCH   8   9
HETATM    9  C   UNL     1     -10.722  10.862  65.984  1.00  0.00    -0.208 C  
HETATM   10  C   UNL     1     -10.678  11.556  64.592  1.00  0.00    -0.379 C  
HETATM   11  C   UNL     1     -10.758  13.087  64.808  1.00  0.00    -0.370 C  
HETATM   12  C   UNL     1     -11.173  13.228  66.245  1.00  0.00    -0.321 A  
HETATM   13  C   UNL     1     -11.156  11.973  66.889  1.00  0.00    -0.352 A  
HETATM   14  C   UNL     1     -11.542  11.999  68.230  1.00  0.00    -0.394 A  
HETATM   15  C   UNL     1     -11.849  13.259  68.739  1.00  0.00    -0.334 A  
HETATM   16  O   UNL     1     -12.200  13.194  70.080  1.00  0.00    -0.329 OA 
HETATM   17  C   UNL     1     -11.843  14.484  68.098  1.00  0.00    -0.348 A  
HETATM   18  C   UNL     1     -11.492  14.470  66.771  1.00  0.00    -0.376 A  
HETATM   19  C   UNL     1     -12.117  11.795  70.454  1.00  0.00    -0.352 C  
HETATM   20  C   UNL     1     -11.683  10.955  69.248  1.00  0.00    -0.395 C  
ENDBRANCH   8   9
ENDBRANCH   7   8
ENDBRANCH   5   7
ENDBRANCH   2   3
TORSDOF 4
ENDMDL
MODEL      113
REMARK 921   NORMALIZED FREE ENERGY PREDICTED BY IDOCK:   -4.70 KCAL/MOL
REMARK 922        TOTAL FREE ENERGY PREDICTED BY IDOCK:   -6.00 KCAL/MOL
REMARK 923 INTER-LIGAND FREE ENERGY PREDICTED BY IDOCK:   -5.64 KCAL/MOL
REMARK 924 INTRA-LIGAND FREE ENERGY PREDICTED BY IDOCK:   -0.36 KCAL/MOL
REMARK 927      BINDING AFFINITY PREDICTED BY RF-SCORE:    0.00 PKD
ROOT
HETATM    1  C   UNL     1     -12.260  16.766  73.847  1.00  0.00    -0.293 C  
HETATM    2  C   UNL     1     -13.110  15.574  73.444  1.00  0.00    -0.651 C  
ENDROOT
BRANCH   2   3
HETATM    3  C   UNL     1     -13.243  15.459  71.939  1.00  0.00    -0.444 C  
HETATM    4  O   UNL     1     -14.205  14.945  71.377  1.00  0.00    -0.450 OA 
HETATM    5  N   UNL     1     -12.169  15.993  71.259  1.00  0.00    -0.560 N  
HETATM    6  H   UNL     1     -11.408  16.419  71.786  1.00  0.00     0.000 HD 
BRANCH   5   7
HETATM    7  C   UNL     1     -12.097  15.962  69.810  1.00  0.00    -0.215 C  
BRANCH   7   8
HETATM    8  C   UNL     1     -10.926  15.103  69.325  1.00  0.00    -0.260 C  
BRANCH   8   9
HETATM    9  C   UNL     1      -9.752  15.887  68.725  1.00  0.00    -0.216 C  
HETATM   10  C   UNL     1      -9.177  16.988  69.661  1.00  0.00     0.606 C  
HETATM   11  C   UNL     1      -9.557  18.372  69.078  1.00  0.00    -0.206 C  
HETATM   12  C   UNL     1     -10.035  18.058  67.688  1.00  0.00    -0.332 A  
HETATM   13  C   UNL     1     -10.132  16.664  67.502  1.00  0.00    -0.273 A  
HETATM   14  C   UNL     1     -10.556  16.271  66.232  1.00  0.00    -0.256 A  
HETATM   15  C   UNL     1     -10.855  17.311  65.354  1.00  0.00    -0.021 A  
HETATM   16  O   UNL     1     -11.288  16.832  64.126  1.00  0.00    -1.194 OA 
HETATM   17  C   UNL     1     -10.772  18.676  65.559  1.00  0.00     0.019 A  
HETATM   18  C   UNL     1     -10.330  19.076  66.795  1.00  0.00    -0.486 A  
HETATM   19  C   UNL     1     -11.260  15.384  64.222  1.00  0.00    -0.056 C  
HETATM   20  C   UNL     1     -10.774  14.961  65.613  1.00  0.00    -0.352 C  
ENDBRANCH   8   9
ENDBRANCH   7   8
ENDBRANCH   5   7
ENDBRANCH   2   3
TORSDOF 4
ENDMDL
MODEL      114
REMARK 921   NORMALIZED FREE ENERGY PREDICTED BY IDOCK:   -4.67 KCAL/MOL
REMARK 922        TOTAL FREE ENERGY PREDICTED BY IDOCK:   -5.97 KCAL/MOL
REMARK 923 INTER-LIGAND FREE ENERGY PREDICTED BY IDOCK:   -5.60 KCAL/MOL
REMARK 924 INTRA-LIGAND FREE ENERGY PREDICTED BY IDOCK:   -0.37 KCAL/MOL
REMARK 927      BINDING AFFINITY PREDICTED BY RF-SCORE:    0.00 PKD
ROOT
HETATM    1  C   UNL     1      -9.624  11.363  65.796  1.00  0.00    -0.260 C  
HETATM    2  C   UNL     1      -9.890  12.182  67.047  1.00  0.00    -0.212 C  
ENDROOT
BRANCH   2   3
HETATM    3  C   UNL     1     -10.931  11.532  67.936  1.00  0.00    -0.233 C  
HETATM    4  O   UNL     1     -12.084  11.308  67.583  1.00  0.00    -0.600 OA 
HETATM    5  N   UNL     1     -10.452  11.219  69.189  1.00  0.00    -0.344 N  
HETATM    6  H   UNL     1      -9.478  11.420  69.415  1.00  0.00     0.000 HD 
BRANCH   5   7
HETATM    7  C   UNL     1     -11.300  10.610  70.196  1.00  0.00    -0.323 C  
BRANCH   7   8
HETATM    8  C   UNL     1     -10.610   9.420  70.868  1.00  0.00    -0.390 C  
BRANCH   8   9
HETATM    9  C   UNL     1     -11.513   8.209  71.127  1.00  0.00    -0.304 C  
HETATM   10  C   UNL     1     -11.666   7.839  72.631  1.00  0.00    -0.364 C  
HETATM   11  C   UNL     1     -10.908   6.513  72.887  1.00  0.00    -0.288 C  
HETATM   12  C   UNL     1     -10.628   5.986  71.508  1.00  0.00    -0.295 A  
HETATM   13  C   UNL     1     -10.979   6.942  70.533  1.00  0.00    -0.313 A  
HETATM   14  C   UNL     1     -10.767   6.538  69.214  1.00  0.00    -0.329 A  
HETATM   15  C   UNL     1     -10.209   5.270  69.061  1.00  0.00    -0.199 A  
HETATM   16  O   UNL     1     -10.014   4.959  67.722  1.00  0.00    -0.161 OA 
HETATM   17  C   UNL     1      -9.853   4.351  70.029  1.00  0.00    -0.294 A  
HETATM   18  C   UNL     1     -10.081   4.725  71.330  1.00  0.00    -0.259 A  
HETATM   19  C   UNL     1     -10.485   6.105  66.966  1.00  0.00    -0.277 C  
HETATM   20  C   UNL     1     -11.001   7.187  67.922  1.00  0.00    -0.154 C  
ENDBRANCH   8   9
ENDBRANCH   7   8
ENDBRANCH   5   7
ENDBRANCH   2   3
TORSDOF 4
ENDMDL
MODEL      115
REMARK 921   NORMALIZED FREE ENERGY PREDICTED BY IDOCK:   -4.67 KCAL/MOL
REMARK 922        TOTAL FREE ENERGY PREDICTED BY IDOCK:   -5.96 KCAL/MOL
REMARK 923 INTER-LIGAND FREE ENERGY PREDICTED BY IDOCK:   -5.38 KCAL/MOL
REMARK 924 INTRA-LIGAND FREE ENERGY PREDICTED BY IDOCK:   -0.58 KCAL/MOL
REMARK 927      BINDING AFFINITY PREDICTED BY RF-SCORE:    0.00 PKD
ROOT
HETATM    1  C   UNL     1      -8.590   6.902  73.831  1.00  0.00    -0.168 C  
HETATM    2  C   UNL     1      -9.339   5.589  73.978  1.00  0.00    -0.134 C  
ENDROOT
BRANCH   2   3
HETATM    3  C   UNL     1     -10.386   5.412  72.896  1.00  0.00    -0.195 C  
HETATM    4  O   UNL     1     -11.520   4.995  73.107  1.00  0.00    -0.327 OA 
HETATM    5  N   UNL     1      -9.933   5.767  71.644  1.00  0.00    -0.171 N  
HETATM    6  H   UNL     1      -8.982   6.120  71.539  1.00  0.00     0.000 HD 
BRANCH   5   7
HETATM    7  C   UNL     1     -10.777   5.648  70.470  1.00  0.00    -0.274 C  
BRANCH   7   8
HETATM    8  C   UNL     1     -11.567   6.935  70.214  1.00  0.00    -0.362 C  
BRANCH   8   9
HETATM    9  C   UNL     1     -10.845   8.228  70.611  1.00  0.00    -0.254 C  
HETATM   10  C   UNL     1     -11.420   8.913  71.885  1.00  0.00    -0.442 C  
HETATM   11  C   UNL     1     -12.144  10.212  71.455  1.00  0.00    -0.475 C  
HETATM   12  C   UNL     1     -11.699  10.421  70.035  1.00  0.00    -0.366 A  
HETATM   13  C   UNL     1     -10.966   9.306  69.579  1.00  0.00    -0.169 A  
HETATM   14  C   UNL     1     -10.495   9.412  68.269  1.00  0.00    -0.260 A  
HETATM   15  C   UNL     1     -10.850  10.581  67.600  1.00  0.00    -0.300 A  
HETATM   16  O   UNL     1     -10.359  10.593  66.301  1.00  0.00    -0.242 OA 
HETATM   17  C   UNL     1     -11.585  11.658  68.057  1.00  0.00    -0.383 A  
HETATM   18  C   UNL     1     -12.032  11.580  69.352  1.00  0.00    -0.392 A  
HETATM   19  C   UNL     1      -9.637   9.346  66.129  1.00  0.00    -0.247 C  
HETATM   20  C   UNL     1      -9.697   8.522  67.421  1.00  0.00    -0.222 C  
ENDBRANCH   8   9
ENDBRANCH   7   8
ENDBRANCH   5   7
ENDBRANCH   2   3
TORSDOF 4
ENDMDL
MODEL      116
REMARK 921   NORMALIZED FREE ENERGY PREDICTED BY IDOCK:   -4.64 KCAL/MOL
REMARK 922        TOTAL FREE ENERGY PREDICTED BY IDOCK:   -5.92 KCAL/MOL
REMARK 923 INTER-LIGAND FREE ENERGY PREDICTED BY IDOCK:   -5.48 KCAL/MOL
REMARK 924 INTRA-LIGAND FREE ENERGY PREDICTED BY IDOCK:   -0.45 KCAL/MOL
REMARK 927      BINDING AFFINITY PREDICTED BY RF-SCORE:    0.00 PKD
ROOT
HETATM    1  C   UNL     1     -14.255  15.256  72.125  1.00  0.00    -0.667 C  
HETATM    2  C   UNL     1     -13.986  13.762  72.126  1.00  0.00    -0.638 C  
ENDROOT
BRANCH   2   3
HETATM    3  C   UNL     1     -12.721  13.416  71.366  1.00  0.00    -0.322 C  
HETATM    4  O   UNL     1     -11.820  14.218  71.141  1.00  0.00    -0.311 OA 
HETATM    5  N   UNL     1     -12.683  12.103  70.949  1.00  0.00    -0.249 N  
HETATM    6  H   UNL     1     -13.459  11.484  71.181  1.00  0.00     0.000 HD 
BRANCH   5   7
HETATM    7  C   UNL     1     -11.565  11.580  70.186  1.00  0.00    -0.249 C  
BRANCH   7   8
HETATM    8  C   UNL     1     -12.004  11.109  68.798  1.00  0.00    -0.337 C  
BRANCH   8   9
HETATM    9  C   UNL     1     -10.966  11.310  67.687  1.00  0.00    -0.312 C  
HETATM   10  C   UNL     1      -9.929  10.157  67.566  1.00  0.00    -0.231 C  
HETATM   11  C   UNL     1      -8.557  10.682  68.054  1.00  0.00    -0.122 C  
HETATM   12  C   UNL     1      -8.744  12.171  68.125  1.00  0.00    -0.185 A  
HETATM   13  C   UNL     1     -10.097  12.509  67.909  1.00  0.00    -0.214 A  
HETATM   14  C   UNL     1     -10.370  13.877  67.942  1.00  0.00    -0.240 A  
HETATM   15  C   UNL     1      -9.278  14.697  68.218  1.00  0.00    -0.198 A  
HETATM   16  O   UNL     1      -9.643  16.036  68.253  1.00  0.00    -0.206 OA 
HETATM   17  C   UNL     1      -7.960  14.348  68.445  1.00  0.00    -0.141 A  
HETATM   18  C   UNL     1      -7.671  13.007  68.389  1.00  0.00    -0.137 A  
HETATM   19  C   UNL     1     -11.067  16.075  67.974  1.00  0.00    -0.334 C  
HETATM   20  C   UNL     1     -11.598  14.654  67.757  1.00  0.00    -0.382 C  
ENDBRANCH   8   9
ENDBRANCH   7   8
ENDBRANCH   5   7
ENDBRANCH   2   3
TORSDOF 4
ENDMDL
MODEL      117
REMARK 921   NORMALIZED FREE ENERGY PREDICTED BY IDOCK:   -4.64 KCAL/MOL
REMARK 922        TOTAL FREE ENERGY PREDICTED BY IDOCK:   -5.92 KCAL/MOL
REMARK 923 INTER-LIGAND FREE ENERGY PREDICTED BY IDOCK:   -5.67 KCAL/MOL
REMARK 924 INTRA-LIGAND FREE ENERGY PREDICTED BY IDOCK:   -0.25 KCAL/MOL
REMARK 927      BINDING AFFINITY PREDICTED BY RF-SCORE:    0.00 PKD
ROOT
HETATM    1  C   UNL     1     -14.240   8.324  71.827  1.00  0.00    -0.544 C  
HETATM    2  C   UNL     1     -12.946   9.009  72.229  1.00  0.00    -0.490 C  
ENDROOT
BRANCH   2   3
HETATM    3  C   UNL     1     -12.658  10.221  71.367  1.00  0.00    -0.434 C  
HETATM    4  O   UNL     1     -12.753  11.378  71.763  1.00  0.00    -0.348 OA 
HETATM    5  N   UNL     1     -12.279   9.893  70.083  1.00  0.00    -0.485 N  
HETATM    6  H   UNL     1     -12.206   8.910  69.821  1.00  0.00     0.000 HD 
BRANCH   5   7
HETATM    7  C   UNL     1     -11.981  10.913  69.095  1.00  0.00    -0.288 C  
BRANCH   7   8
HETATM    8  C   UNL     1     -10.476  11.022  68.836  1.00  0.00    -0.229 C  
BRANCH   8   9
HETATM    9  C   UNL     1     -10.073  12.067  67.790  1.00  0.00    -0.199 C  
HETATM   10  C   UNL     1      -8.727  11.762  67.071  1.00  0.00    -0.181 C  
HETATM   11  C   UNL     1      -7.671  12.786  67.557  1.00  0.00    -0.168 C  
HETATM   12  C   UNL     1      -8.484  13.834  68.264  1.00  0.00    -0.173 A  
HETATM   13  C   UNL     1      -9.827  13.421  68.380  1.00  0.00    -0.216 A  
HETATM   14  C   UNL     1     -10.668  14.338  69.013  1.00  0.00    -0.259 A  
HETATM   15  C   UNL     1     -10.049  15.501  69.467  1.00  0.00    -0.278 A  
HETATM   16  O   UNL     1     -10.951  16.344  70.101  1.00  0.00    -0.349 OA 
HETATM   17  C   UNL     1      -8.725  15.882  69.361  1.00  0.00    -0.198 A  
HETATM   18  C   UNL     1      -7.892  15.002  68.716  1.00  0.00    -0.151 A  
HETATM   19  C   UNL     1     -12.239  15.676  70.045  1.00  0.00    -0.327 C  
HETATM   20  C   UNL     1     -12.100  14.330  69.324  1.00  0.00    -0.351 C  
ENDBRANCH   8   9
ENDBRANCH   7   8
ENDBRANCH   5   7
ENDBRANCH   2   3
TORSDOF 4
ENDMDL
MODEL      118
REMARK 921   NORMALIZED FREE ENERGY PREDICTED BY IDOCK:   -4.62 KCAL/MOL
REMARK 922        TOTAL FREE ENERGY PREDICTED BY IDOCK:   -5.91 KCAL/MOL
REMARK 923 INTER-LIGAND FREE ENERGY PREDICTED BY IDOCK:   -5.56 KCAL/MOL
REMARK 924 INTRA-LIGAND FREE ENERGY PREDICTED BY IDOCK:   -0.35 KCAL/MOL
REMARK 927      BINDING AFFINITY PREDICTED BY RF-SCORE:    0.00 PKD
ROOT
HETATM    1  C   UNL     1     -12.089  12.976  64.446  1.00  0.00    -0.473 C  
HETATM    2  C   UNL     1     -11.117  14.063  64.873  1.00  0.00    -0.378 C  
ENDROOT
BRANCH   2   3
HETATM    3  C   UNL     1     -10.892  14.061  66.371  1.00  0.00    -0.299 C  
HETATM    4  O   UNL     1      -9.940  14.608  66.918  1.00  0.00    -0.245 OA 
HETATM    5  N   UNL     1     -11.869  13.378  67.064  1.00  0.00    -0.384 N  
HETATM    6  H   UNL     1     -12.642  12.958  66.549  1.00  0.00     0.000 HD 
BRANCH   5   7
HETATM    7  C   UNL     1     -11.822  13.242  68.507  1.00  0.00    -0.349 C  
BRANCH   7   8
HETATM    8  C   UNL     1     -10.959  12.052  68.932  1.00  0.00    -0.277 C  
BRANCH   8   9
HETATM    9  C   UNL     1     -11.734  10.763  69.232  1.00  0.00    -0.374 C  
HETATM   10  C   UNL     1     -12.900  10.943  70.247  1.00  0.00    -0.209 C  
HETATM   11  C   UNL     1     -12.504  10.247  71.572  1.00  0.00    -0.524 C  
HETATM   12  C   UNL     1     -11.307   9.419  71.202  1.00  0.00    -0.422 A  
HETATM   13  C   UNL     1     -10.892   9.713  69.887  1.00  0.00    -0.287 A  
HETATM   14  C   UNL     1      -9.789   8.981  69.444  1.00  0.00    -0.183 A  
HETATM   15  C   UNL     1      -9.243   8.101  70.377  1.00  0.00    -0.151 A  
HETATM   16  O   UNL     1      -8.142   7.432  69.862  1.00  0.00    -0.121 OA 
HETATM   17  C   UNL     1      -9.652   7.838  71.671  1.00  0.00    -0.191 A  
HETATM   18  C   UNL     1     -10.752   8.531  72.110  1.00  0.00    -0.426 A  
HETATM   19  C   UNL     1      -7.973   7.914  68.503  1.00  0.00    -0.121 C  
HETATM   20  C   UNL     1      -9.054   8.951  68.177  1.00  0.00    -0.142 C  
ENDBRANCH   8   9
ENDBRANCH   7   8
ENDBRANCH   5   7
ENDBRANCH   2   3
TORSDOF 4
ENDMDL
MODEL      119
REMARK 921   NORMALIZED FREE ENERGY PREDICTED BY IDOCK:   -4.62 KCAL/MOL
REMARK 922        TOTAL FREE ENERGY PREDICTED BY IDOCK:   -5.91 KCAL/MOL
REMARK 923 INTER-LIGAND FREE ENERGY PREDICTED BY IDOCK:   -5.60 KCAL/MOL
REMARK 924 INTRA-LIGAND FREE ENERGY PREDICTED BY IDOCK:   -0.31 KCAL/MOL
REMARK 927      BINDING AFFINITY PREDICTED BY RF-SCORE:    0.00 PKD
ROOT
HETATM    1  C   UNL     1      -8.769  10.093  67.847  1.00  0.00    -0.122 C  
HETATM    2  C   UNL     1     -10.274  10.180  68.036  1.00  0.00    -0.205 C  
ENDROOT
BRANCH   2   3
HETATM    3  C   UNL     1     -10.827  11.505  67.551  1.00  0.00    -0.237 C  
HETATM    4  O   UNL     1     -11.990  11.670  67.200  1.00  0.00    -0.614 OA 
HETATM    5  N   UNL     1      -9.886  12.513  67.542  1.00  0.00    -0.196 N  
HETATM    6  H   UNL     1      -8.939  12.312  67.861  1.00  0.00     0.000 HD 
BRANCH   5   7
HETATM    7  C   UNL     1     -10.212  13.852  67.090  1.00  0.00    -0.258 C  
BRANCH   7   8
HETATM    8  C   UNL     1      -8.960  14.721  66.959  1.00  0.00    -0.258 C  
BRANCH   8   9
HETATM    9  C   UNL     1      -8.711  15.682  68.129  1.00  0.00    -0.168 C  
HETATM   10  C   UNL     1      -9.728  15.538  69.298  1.00  0.00    -0.272 C  
HETATM   11  C   UNL     1     -10.640  16.789  69.308  1.00  0.00    -0.336 C  
HETATM   12  C   UNL     1      -9.940  17.753  68.392  1.00  0.00    -0.362 A  
HETATM   13  C   UNL     1      -8.858  17.121  67.745  1.00  0.00    -0.225 A  
HETATM   14  C   UNL     1      -8.134  17.943  66.879  1.00  0.00    -0.250 A  
HETATM   15  C   UNL     1      -8.610  19.247  66.757  1.00  0.00    -0.307 A  
HETATM   16  O   UNL     1      -7.846  19.985  65.863  1.00  0.00    -0.336 OA 
HETATM   17  C   UNL     1      -9.685  19.846  67.386  1.00  0.00    -0.519 A  
HETATM   18  C   UNL     1     -10.390  19.057  68.261  1.00  0.00    -0.415 A  
HETATM   19  C   UNL     1      -6.807  19.092  65.383  1.00  0.00    -0.204 C  
HETATM   20  C   UNL     1      -6.957  17.714  66.038  1.00  0.00    -0.318 C  
ENDBRANCH   8   9
ENDBRANCH   7   8
ENDBRANCH   5   7
ENDBRANCH   2   3
TORSDOF 4
ENDMDL
MODEL      120
REMARK 921   NORMALIZED FREE ENERGY PREDICTED BY IDOCK:   -4.62 KCAL/MOL
REMARK 922        TOTAL FREE ENERGY PREDICTED BY IDOCK:   -5.90 KCAL/MOL
REMARK 923 INTER-LIGAND FREE ENERGY PREDICTED BY IDOCK:   -6.05 KCAL/MOL
REMARK 924 INTRA-LIGAND FREE ENERGY PREDICTED BY IDOCK:    0.15 KCAL/MOL
REMARK 927      BINDING AFFINITY PREDICTED BY RF-SCORE:    0.00 PKD
ROOT
HETATM    1  C   UNL     1      -9.977  10.748  63.331  1.00  0.00    -0.385 C  
HETATM    2  C   UNL     1     -10.578  12.143  63.328  1.00  0.00    -0.367 C  
ENDROOT
BRANCH   2   3
HETATM    3  C   UNL     1     -11.554  12.339  64.471  1.00  0.00    -0.353 C  
HETATM    4  O   UNL     1     -12.625  12.925  64.359  1.00  0.00    -0.598 OA 
HETATM    5  N   UNL     1     -11.115  11.791  65.657  1.00  0.00    -0.304 N  
HETATM    6  H   UNL     1     -10.219  11.303  65.678  1.00  0.00     0.000 HD 
BRANCH   5   7
HETATM    7  C   UNL     1     -11.896  11.891  66.875  1.00  0.00    -0.096 C  
BRANCH   7   8
HETATM    8  C   UNL     1     -11.381  10.934  67.953  1.00  0.00    -0.380 C  
BRANCH   8   9
HETATM    9  C   UNL     1     -11.000  11.598  69.281  1.00  0.00    -0.246 C  
HETATM   10  C   UNL     1     -11.890  11.174  70.485  1.00  0.00    -0.448 C  
HETATM   11  C   UNL     1     -12.779  12.378  70.881  1.00  0.00    -0.273 C  
HETATM   12  C   UNL     1     -12.167  13.537  70.146  1.00  0.00    -0.400 A  
HETATM   13  C   UNL     1     -11.167  13.086  69.260  1.00  0.00    -0.259 A  
HETATM   14  C   UNL     1     -10.527  14.095  68.539  1.00  0.00    -0.252 A  
HETATM   15  C   UNL     1     -10.995  15.386  68.774  1.00  0.00    -0.264 A  
HETATM   16  O   UNL     1     -10.320  16.321  68.001  1.00  0.00    -0.261 OA 
HETATM   17  C   UNL     1     -11.991  15.810  69.634  1.00  0.00    -0.332 A  
HETATM   18  C   UNL     1     -12.610  14.831  70.370  1.00  0.00    -0.399 A  
HETATM   19  C   UNL     1      -9.348  15.577  67.221  1.00  0.00    -0.212 C  
HETATM   20  C   UNL     1      -9.447  14.082  67.548  1.00  0.00    -0.221 C  
ENDBRANCH   8   9
ENDBRANCH   7   8
ENDBRANCH   5   7
ENDBRANCH   2   3
TORSDOF 4
ENDMDL
MODEL      121
REMARK 921   NORMALIZED FREE ENERGY PREDICTED BY IDOCK:   -4.61 KCAL/MOL
REMARK 922        TOTAL FREE ENERGY PREDICTED BY IDOCK:   -5.89 KCAL/MOL
REMARK 923 INTER-LIGAND FREE ENERGY PREDICTED BY IDOCK:   -5.38 KCAL/MOL
REMARK 924 INTRA-LIGAND FREE ENERGY PREDICTED BY IDOCK:   -0.51 KCAL/MOL
REMARK 927      BINDING AFFINITY PREDICTED BY RF-SCORE:    0.00 PKD
ROOT
HETATM    1  C   UNL     1     -10.156  11.305  63.995  1.00  0.00    -0.382 C  
HETATM    2  C   UNL     1     -11.505  11.777  63.483  1.00  0.00    -0.489 C  
ENDROOT
BRANCH   2   3
HETATM    3  C   UNL     1     -11.852  13.159  63.997  1.00  0.00    -0.453 C  
HETATM    4  O   UNL     1     -12.659  13.906  63.453  1.00  0.00    -0.853 OA 
HETATM    5  N   UNL     1     -11.165  13.497  65.143  1.00  0.00    -0.302 N  
HETATM    6  H   UNL     1     -10.518  12.824  65.552  1.00  0.00     0.000 HD 
BRANCH   5   7
HETATM    7  C   UNL     1     -11.340  14.789  65.780  1.00  0.00    -0.336 C  
BRANCH   7   8
HETATM    8  C   UNL     1     -12.075  14.661  67.116  1.00  0.00    -0.218 C  
BRANCH   8   9
HETATM    9  C   UNL     1     -11.245  15.031  68.351  1.00  0.00    -0.303 C  
HETATM   10  C   UNL     1     -11.050  16.562  68.553  1.00  0.00    -0.335 C  
HETATM   11  C   UNL     1      -9.571  16.909  68.254  1.00  0.00    -0.258 C  
HETATM   12  C   UNL     1      -8.887  15.572  68.217  1.00  0.00    -0.179 A  
HETATM   13  C   UNL     1      -9.836  14.530  68.280  1.00  0.00    -0.229 A  
HETATM   14  C   UNL     1      -9.294  13.244  68.266  1.00  0.00    -0.205 A  
HETATM   15  C   UNL     1      -7.906  13.182  68.154  1.00  0.00    -0.145 A  
HETATM   16  O   UNL     1      -7.456  11.869  68.126  1.00  0.00    -0.086 OA 
HETATM   17  C   UNL     1      -6.991  14.214  68.075  1.00  0.00    -0.149 A  
HETATM   18  C   UNL     1      -7.507  15.485  68.115  1.00  0.00    -0.119 A  
HETATM   19  C   UNL     1      -8.638  11.033  68.233  1.00  0.00    -0.143 C  
HETATM   20  C   UNL     1      -9.892  11.908  68.331  1.00  0.00    -0.201 C  
ENDBRANCH   8   9
ENDBRANCH   7   8
ENDBRANCH   5   7
ENDBRANCH   2   3
TORSDOF 4
ENDMDL
MODEL      122
REMARK 921   NORMALIZED FREE ENERGY PREDICTED BY IDOCK:   -4.61 KCAL/MOL
REMARK 922        TOTAL FREE ENERGY PREDICTED BY IDOCK:   -5.89 KCAL/MOL
REMARK 923 INTER-LIGAND FREE ENERGY PREDICTED BY IDOCK:   -5.49 KCAL/MOL
REMARK 924 INTRA-LIGAND FREE ENERGY PREDICTED BY IDOCK:   -0.40 KCAL/MOL
REMARK 927      BINDING AFFINITY PREDICTED BY RF-SCORE:    0.00 PKD
ROOT
HETATM    1  C   UNL     1      -9.877  19.838  68.189  1.00  0.00    -0.536 C  
HETATM    2  C   UNL     1      -9.542  18.372  68.400  1.00  0.00    -0.366 C  
ENDROOT
BRANCH   2   3
HETATM    3  C   UNL     1     -10.324  17.473  67.464  1.00  0.00    -0.356 C  
HETATM    4  O   UNL     1     -10.453  17.688  66.263  1.00  0.00    -0.349 OA 
HETATM    5  N   UNL     1     -10.883  16.385  68.100  1.00  0.00    -0.337 N  
HETATM    6  H   UNL     1     -10.725  16.258  69.099  1.00  0.00     0.000 HD 
BRANCH   5   7
HETATM    7  C   UNL     1     -11.689  15.417  67.381  1.00  0.00    -0.031 C  
BRANCH   7   8
HETATM    8  C   UNL     1     -11.073  14.017  67.441  1.00  0.00    -0.317 C  
BRANCH   8   9
HETATM    9  C   UNL     1     -10.014  13.728  66.370  1.00  0.00    -0.301 C  
HETATM   10  C   UNL     1     -10.430  14.154  64.932  1.00  0.00    -0.461 C  
HETATM   11  C   UNL     1     -10.689  12.873  64.100  1.00  0.00    -0.443 C  
HETATM   12  C   UNL     1     -10.111  11.772  64.944  1.00  0.00    -0.298 A  
HETATM   13  C   UNL     1      -9.730  12.267  66.208  1.00  0.00    -0.254 A  
HETATM   14  C   UNL     1      -9.167  11.317  67.062  1.00  0.00    -0.173 A  
HETATM   15  C   UNL     1      -9.100  10.022  66.553  1.00  0.00    -0.148 A  
HETATM   16  O   UNL     1      -8.548   9.142  67.474  1.00  0.00    -0.116 OA 
HETATM   17  C   UNL     1      -9.495   9.550  65.316  1.00  0.00    -0.326 A  
HETATM   18  C   UNL     1     -10.026  10.478  64.455  1.00  0.00    -0.413 A  
HETATM   19  C   UNL     1      -8.236   9.930  68.652  1.00  0.00    -0.108 C  
HETATM   20  C   UNL     1      -8.630  11.393  68.423  1.00  0.00    -0.156 C  
ENDBRANCH   8   9
ENDBRANCH   7   8
ENDBRANCH   5   7
ENDBRANCH   2   3
TORSDOF 4
ENDMDL
MODEL      123
REMARK 921   NORMALIZED FREE ENERGY PREDICTED BY IDOCK:   -4.60 KCAL/MOL
REMARK 922        TOTAL FREE ENERGY PREDICTED BY IDOCK:   -5.87 KCAL/MOL
REMARK 923 INTER-LIGAND FREE ENERGY PREDICTED BY IDOCK:   -5.11 KCAL/MOL
REMARK 924 INTRA-LIGAND FREE ENERGY PREDICTED BY IDOCK:   -0.76 KCAL/MOL
REMARK 927      BINDING AFFINITY PREDICTED BY RF-SCORE:    0.00 PKD
ROOT
HETATM    1  C   UNL     1      -6.930   8.218  68.185  1.00  0.00    -0.077 C  
HETATM    2  C   UNL     1      -7.338   7.705  66.815  1.00  0.00    -0.089 C  
ENDROOT
BRANCH   2   3
HETATM    3  C   UNL     1      -8.509   6.748  66.896  1.00  0.00    -0.115 C  
HETATM    4  O   UNL     1      -8.985   6.168  65.926  1.00  0.00    -0.157 OA 
HETATM    5  N   UNL     1      -8.991   6.592  68.178  1.00  0.00    -0.118 N  
HETATM    6  H   UNL     1      -8.541   7.093  68.944  1.00  0.00     0.000 HD 
BRANCH   5   7
HETATM    7  C   UNL     1     -10.125   5.733  68.464  1.00  0.00    -0.178 C  
BRANCH   7   8
HETATM    8  C   UNL     1     -11.161   6.443  69.338  1.00  0.00    -0.459 C  
BRANCH   8   9
HETATM    9  C   UNL     1     -10.584   7.455  70.336  1.00  0.00    -0.238 C  
HETATM   10  C   UNL     1     -10.797   7.071  71.828  1.00  0.00    -0.250 C  
HETATM   11  C   UNL     1     -11.839   8.042  72.437  1.00  0.00    -0.429 C  
HETATM   12  C   UNL     1     -11.951   9.138  71.416  1.00  0.00    -0.410 A  
HETATM   13  C   UNL     1     -11.237   8.800  70.248  1.00  0.00    -0.212 A  
HETATM   14  C   UNL     1     -11.270   9.767  69.242  1.00  0.00    -0.128 A  
HETATM   15  C   UNL     1     -12.030  10.899  69.527  1.00  0.00    -0.330 A  
HETATM   16  O   UNL     1     -12.024  11.795  68.467  1.00  0.00    -0.406 OA 
HETATM   17  C   UNL     1     -12.739  11.208  70.672  1.00  0.00    -0.350 A  
HETATM   18  C   UNL     1     -12.694  10.278  71.681  1.00  0.00    -0.561 A  
HETATM   19  C   UNL     1     -11.199  11.197  67.434  1.00  0.00    -0.294 C  
HETATM   20  C   UNL     1     -10.669   9.839  67.908  1.00  0.00    -0.312 C  
ENDBRANCH   8   9
ENDBRANCH   7   8
ENDBRANCH   5   7
ENDBRANCH   2   3
TORSDOF 4
ENDMDL
MODEL      124
REMARK 921   NORMALIZED FREE ENERGY PREDICTED BY IDOCK:   -4.59 KCAL/MOL
REMARK 922        TOTAL FREE ENERGY PREDICTED BY IDOCK:   -5.87 KCAL/MOL
REMARK 923 INTER-LIGAND FREE ENERGY PREDICTED BY IDOCK:   -5.58 KCAL/MOL
REMARK 924 INTRA-LIGAND FREE ENERGY PREDICTED BY IDOCK:   -0.29 KCAL/MOL
REMARK 927      BINDING AFFINITY PREDICTED BY RF-SCORE:    0.00 PKD
ROOT
HETATM    1  C   UNL     1      -8.823  19.491  67.060  1.00  0.00    -0.356 C  
HETATM    2  C   UNL     1     -10.204  18.878  67.219  1.00  0.00    -0.454 C  
ENDROOT
BRANCH   2   3
HETATM    3  C   UNL     1     -10.559  17.980  66.052  1.00  0.00    -0.251 C  
HETATM    4  O   UNL     1     -10.944  18.395  64.964  1.00  0.00    -0.644 OA 
HETATM    5  N   UNL     1     -10.409  16.639  66.336  1.00  0.00    -0.311 N  
HETATM    6  H   UNL     1     -10.071  16.361  67.257  1.00  0.00     0.000 HD 
BRANCH   5   7
HETATM    7  C   UNL     1     -10.720  15.616  65.356  1.00  0.00    -0.408 C  
BRANCH   7   8
HETATM    8  C   UNL     1     -11.065  14.283  66.026  1.00  0.00    -0.319 C  
BRANCH   8   9
HETATM    9  C   UNL     1      -9.925  13.648  66.831  1.00  0.00    -0.260 C  
HETATM   10  C   UNL     1      -8.942  12.793  65.979  1.00  0.00     0.242 C  
HETATM   11  C   UNL     1      -9.158  11.302  66.336  1.00  0.00    -0.201 C  
HETATM   12  C   UNL     1      -9.992  11.347  67.585  1.00  0.00    -0.196 A  
HETATM   13  C   UNL     1     -10.407  12.667  67.854  1.00  0.00    -0.221 A  
HETATM   14  C   UNL     1     -11.179  12.814  69.008  1.00  0.00    -0.317 A  
HETATM   15  C   UNL     1     -11.453  11.634  69.697  1.00  0.00    -0.288 A  
HETATM   16  O   UNL     1     -12.241  11.869  70.815  1.00  0.00    -0.376 OA 
HETATM   17  C   UNL     1     -11.053  10.343  69.409  1.00  0.00    -0.304 A  
HETATM   18  C   UNL     1     -10.271  10.187  68.291  1.00  0.00    -0.192 A  
HETATM   19  C   UNL     1     -12.483  13.300  70.847  1.00  0.00    -0.342 C  
HETATM   20  C   UNL     1     -11.790  13.976  69.658  1.00  0.00    -0.386 C  
ENDBRANCH   8   9
ENDBRANCH   7   8
ENDBRANCH   5   7
ENDBRANCH   2   3
TORSDOF 4
ENDMDL
MODEL      125
REMARK 921   NORMALIZED FREE ENERGY PREDICTED BY IDOCK:   -4.59 KCAL/MOL
REMARK 922        TOTAL FREE ENERGY PREDICTED BY IDOCK:   -5.86 KCAL/MOL
REMARK 923 INTER-LIGAND FREE ENERGY PREDICTED BY IDOCK:   -5.40 KCAL/MOL
REMARK 924 INTRA-LIGAND FREE ENERGY PREDICTED BY IDOCK:   -0.46 KCAL/MOL
REMARK 927      BINDING AFFINITY PREDICTED BY RF-SCORE:    0.00 PKD
ROOT
HETATM    1  C   UNL     1     -11.320  15.077  71.405  1.00  0.00    -0.327 C  
HETATM    2  C   UNL     1     -12.737  14.922  71.932  1.00  0.00    -0.395 C  
ENDROOT
BRANCH   2   3
HETATM    3  C   UNL     1     -13.182  13.474  71.934  1.00  0.00    -0.422 C  
HETATM    4  O   UNL     1     -14.122  13.051  72.599  1.00  0.00    -0.643 OA 
HETATM    5  N   UNL     1     -12.420  12.673  71.111  1.00  0.00    -0.310 N  
HETATM    6  H   UNL     1     -11.661  13.090  70.574  1.00  0.00     0.000 HD 
BRANCH   5   7
HETATM    7  C   UNL     1     -12.673  11.249  70.991  1.00  0.00    -0.359 C  
BRANCH   7   8
HETATM    8  C   UNL     1     -11.378  10.466  70.760  1.00  0.00    -0.370 C  
BRANCH   8   9
HETATM    9  C   UNL     1     -11.357   9.609  69.489  1.00  0.00    -0.080 C  
HETATM   10  C   UNL     1     -10.647   8.234  69.659  1.00  0.00    -0.222 C  
HETATM   11  C   UNL     1      -9.312   8.275  68.877  1.00  0.00    -0.147 C  
HETATM   12  C   UNL     1      -9.431   9.506  68.023  1.00  0.00    -0.147 A  
HETATM   13  C   UNL     1     -10.585  10.238  68.371  1.00  0.00    -0.247 A  
HETATM   14  C   UNL     1     -10.791  11.397  67.620  1.00  0.00    -0.286 A  
HETATM   15  C   UNL     1      -9.811  11.674  66.670  1.00  0.00    -0.200 A  
HETATM   16  O   UNL     1     -10.083  12.851  65.986  1.00  0.00    -0.275 OA 
HETATM   17  C   UNL     1      -8.675  10.954  66.353  1.00  0.00    -0.174 A  
HETATM   18  C   UNL     1      -8.473   9.798  67.065  1.00  0.00    -0.117 A  
HETATM   19  C   UNL     1     -11.327  13.360  66.535  1.00  0.00    -0.320 C  
HETATM   20  C   UNL     1     -11.841  12.419  67.630  1.00  0.00    -0.363 C  
ENDBRANCH   8   9
ENDBRANCH   7   8
ENDBRANCH   5   7
ENDBRANCH   2   3
TORSDOF 4
ENDMDL
MODEL      126
REMARK 921   NORMALIZED FREE ENERGY PREDICTED BY IDOCK:   -4.57 KCAL/MOL
REMARK 922        TOTAL FREE ENERGY PREDICTED BY IDOCK:   -5.85 KCAL/MOL
REMARK 923 INTER-LIGAND FREE ENERGY PREDICTED BY IDOCK:   -5.24 KCAL/MOL
REMARK 924 INTRA-LIGAND FREE ENERGY PREDICTED BY IDOCK:   -0.61 KCAL/MOL
REMARK 927      BINDING AFFINITY PREDICTED BY RF-SCORE:    0.00 PKD
ROOT
HETATM    1  C   UNL     1     -12.173  10.793  69.922  1.00  0.00    -0.384 C  
HETATM    2  C   UNL     1     -12.514  11.565  71.185  1.00  0.00    -0.442 C  
ENDROOT
BRANCH   2   3
HETATM    3  C   UNL     1     -12.573  13.058  70.934  1.00  0.00    -0.280 C  
HETATM    4  O   UNL     1     -13.157  13.850  71.667  1.00  0.00    -0.334 OA 
HETATM    5  N   UNL     1     -11.903  13.441  69.792  1.00  0.00    -0.328 N  
HETATM    6  H   UNL     1     -11.426  12.734  69.234  1.00  0.00     0.000 HD 
BRANCH   5   7
HETATM    7  C   UNL     1     -11.861  14.827  69.365  1.00  0.00    -0.323 C  
BRANCH   7   8
HETATM    8  C   UNL     1     -10.541  15.159  68.665  1.00  0.00    -0.234 C  
BRANCH   8   9
HETATM    9  C   UNL     1     -10.481  14.779  67.181  1.00  0.00    -0.265 C  
HETATM   10  C   UNL     1     -11.873  14.545  66.526  1.00  0.00    -0.367 C  
HETATM   11  C   UNL     1     -12.031  13.031  66.243  1.00  0.00    -0.477 C  
HETATM   12  C   UNL     1     -10.643  12.484  66.421  1.00  0.00    -0.271 A  
HETATM   13  C   UNL     1      -9.785  13.475  66.939  1.00  0.00    -0.261 A  
HETATM   14  C   UNL     1      -8.464  13.065  67.128  1.00  0.00    -0.176 A  
HETATM   15  C   UNL     1      -8.202  11.733  66.812  1.00  0.00    -0.147 A  
HETATM   16  O   UNL     1      -6.874  11.406  67.049  1.00  0.00    -0.115 OA 
HETATM   17  C   UNL     1      -9.061  10.768  66.322  1.00  0.00    -0.192 A  
HETATM   18  C   UNL     1     -10.357  11.165  66.106  1.00  0.00    -0.302 A  
HETATM   19  C   UNL     1      -6.241  12.614  67.546  1.00  0.00    -0.159 C  
HETATM   20  C   UNL     1      -7.265  13.752  67.614  1.00  0.00    -0.183 C  
ENDBRANCH   8   9
ENDBRANCH   7   8
ENDBRANCH   5   7
ENDBRANCH   2   3
TORSDOF 4
ENDMDL
MODEL      127
REMARK 921   NORMALIZED FREE ENERGY PREDICTED BY IDOCK:   -4.57 KCAL/MOL
REMARK 922        TOTAL FREE ENERGY PREDICTED BY IDOCK:   -5.85 KCAL/MOL
REMARK 923 INTER-LIGAND FREE ENERGY PREDICTED BY IDOCK:   -5.43 KCAL/MOL
REMARK 924 INTRA-LIGAND FREE ENERGY PREDICTED BY IDOCK:   -0.42 KCAL/MOL
REMARK 927      BINDING AFFINITY PREDICTED BY RF-SCORE:    0.00 PKD
ROOT
HETATM    1  C   UNL     1      -5.999   8.054  70.671  1.00  0.00    -0.033 C  
HETATM    2  C   UNL     1      -7.276   7.902  71.479  1.00  0.00    -0.067 C  
ENDROOT
BRANCH   2   3
HETATM    3  C   UNL     1      -8.350   8.868  71.023  1.00  0.00    -0.191 C  
HETATM    4  O   UNL     1      -9.374   9.098  71.658  1.00  0.00    -0.302 OA 
HETATM    5  N   UNL     1      -8.062   9.466  69.815  1.00  0.00    -0.117 N  
HETATM    6  H   UNL     1      -7.186   9.241  69.345  1.00  0.00     0.000 HD 
BRANCH   5   7
HETATM    7  C   UNL     1      -8.976  10.407  69.197  1.00  0.00    -0.179 C  
BRANCH   7   8
HETATM    8  C   UNL     1      -9.944   9.705  68.241  1.00  0.00    -0.178 C  
BRANCH   8   9
HETATM    9  C   UNL     1     -11.209  10.501  67.898  1.00  0.00    -0.358 C  
HETATM   10  C   UNL     1     -10.984  11.636  66.857  1.00  0.00    -0.342 C  
HETATM   11  C   UNL     1     -11.106  12.997  67.586  1.00  0.00    -0.296 C  
HETATM   12  C   UNL     1     -11.711  12.642  68.915  1.00  0.00    -0.370 A  
HETATM   13  C   UNL     1     -11.770  11.242  69.072  1.00  0.00    -0.410 A  
HETATM   14  C   UNL     1     -12.332  10.812  70.275  1.00  0.00    -0.423 A  
HETATM   15  C   UNL     1     -12.715  11.826  71.151  1.00  0.00    -0.305 A  
HETATM   16  O   UNL     1     -13.243  11.310  72.327  1.00  0.00    -0.402 OA 
HETATM   17  C   UNL     1     -12.634  13.196  70.988  1.00  0.00    -0.397 A  
HETATM   18  C   UNL     1     -12.108  13.634  69.799  1.00  0.00    -0.396 A  
HETATM   19  C   UNL     1     -13.199   9.865  72.191  1.00  0.00    -0.415 C  
HETATM   20  C   UNL     1     -12.600   9.484  70.833  1.00  0.00    -0.251 C  
ENDBRANCH   8   9
ENDBRANCH   7   8
ENDBRANCH   5   7
ENDBRANCH   2   3
TORSDOF 4
ENDMDL
MODEL      128
REMARK 921   NORMALIZED FREE ENERGY PREDICTED BY IDOCK:   -4.56 KCAL/MOL
REMARK 922        TOTAL FREE ENERGY PREDICTED BY IDOCK:   -5.83 KCAL/MOL
REMARK 923 INTER-LIGAND FREE ENERGY PREDICTED BY IDOCK:   -5.49 KCAL/MOL
REMARK 924 INTRA-LIGAND FREE ENERGY PREDICTED BY IDOCK:   -0.34 KCAL/MOL
REMARK 927      BINDING AFFINITY PREDICTED BY RF-SCORE:    0.00 PKD
ROOT
HETATM    1  C   UNL     1     -13.133   9.594  71.628  1.00  0.00    -0.503 C  
HETATM    2  C   UNL     1     -13.159  11.112  71.644  1.00  0.00    -0.529 C  
ENDROOT
BRANCH   2   3
HETATM    3  C   UNL     1     -12.272  11.703  70.567  1.00  0.00    -0.361 C  
HETATM    4  O   UNL     1     -11.731  11.039  69.689  1.00  0.00    -0.269 OA 
HETATM    5  N   UNL     1     -12.132  13.070  70.673  1.00  0.00    -0.508 N  
HETATM    6  H   UNL     1     -12.620  13.565  71.419  1.00  0.00     0.000 HD 
BRANCH   5   7
HETATM    7  C   UNL     1     -11.304  13.822  69.749  1.00  0.00    -0.134 C  
BRANCH   7   8
HETATM    8  C   UNL     1     -12.072  14.188  68.476  1.00  0.00    -0.312 C  
BRANCH   8   9
HETATM    9  C   UNL     1     -11.227  14.227  67.197  1.00  0.00    -0.333 C  
HETATM   10  C   UNL     1     -10.892  12.825  66.612  1.00  0.00    -0.288 C  
HETATM   11  C   UNL     1      -9.383  12.554  66.828  1.00  0.00    -0.230 C  
HETATM   12  C   UNL     1      -8.827  13.895  67.216  1.00  0.00    -0.227 A  
HETATM   13  C   UNL     1      -9.870  14.824  67.411  1.00  0.00    -0.222 A  
HETATM   14  C   UNL     1      -9.451  16.108  67.762  1.00  0.00    -0.217 A  
HETATM   15  C   UNL     1      -8.074  16.270  67.902  1.00  0.00    -0.146 A  
HETATM   16  O   UNL     1      -7.750  17.568  68.271  1.00  0.00    -0.228 OA 
HETATM   17  C   UNL     1      -7.065  15.343  67.724  1.00  0.00    -0.185 A  
HETATM   18  C   UNL     1      -7.460  14.082  67.352  1.00  0.00    -0.147 A  
HETATM   19  C   UNL     1      -9.006  18.288  68.370  1.00  0.00    -0.309 C  
HETATM   20  C   UNL     1     -10.174  17.353  68.035  1.00  0.00    -0.345 C  
ENDBRANCH   8   9
ENDBRANCH   7   8
ENDBRANCH   5   7
ENDBRANCH   2   3
TORSDOF 4
ENDMDL
MODEL      129
REMARK 921   NORMALIZED FREE ENERGY PREDICTED BY IDOCK:   -4.56 KCAL/MOL
REMARK 922        TOTAL FREE ENERGY PREDICTED BY IDOCK:   -5.83 KCAL/MOL
REMARK 923 INTER-LIGAND FREE ENERGY PREDICTED BY IDOCK:   -5.35 KCAL/MOL
REMARK 924 INTRA-LIGAND FREE ENERGY PREDICTED BY IDOCK:   -0.48 KCAL/MOL
REMARK 927      BINDING AFFINITY PREDICTED BY RF-SCORE:    0.00 PKD
ROOT
HETATM    1  C   UNL     1      -6.497  13.123  67.819  1.00  0.00    -0.153 C  
HETATM    2  C   UNL     1      -6.049  12.843  69.243  1.00  0.00    -0.099 C  
ENDROOT
BRANCH   2   3
HETATM    3  C   UNL     1      -6.692  11.589  69.800  1.00  0.00    -0.047 C  
HETATM    4  O   UNL     1      -6.266  10.980  70.776  1.00  0.00    -0.343 OA 
HETATM    5  N   UNL     1      -7.810  11.197  69.095  1.00  0.00    -0.306 N  
HETATM    6  H   UNL     1      -8.120  11.756  68.301  1.00  0.00     0.000 HD 
BRANCH   5   7
HETATM    7  C   UNL     1      -8.556  10.006  69.457  1.00  0.00    -0.186 C  
BRANCH   7   8
HETATM    8  C   UNL     1     -10.054  10.297  69.577  1.00  0.00    -0.260 C  
BRANCH   8   9
HETATM    9  C   UNL     1     -10.912   9.768  68.421  1.00  0.00    -0.200 C  
HETATM   10  C   UNL     1     -10.449   8.391  67.863  1.00  0.00    -0.255 C  
HETATM   11  C   UNL     1      -9.842   8.614  66.456  1.00  0.00    -0.348 C  
HETATM   12  C   UNL     1     -10.259  10.013  66.101  1.00  0.00    -0.283 A  
HETATM   13  C   UNL     1     -10.863  10.644  67.208  1.00  0.00    -0.345 A  
HETATM   14  C   UNL     1     -11.299  11.949  66.971  1.00  0.00    -0.392 A  
HETATM   15  C   UNL     1     -11.039  12.443  65.694  1.00  0.00    -0.306 A  
HETATM   16  O   UNL     1     -11.485  13.750  65.554  1.00  0.00    -0.305 OA 
HETATM   17  C   UNL     1     -10.428  11.816  64.625  1.00  0.00    -0.347 A  
HETATM   18  C   UNL     1     -10.019  10.523  64.834  1.00  0.00    -0.401 A  
HETATM   19  C   UNL     1     -12.076  14.116  66.828  1.00  0.00    -0.442 C  
HETATM   20  C   UNL     1     -11.977  12.941  67.808  1.00  0.00    -0.336 C  
ENDBRANCH   8   9
ENDBRANCH   7   8
ENDBRANCH   5   7
ENDBRANCH   2   3
TORSDOF 4
ENDMDL
MODEL      130
REMARK 921   NORMALIZED FREE ENERGY PREDICTED BY IDOCK:   -4.56 KCAL/MOL
REMARK 922        TOTAL FREE ENERGY PREDICTED BY IDOCK:   -5.82 KCAL/MOL
REMARK 923 INTER-LIGAND FREE ENERGY PREDICTED BY IDOCK:   -5.53 KCAL/MOL
REMARK 924 INTRA-LIGAND FREE ENERGY PREDICTED BY IDOCK:   -0.30 KCAL/MOL
REMARK 927      BINDING AFFINITY PREDICTED BY RF-SCORE:    0.00 PKD
ROOT
HETATM    1  C   UNL     1      -7.373   7.667  63.988  1.00  0.00    -0.092 C  
HETATM    2  C   UNL     1      -7.938   6.652  64.966  1.00  0.00    -0.124 C  
ENDROOT
BRANCH   2   3
HETATM    3  C   UNL     1      -8.555   7.320  66.178  1.00  0.00    -0.149 C  
HETATM    4  O   UNL     1      -8.309   6.995  67.335  1.00  0.00    -0.121 OA 
HETATM    5  N   UNL     1      -9.427   8.336  65.850  1.00  0.00    -0.430 N  
HETATM    6  H   UNL     1      -9.577   8.566  64.868  1.00  0.00     0.000 HD 
BRANCH   5   7
HETATM    7  C   UNL     1     -10.138   9.085  66.869  1.00  0.00    -0.267 C  
BRANCH   7   8
HETATM    8  C   UNL     1      -9.918  10.592  66.715  1.00  0.00    -0.252 C  
BRANCH   8   9
HETATM    9  C   UNL     1     -11.013  11.331  65.936  1.00  0.00    -0.221 C  
HETATM   10  C   UNL     1     -10.848  11.268  64.390  1.00  0.00    -0.373 C  
HETATM   11  C   UNL     1     -10.441  12.674  63.885  1.00  0.00    -0.441 C  
HETATM   12  C   UNL     1     -10.700  13.570  65.064  1.00  0.00    -0.366 A  
HETATM   13  C   UNL     1     -11.027  12.804  66.203  1.00  0.00    -0.310 A  
HETATM   14  C   UNL     1     -11.299  13.551  67.350  1.00  0.00    -0.338 A  
HETATM   15  C   UNL     1     -11.171  14.931  67.209  1.00  0.00    -0.345 A  
HETATM   16  O   UNL     1     -11.439  15.591  68.400  1.00  0.00    -0.337 OA 
HETATM   17  C   UNL     1     -10.832  15.665  66.088  1.00  0.00    -0.264 A  
HETATM   18  C   UNL     1     -10.588  14.946  64.945  1.00  0.00    -0.417 A  
HETATM   19  C   UNL     1     -11.764  14.562  69.371  1.00  0.00    -0.318 C  
HETATM   20  C   UNL     1     -11.687  13.179  68.713  1.00  0.00    -0.363 C  
ENDBRANCH   8   9
ENDBRANCH   7   8
ENDBRANCH   5   7
ENDBRANCH   2   3
TORSDOF 4
ENDMDL
MODEL      131
REMARK 921   NORMALIZED FREE ENERGY PREDICTED BY IDOCK:   -4.53 KCAL/MOL
REMARK 922        TOTAL FREE ENERGY PREDICTED BY IDOCK:   -5.80 KCAL/MOL
REMARK 923 INTER-LIGAND FREE ENERGY PREDICTED BY IDOCK:   -5.39 KCAL/MOL
REMARK 924 INTRA-LIGAND FREE ENERGY PREDICTED BY IDOCK:   -0.40 KCAL/MOL
REMARK 927      BINDING AFFINITY PREDICTED BY RF-SCORE:    0.00 PKD
ROOT
HETATM    1  C   UNL     1      -5.374  10.492  64.130  1.00  0.00    -0.150 C  
HETATM    2  C   UNL     1      -6.176   9.311  63.610  1.00  0.00    -0.090 C  
ENDROOT
BRANCH   2   3
HETATM    3  C   UNL     1      -7.664   9.502  63.823  1.00  0.00    -0.126 C  
HETATM    4  O   UNL     1      -8.400   8.644  64.299  1.00  0.00    -0.165 OA 
HETATM    5  N   UNL     1      -8.111  10.744  63.426  1.00  0.00    -0.359 N  
HETATM    6  H   UNL     1      -7.444  11.417  63.051  1.00  0.00     0.000 HD 
BRANCH   5   7
HETATM    7  C   UNL     1      -9.510  11.115  63.527  1.00  0.00    -0.276 C  
BRANCH   7   8
HETATM    8  C   UNL     1      -9.773  11.986  64.758  1.00  0.00    -0.108 C  
BRANCH   8   9
HETATM    9  C   UNL     1     -11.215  11.956  65.278  1.00  0.00    -0.351 C  
HETATM   10  C   UNL     1     -12.038  13.235  64.948  1.00  0.00    -0.440 C  
HETATM   11  C   UNL     1     -12.265  14.021  66.262  1.00  0.00    -0.493 C  
HETATM   12  C   UNL     1     -11.875  13.047  67.338  1.00  0.00    -0.411 A  
HETATM   13  C   UNL     1     -11.297  11.892  66.771  1.00  0.00    -0.393 A  
HETATM   14  C   UNL     1     -10.913  10.918  67.694  1.00  0.00    -0.350 A  
HETATM   15  C   UNL     1     -11.125  11.246  69.032  1.00  0.00    -0.244 A  
HETATM   16  O   UNL     1     -10.697  10.233  69.878  1.00  0.00    -0.262 OA 
HETATM   17  C   UNL     1     -11.678  12.392  69.572  1.00  0.00    -0.388 A  
HETATM   18  C   UNL     1     -12.084  13.348  68.674  1.00  0.00    -0.281 A  
HETATM   19  C   UNL     1     -10.179   9.180  69.022  1.00  0.00    -0.207 C  
HETATM   20  C   UNL     1     -10.305   9.592  67.551  1.00  0.00    -0.297 C  
ENDBRANCH   8   9
ENDBRANCH   7   8
ENDBRANCH   5   7
ENDBRANCH   2   3
TORSDOF 4
ENDMDL
MODEL      132
REMARK 921   NORMALIZED FREE ENERGY PREDICTED BY IDOCK:   -4.53 KCAL/MOL
REMARK 922        TOTAL FREE ENERGY PREDICTED BY IDOCK:   -5.79 KCAL/MOL
REMARK 923 INTER-LIGAND FREE ENERGY PREDICTED BY IDOCK:   -5.59 KCAL/MOL
REMARK 924 INTRA-LIGAND FREE ENERGY PREDICTED BY IDOCK:   -0.20 KCAL/MOL
REMARK 927      BINDING AFFINITY PREDICTED BY RF-SCORE:    0.00 PKD
ROOT
HETATM    1  C   UNL     1     -14.409  15.142  72.183  1.00  0.00    -0.647 C  
HETATM    2  C   UNL     1     -12.994  14.876  72.667  1.00  0.00    -0.504 C  
ENDROOT
BRANCH   2   3
HETATM    3  C   UNL     1     -11.959  15.304  71.647  1.00  0.00    -0.372 C  
HETATM    4  O   UNL     1     -11.497  16.438  71.579  1.00  0.00    -0.389 OA 
HETATM    5  N   UNL     1     -11.587  14.286  70.795  1.00  0.00    -0.507 N  
HETATM    6  H   UNL     1     -12.000  13.361  70.915  1.00  0.00     0.000 HD 
BRANCH   5   7
HETATM    7  C   UNL     1     -10.622  14.499  69.733  1.00  0.00     0.014 C  
BRANCH   7   8
HETATM    8  C   UNL     1     -11.225  14.197  68.358  1.00  0.00    -0.289 C  
BRANCH   8   9
HETATM    9  C   UNL     1     -10.326  14.546  67.166  1.00  0.00    -0.265 C  
HETATM   10  C   UNL     1      -9.465  13.358  66.649  1.00  0.00    -0.264 C  
HETATM   11  C   UNL     1      -7.986  13.632  67.015  1.00  0.00     0.047 C  
HETATM   12  C   UNL     1      -7.977  15.079  67.422  1.00  0.00    -0.218 A  
HETATM   13  C   UNL     1      -9.293  15.579  67.494  1.00  0.00    -0.207 A  
HETATM   14  C   UNL     1      -9.389  16.924  67.852  1.00  0.00    -0.238 A  
HETATM   15  C   UNL     1      -8.177  17.558  68.119  1.00  0.00    -0.251 A  
HETATM   16  O   UNL     1      -8.366  18.883  68.487  1.00  0.00    -0.329 OA 
HETATM   17  C   UNL     1      -6.894  17.048  68.061  1.00  0.00    -0.166 A  
HETATM   18  C   UNL     1      -6.783  15.733  67.684  1.00  0.00    -0.198 A  
HETATM   19  C   UNL     1      -9.799  19.115  68.447  1.00  0.00    -0.404 C  
HETATM   20  C   UNL     1     -10.525  17.833  68.025  1.00  0.00    -0.399 C  
ENDBRANCH   8   9
ENDBRANCH   7   8
ENDBRANCH   5   7
ENDBRANCH   2   3
TORSDOF 4
ENDMDL
MODEL      133
REMARK 921   NORMALIZED FREE ENERGY PREDICTED BY IDOCK:   -4.52 KCAL/MOL
REMARK 922        TOTAL FREE ENERGY PREDICTED BY IDOCK:   -5.79 KCAL/MOL
REMARK 923 INTER-LIGAND FREE ENERGY PREDICTED BY IDOCK:   -4.81 KCAL/MOL
REMARK 924 INTRA-LIGAND FREE ENERGY PREDICTED BY IDOCK:   -0.98 KCAL/MOL
REMARK 927      BINDING AFFINITY PREDICTED BY RF-SCORE:    0.00 PKD
ROOT
HETATM    1  C   UNL     1      -6.931   7.313  71.132  1.00  0.00    -0.060 C  
HETATM    2  C   UNL     1      -7.124   7.859  72.535  1.00  0.00    -0.095 C  
ENDROOT
BRANCH   2   3
HETATM    3  C   UNL     1      -8.584   8.127  72.840  1.00  0.00    -0.205 C  
HETATM    4  O   UNL     1      -9.098   7.934  73.937  1.00  0.00    -0.273 OA 
HETATM    5  N   UNL     1      -9.283   8.609  71.754  1.00  0.00    -0.247 N  
HETATM    6  H   UNL     1      -8.792   8.760  70.873  1.00  0.00     0.000 HD 
BRANCH   5   7
HETATM    7  C   UNL     1     -10.701   8.907  71.835  1.00  0.00    -0.356 C  
BRANCH   7   8
HETATM    8  C   UNL     1     -11.452   8.404  70.600  1.00  0.00    -0.235 C  
BRANCH   8   9
HETATM    9  C   UNL     1     -11.920   6.946  70.675  1.00  0.00    -0.400 C  
HETATM   10  C   UNL     1     -12.068   6.398  72.124  1.00  0.00    -0.316 C  
HETATM   11  C   UNL     1     -10.936   5.371  72.374  1.00  0.00    -0.298 C  
HETATM   12  C   UNL     1     -10.381   5.103  71.004  1.00  0.00    -0.278 A  
HETATM   13  C   UNL     1     -10.946   5.987  70.062  1.00  0.00    -0.450 A  
HETATM   14  C   UNL     1     -10.502   5.807  68.751  1.00  0.00    -0.312 A  
HETATM   15  C   UNL     1      -9.543   4.811  68.578  1.00  0.00    -0.156 A  
HETATM   16  O   UNL     1      -9.143   4.715  67.252  1.00  0.00    -0.115 OA 
HETATM   17  C   UNL     1      -8.985   3.964  69.517  1.00  0.00    -0.168 A  
HETATM   18  C   UNL     1      -9.433   4.112  70.806  1.00  0.00    -0.242 A  
HETATM   19  C   UNL     1      -9.902   5.717  66.525  1.00  0.00    -0.168 C  
HETATM   20  C   UNL     1     -10.828   6.471  67.487  1.00  0.00    -0.433 C  
ENDBRANCH   8   9
ENDBRANCH   7   8
ENDBRANCH   5   7
ENDBRANCH   2   3
TORSDOF 4
ENDMDL
MODEL      134
REMARK 921   NORMALIZED FREE ENERGY PREDICTED BY IDOCK:   -4.52 KCAL/MOL
REMARK 922        TOTAL FREE ENERGY PREDICTED BY IDOCK:   -5.78 KCAL/MOL
REMARK 923 INTER-LIGAND FREE ENERGY PREDICTED BY IDOCK:   -5.47 KCAL/MOL
REMARK 924 INTRA-LIGAND FREE ENERGY PREDICTED BY IDOCK:   -0.32 KCAL/MOL
REMARK 927      BINDING AFFINITY PREDICTED BY RF-SCORE:    0.00 PKD
ROOT
HETATM    1  C   UNL     1     -10.742  11.634  63.335  1.00  0.00    -0.460 C  
HETATM    2  C   UNL     1     -10.745  12.907  64.162  1.00  0.00    -0.443 C  
ENDROOT
BRANCH   2   3
HETATM    3  C   UNL     1     -11.463  12.719  65.484  1.00  0.00    -0.337 C  
HETATM    4  O   UNL     1     -12.684  12.716  65.602  1.00  0.00    -0.540 OA 
HETATM    5  N   UNL     1     -10.602  12.553  66.547  1.00  0.00    -0.239 N  
HETATM    6  H   UNL     1      -9.596  12.552  66.378  1.00  0.00     0.000 HD 
BRANCH   5   7
HETATM    7  C   UNL     1     -11.092  12.380  67.902  1.00  0.00    -0.239 C  
BRANCH   7   8
HETATM    8  C   UNL     1     -11.306  10.902  68.237  1.00  0.00    -0.374 C  
BRANCH   8   9
HETATM    9  C   UNL     1     -10.509  10.390  69.443  1.00  0.00    -0.261 C  
HETATM   10  C   UNL     1      -9.028  10.032  69.123  1.00  0.00    -0.172 C  
HETATM   11  C   UNL     1      -8.874   8.492  69.186  1.00  0.00    -0.142 C  
HETATM   12  C   UNL     1     -10.141   8.030  69.849  1.00  0.00    -0.198 A  
HETATM   13  C   UNL     1     -11.043   9.104  69.993  1.00  0.00    -0.208 A  
HETATM   14  C   UNL     1     -12.249   8.775  70.614  1.00  0.00     0.052 A  
HETATM   15  C   UNL     1     -12.395   7.434  70.963  1.00  0.00    -0.268 A  
HETATM   16  O   UNL     1     -13.628   7.192  71.553  1.00  0.00    -0.380 OA 
HETATM   17  C   UNL     1     -11.506   6.388  70.797  1.00  0.00    -0.415 A  
HETATM   18  C   UNL     1     -10.305   6.702  70.212  1.00  0.00    -0.235 A  
HETATM   19  C   UNL     1     -14.317   8.469  71.590  1.00  0.00    -0.413 C  
HETATM   20  C   UNL     1     -13.432   9.560  70.975  1.00  0.00    -0.196 C  
ENDBRANCH   8   9
ENDBRANCH   7   8
ENDBRANCH   5   7
ENDBRANCH   2   3
TORSDOF 4
ENDMDL
MODEL      135
REMARK 921   NORMALIZED FREE ENERGY PREDICTED BY IDOCK:   -4.51 KCAL/MOL
REMARK 922        TOTAL FREE ENERGY PREDICTED BY IDOCK:   -5.77 KCAL/MOL
REMARK 923 INTER-LIGAND FREE ENERGY PREDICTED BY IDOCK:   -5.49 KCAL/MOL
REMARK 924 INTRA-LIGAND FREE ENERGY PREDICTED BY IDOCK:   -0.28 KCAL/MOL
REMARK 927      BINDING AFFINITY PREDICTED BY RF-SCORE:    0.00 PKD
ROOT
HETATM    1  C   UNL     1      -9.225   2.974  64.563  1.00  0.00    -0.140 C  
HETATM    2  C   UNL     1     -10.388   3.821  65.051  1.00  0.00    -0.043 C  
ENDROOT
BRANCH   2   3
HETATM    3  C   UNL     1      -9.930   4.925  65.982  1.00  0.00    -0.223 C  
HETATM    4  O   UNL     1      -8.755   5.129  66.271  1.00  0.00    -0.116 OA 
HETATM    5  N   UNL     1     -10.971   5.682  66.476  1.00  0.00    -0.695 N  
HETATM    6  H   UNL     1     -11.924   5.468  66.184  1.00  0.00     0.000 HD 
BRANCH   5   7
HETATM    7  C   UNL     1     -10.742   6.775  67.402  1.00  0.00    -0.335 C  
BRANCH   7   8
HETATM    8  C   UNL     1     -10.880   8.134  66.712  1.00  0.00     0.144 C  
BRANCH   8   9
HETATM    9  C   UNL     1     -10.071   9.270  67.349  1.00  0.00    -0.280 C  
HETATM   10  C   UNL     1     -10.123   9.294  68.904  1.00  0.00    -0.207 C  
HETATM   11  C   UNL     1     -10.966  10.517  69.344  1.00  0.00    -0.297 C  
HETATM   12  C   UNL     1     -11.095  11.336  68.091  1.00  0.00    -0.319 A  
HETATM   13  C   UNL     1     -10.582  10.628  66.984  1.00  0.00    -0.317 A  
HETATM   14  C   UNL     1     -10.645  11.316  65.771  1.00  0.00    -0.306 A  
HETATM   15  C   UNL     1     -11.236  12.576  65.829  1.00  0.00    -0.320 A  
HETATM   16  O   UNL     1     -11.276  13.177  64.578  1.00  0.00    -0.324 OA 
HETATM   17  C   UNL     1     -11.750  13.249  66.921  1.00  0.00    -0.437 A  
HETATM   18  C   UNL     1     -11.670  12.596  68.126  1.00  0.00    -0.396 A  
HETATM   19  C   UNL     1     -10.664  12.238  63.657  1.00  0.00    -0.467 C  
HETATM   20  C   UNL     1     -10.223  10.977  64.409  1.00  0.00    -0.409 C  
ENDBRANCH   8   9
ENDBRANCH   7   8
ENDBRANCH   5   7
ENDBRANCH   2   3
TORSDOF 4
ENDMDL
MODEL      136
REMARK 921   NORMALIZED FREE ENERGY PREDICTED BY IDOCK:   -4.50 KCAL/MOL
REMARK 922        TOTAL FREE ENERGY PREDICTED BY IDOCK:   -5.75 KCAL/MOL
REMARK 923 INTER-LIGAND FREE ENERGY PREDICTED BY IDOCK:   -6.18 KCAL/MOL
REMARK 924 INTRA-LIGAND FREE ENERGY PREDICTED BY IDOCK:    0.43 KCAL/MOL
REMARK 927      BINDING AFFINITY PREDICTED BY RF-SCORE:    0.00 PKD
ROOT
HETATM    1  C   UNL     1     -11.750  12.565  66.886  1.00  0.00    -0.447 C  
HETATM    2  C   UNL     1     -11.617  12.709  68.392  1.00  0.00    -0.370 C  
ENDROOT
BRANCH   2   3
HETATM    3  C   UNL     1     -10.560  13.726  68.771  1.00  0.00    -0.239 C  
HETATM    4  O   UNL     1     -10.815  14.837  69.224  1.00  0.00    -0.250 OA 
HETATM    5  N   UNL     1      -9.275  13.278  68.551  1.00  0.00    -0.355 N  
HETATM    6  H   UNL     1      -9.132  12.337  68.184  1.00  0.00     0.000 HD 
BRANCH   5   7
HETATM    7  C   UNL     1      -8.122  14.113  68.828  1.00  0.00    -0.088 C  
BRANCH   7   8
HETATM    8  C   UNL     1      -8.528  15.568  69.074  1.00  0.00    -0.229 C  
BRANCH   8   9
HETATM    9  C   UNL     1      -7.913  16.585  68.105  1.00  0.00    -0.163 C  
HETATM   10  C   UNL     1      -7.238  17.801  68.802  1.00  0.00    -0.271 C  
HETATM   11  C   UNL     1      -8.110  19.056  68.547  1.00  0.00    -0.385 C  
HETATM   12  C   UNL     1      -9.057  18.622  67.463  1.00  0.00    -0.293 A  
HETATM   13  C   UNL     1      -8.930  17.239  67.221  1.00  0.00    -0.233 A  
HETATM   14  C   UNL     1      -9.763  16.742  66.217  1.00  0.00    -0.318 A  
HETATM   15  C   UNL     1     -10.616  17.676  65.633  1.00  0.00    -0.135 A  
HETATM   16  O   UNL     1     -11.420  17.094  64.664  1.00  0.00    -0.754 OA 
HETATM   17  C   UNL     1     -10.741  19.027  65.895  1.00  0.00    -0.404 A  
HETATM   18  C   UNL     1      -9.909  19.535  66.862  1.00  0.00    -0.476 A  
HETATM   19  C   UNL     1     -11.052  15.690  64.620  1.00  0.00    -0.373 C  
HETATM   20  C   UNL     1      -9.944  15.407  65.641  1.00  0.00    -0.396 C  
ENDBRANCH   8   9
ENDBRANCH   7   8
ENDBRANCH   5   7
ENDBRANCH   2   3
TORSDOF 4
ENDMDL
MODEL      137
REMARK 921   NORMALIZED FREE ENERGY PREDICTED BY IDOCK:   -4.49 KCAL/MOL
REMARK 922        TOTAL FREE ENERGY PREDICTED BY IDOCK:   -5.74 KCAL/MOL
REMARK 923 INTER-LIGAND FREE ENERGY PREDICTED BY IDOCK:   -5.43 KCAL/MOL
REMARK 924 INTRA-LIGAND FREE ENERGY PREDICTED BY IDOCK:   -0.32 KCAL/MOL
REMARK 927      BINDING AFFINITY PREDICTED BY RF-SCORE:    0.00 PKD
ROOT
HETATM    1  C   UNL     1     -11.991  12.956  63.550  1.00  0.00    -0.629 C  
HETATM    2  C   UNL     1     -11.381  11.589  63.807  1.00  0.00    -0.420 C  
ENDROOT
BRANCH   2   3
HETATM    3  C   UNL     1     -10.525  11.578  65.057  1.00  0.00    -0.290 C  
HETATM    4  O   UNL     1     -10.202  12.590  65.670  1.00  0.00    -0.260 OA 
HETATM    5  N   UNL     1     -10.141  10.311  65.439  1.00  0.00    -0.298 N  
HETATM    6  H   UNL     1     -10.456   9.509  64.893  1.00  0.00     0.000 HD 
BRANCH   5   7
HETATM    7  C   UNL     1      -9.299  10.090  66.600  1.00  0.00    -0.166 C  
BRANCH   7   8
HETATM    8  C   UNL     1     -10.123  10.037  67.889  1.00  0.00    -0.203 C  
BRANCH   8   9
HETATM    9  C   UNL     1      -9.455  10.677  69.112  1.00  0.00    -0.185 C  
HETATM   10  C   UNL     1      -7.953  11.027  68.907  1.00  0.00    -0.138 C  
HETATM   11  C   UNL     1      -7.104  10.053  69.762  1.00  0.00    -0.119 C  
HETATM   12  C   UNL     1      -8.108   9.404  70.672  1.00  0.00    -0.197 A  
HETATM   13  C   UNL     1      -9.419   9.769  70.301  1.00  0.00    -0.250 A  
HETATM   14  C   UNL     1     -10.425   9.224  71.101  1.00  0.00    -0.401 A  
HETATM   15  C   UNL     1      -9.988   8.377  72.116  1.00  0.00    -0.306 A  
HETATM   16  O   UNL     1     -11.052   7.865  72.845  1.00  0.00    -0.384 OA 
HETATM   17  C   UNL     1      -8.698   8.015  72.455  1.00  0.00    -0.232 A  
HETATM   18  C   UNL     1      -7.696   8.564  71.695  1.00  0.00    -0.150 A  
HETATM   19  C   UNL     1     -12.255   8.428  72.259  1.00  0.00    -0.387 C  
HETATM   20  C   UNL     1     -11.885   9.347  71.088  1.00  0.00    -0.413 C  
ENDBRANCH   8   9
ENDBRANCH   7   8
ENDBRANCH   5   7
ENDBRANCH   2   3
TORSDOF 4
ENDMDL
MODEL      138
REMARK 921   NORMALIZED FREE ENERGY PREDICTED BY IDOCK:   -4.47 KCAL/MOL
REMARK 922        TOTAL FREE ENERGY PREDICTED BY IDOCK:   -5.71 KCAL/MOL
REMARK 923 INTER-LIGAND FREE ENERGY PREDICTED BY IDOCK:   -5.03 KCAL/MOL
REMARK 924 INTRA-LIGAND FREE ENERGY PREDICTED BY IDOCK:   -0.69 KCAL/MOL
REMARK 927      BINDING AFFINITY PREDICTED BY RF-SCORE:    0.00 PKD
ROOT
HETATM    1  C   UNL     1      -5.858   7.915  66.045  1.00  0.00    -0.037 C  
HETATM    2  C   UNL     1      -6.599   7.388  64.829  1.00  0.00    -0.043 C  
ENDROOT
BRANCH   2   3
HETATM    3  C   UNL     1      -7.942   6.792  65.201  1.00  0.00    -0.128 C  
HETATM    4  O   UNL     1      -8.535   5.967  64.514  1.00  0.00    -0.091 OA 
HETATM    5  N   UNL     1      -8.435   7.274  66.394  1.00  0.00    -0.123 N  
HETATM    6  H   UNL     1      -7.884   7.949  66.924  1.00  0.00     0.000 HD 
BRANCH   5   7
HETATM    7  C   UNL     1      -9.719   6.844  66.915  1.00  0.00    -0.171 C  
BRANCH   7   8
HETATM    8  C   UNL     1     -10.711   8.006  66.993  1.00  0.00    -0.263 C  
BRANCH   8   9
HETATM    9  C   UNL     1     -10.116   9.336  67.469  1.00  0.00    -0.273 C  
HETATM   10  C   UNL     1     -10.631   9.802  68.862  1.00  0.00    -0.240 C  
HETATM   11  C   UNL     1     -11.551  11.030  68.656  1.00  0.00    -0.385 C  
HETATM   12  C   UNL     1     -11.289  11.443  67.235  1.00  0.00    -0.347 A  
HETATM   13  C   UNL     1     -10.478  10.490  66.586  1.00  0.00    -0.290 A  
HETATM   14  C   UNL     1     -10.167  10.793  65.260  1.00  0.00    -0.351 A  
HETATM   15  C   UNL     1     -10.732  11.968  64.767  1.00  0.00    -0.306 A  
HETATM   16  O   UNL     1     -10.389  12.180  63.439  1.00  0.00    -0.437 OA 
HETATM   17  C   UNL     1     -11.541  12.883  65.413  1.00  0.00    -0.386 A  
HETATM   18  C   UNL     1     -11.834  12.612  66.727  1.00  0.00    -0.440 A  
HETATM   19  C   UNL     1      -9.541  11.066  63.056  1.00  0.00    -0.364 C  
HETATM   20  C   UNL     1      -9.362  10.112  64.243  1.00  0.00    -0.349 C  
ENDBRANCH   8   9
ENDBRANCH   7   8
ENDBRANCH   5   7
ENDBRANCH   2   3
TORSDOF 4
ENDMDL
MODEL      139
REMARK 921   NORMALIZED FREE ENERGY PREDICTED BY IDOCK:   -4.45 KCAL/MOL
REMARK 922        TOTAL FREE ENERGY PREDICTED BY IDOCK:   -5.70 KCAL/MOL
REMARK 923 INTER-LIGAND FREE ENERGY PREDICTED BY IDOCK:   -5.26 KCAL/MOL
REMARK 924 INTRA-LIGAND FREE ENERGY PREDICTED BY IDOCK:   -0.43 KCAL/MOL
REMARK 927      BINDING AFFINITY PREDICTED BY RF-SCORE:    0.00 PKD
ROOT
HETATM    1  C   UNL     1     -10.805  15.599  66.711  1.00  0.00    -0.277 C  
HETATM    2  C   UNL     1     -10.733  15.871  65.218  1.00  0.00    -0.442 C  
ENDROOT
BRANCH   2   3
HETATM    3  C   UNL     1     -11.669  14.971  64.436  1.00  0.00    -0.312 C  
HETATM    4  O   UNL     1     -12.837  15.251  64.191  1.00  0.00    -0.559 OA 
HETATM    5  N   UNL     1     -11.072  13.798  64.025  1.00  0.00    -0.562 N  
HETATM    6  H   UNL     1     -10.092  13.633  64.250  1.00  0.00     0.000 HD 
BRANCH   5   7
HETATM    7  C   UNL     1     -11.807  12.793  63.281  1.00  0.00    -0.419 C  
BRANCH   7   8
HETATM    8  C   UNL     1     -11.274  11.386  63.559  1.00  0.00    -0.322 C  
BRANCH   8   9
HETATM    9  C   UNL     1      -9.747  11.250  63.509  1.00  0.00    -0.364 C  
HETATM   10  C   UNL     1      -9.231  10.264  62.422  1.00  0.00    -0.311 C  
HETATM   11  C   UNL     1      -8.673   9.005  63.130  1.00  0.00    -0.114 C  
HETATM   12  C   UNL     1      -8.571   9.417  64.571  1.00  0.00    -0.219 A  
HETATM   13  C   UNL     1      -9.169  10.679  64.767  1.00  0.00    -0.255 A  
HETATM   14  C   UNL     1      -9.113  11.156  66.078  1.00  0.00    -0.217 A  
HETATM   15  C   UNL     1      -8.509  10.302  66.998  1.00  0.00    -0.129 A  
HETATM   16  O   UNL     1      -8.515  10.845  68.276  1.00  0.00    -0.122 OA 
HETATM   17  C   UNL     1      -7.943   9.058  66.793  1.00  0.00    -0.107 A  
HETATM   18  C   UNL     1      -7.968   8.588  65.503  1.00  0.00    -0.110 A  
HETATM   19  C   UNL     1      -9.163  12.139  68.164  1.00  0.00    -0.197 C  
HETATM   20  C   UNL     1      -9.578  12.393  66.710  1.00  0.00    -0.224 C  
ENDBRANCH   8   9
ENDBRANCH   7   8
ENDBRANCH   5   7
ENDBRANCH   2   3
TORSDOF 4
ENDMDL
MODEL      140
REMARK 921   NORMALIZED FREE ENERGY PREDICTED BY IDOCK:   -4.45 KCAL/MOL
REMARK 922        TOTAL FREE ENERGY PREDICTED BY IDOCK:   -5.69 KCAL/MOL
REMARK 923 INTER-LIGAND FREE ENERGY PREDICTED BY IDOCK:   -5.18 KCAL/MOL
REMARK 924 INTRA-LIGAND FREE ENERGY PREDICTED BY IDOCK:   -0.51 KCAL/MOL
REMARK 927      BINDING AFFINITY PREDICTED BY RF-SCORE:    0.00 PKD
ROOT
HETATM    1  C   UNL     1      -7.323   9.163  70.790  1.00  0.00    -0.120 C  
HETATM    2  C   UNL     1      -6.925   8.558  72.125  1.00  0.00    -0.096 C  
ENDROOT
BRANCH   2   3
HETATM    3  C   UNL     1      -8.131   8.087  72.912  1.00  0.00    -0.161 C  
HETATM    4  O   UNL     1      -8.381   8.449  74.057  1.00  0.00    -0.296 OA 
HETATM    5  N   UNL     1      -8.923   7.204  72.210  1.00  0.00    -0.131 N  
HETATM    6  H   UNL     1      -8.666   6.955  71.256  1.00  0.00     0.000 HD 
BRANCH   5   7
HETATM    7  C   UNL     1     -10.114   6.620  72.798  1.00  0.00    -0.177 C  
BRANCH   7   8
HETATM    8  C   UNL     1     -11.314   7.564  72.690  1.00  0.00    -0.395 C  
BRANCH   8   9
HETATM    9  C   UNL     1     -11.926   7.677  71.289  1.00  0.00    -0.330 C  
HETATM   10  C   UNL     1     -11.318   6.695  70.247  1.00  0.00    -0.431 C  
HETATM   11  C   UNL     1     -10.473   7.513  69.239  1.00  0.00    -0.216 C  
HETATM   12  C   UNL     1     -10.871   8.937  69.509  1.00  0.00    -0.163 A  
HETATM   13  C   UNL     1     -11.690   9.013  70.654  1.00  0.00    -0.237 A  
HETATM   14  C   UNL     1     -12.124  10.299  70.978  1.00  0.00    -0.487 A  
HETATM   15  C   UNL     1     -11.655  11.315  70.148  1.00  0.00    -0.305 A  
HETATM   16  O   UNL     1     -12.116  12.559  70.555  1.00  0.00    -0.365 OA 
HETATM   17  C   UNL     1     -10.836  11.225  69.038  1.00  0.00    -0.268 A  
HETATM   18  C   UNL     1     -10.423   9.963  68.691  1.00  0.00    -0.231 A  
HETATM   19  C   UNL     1     -12.943  12.322  71.725  1.00  0.00    -0.325 C  
HETATM   20  C   UNL     1     -12.981  10.823  72.045  1.00  0.00    -0.444 C  
ENDBRANCH   8   9
ENDBRANCH   7   8
ENDBRANCH   5   7
ENDBRANCH   2   3
TORSDOF 4
ENDMDL
MODEL      141
REMARK 921   NORMALIZED FREE ENERGY PREDICTED BY IDOCK:   -4.43 KCAL/MOL
REMARK 922        TOTAL FREE ENERGY PREDICTED BY IDOCK:   -5.67 KCAL/MOL
REMARK 923 INTER-LIGAND FREE ENERGY PREDICTED BY IDOCK:   -5.30 KCAL/MOL
REMARK 924 INTRA-LIGAND FREE ENERGY PREDICTED BY IDOCK:   -0.38 KCAL/MOL
REMARK 927      BINDING AFFINITY PREDICTED BY RF-SCORE:    0.00 PKD
ROOT
HETATM    1  C   UNL     1     -10.858  14.339  66.055  1.00  0.00    -0.303 C  
HETATM    2  C   UNL     1     -11.868  14.543  67.170  1.00  0.00    -0.412 C  
ENDROOT
BRANCH   2   3
HETATM    3  C   UNL     1     -11.702  13.520  68.275  1.00  0.00    -0.359 C  
HETATM    4  O   UNL     1     -12.275  13.586  69.358  1.00  0.00    -0.307 OA 
HETATM    5  N   UNL     1     -10.836  12.501  67.942  1.00  0.00    -0.215 N  
HETATM    6  H   UNL     1     -10.402  12.497  67.019  1.00  0.00     0.000 HD 
BRANCH   5   7
HETATM    7  C   UNL     1     -10.525  11.433  68.874  1.00  0.00    -0.193 C  
BRANCH   7   8
HETATM    8  C   UNL     1     -11.145  10.105  68.434  1.00  0.00    -0.273 C  
BRANCH   8   9
HETATM    9  C   UNL     1     -10.150   8.951  68.259  1.00  0.00    -0.219 C  
HETATM   10  C   UNL     1     -10.380   8.102  66.976  1.00  0.00    -0.403 C  
HETATM   11  C   UNL     1     -10.922   6.714  67.400  1.00  0.00    -0.434 C  
HETATM   12  C   UNL     1     -10.682   6.672  68.883  1.00  0.00    -0.304 A  
HETATM   13  C   UNL     1     -10.243   7.928  69.348  1.00  0.00    -0.206 A  
HETATM   14  C   UNL     1      -9.980   7.985  70.718  1.00  0.00    -0.202 A  
HETATM   15  C   UNL     1     -10.225   6.808  71.422  1.00  0.00    -0.198 A  
HETATM   16  O   UNL     1      -9.957   6.960  72.776  1.00  0.00    -0.164 OA 
HETATM   17  C   UNL     1     -10.673   5.588  70.953  1.00  0.00    -0.283 A  
HETATM   18  C   UNL     1     -10.910   5.510  69.603  1.00  0.00    -0.279 A  
HETATM   19  C   UNL     1      -9.505   8.329  72.949  1.00  0.00    -0.250 C  
HETATM   20  C   UNL     1      -9.501   9.054  71.598  1.00  0.00    -0.293 C  
ENDBRANCH   8   9
ENDBRANCH   7   8
ENDBRANCH   5   7
ENDBRANCH   2   3
TORSDOF 4
ENDMDL
MODEL      142
REMARK 921   NORMALIZED FREE ENERGY PREDICTED BY IDOCK:   -4.41 KCAL/MOL
REMARK 922        TOTAL FREE ENERGY PREDICTED BY IDOCK:   -5.64 KCAL/MOL
REMARK 923 INTER-LIGAND FREE ENERGY PREDICTED BY IDOCK:   -5.67 KCAL/MOL
REMARK 924 INTRA-LIGAND FREE ENERGY PREDICTED BY IDOCK:    0.03 KCAL/MOL
REMARK 927      BINDING AFFINITY PREDICTED BY RF-SCORE:    0.00 PKD
ROOT
HETATM    1  C   UNL     1      -8.996  20.613  67.373  1.00  0.00    -0.361 C  
HETATM    2  C   UNL     1      -8.866  19.529  66.318  1.00  0.00    -0.391 C  
ENDROOT
BRANCH   2   3
HETATM    3  C   UNL     1      -9.938  18.468  66.464  1.00  0.00    -0.380 C  
HETATM    4  O   UNL     1     -10.683  18.122  65.553  1.00  0.00    -0.599 OA 
HETATM    5  N   UNL     1      -9.995  17.929  67.731  1.00  0.00    -0.316 N  
HETATM    6  H   UNL     1      -9.337  18.252  68.440  1.00  0.00     0.000 HD 
BRANCH   5   7
HETATM    7  C   UNL     1     -10.970  16.913  68.081  1.00  0.00    -0.290 C  
BRANCH   7   8
HETATM    8  C   UNL     1     -10.463  16.013  69.210  1.00  0.00    -0.257 C  
BRANCH   8   9
HETATM    9  C   UNL     1      -9.453  14.941  68.782  1.00  0.00    -0.214 C  
HETATM   10  C   UNL     1      -8.478  15.398  67.658  1.00  0.00    -0.173 C  
HETATM   11  C   UNL     1      -8.850  14.646  66.356  1.00  0.00    -0.113 C  
HETATM   12  C   UNL     1      -9.779  13.560  66.819  1.00  0.00    -0.271 A  
HETATM   13  C   UNL     1     -10.101  13.733  68.181  1.00  0.00    -0.245 A  
HETATM   14  C   UNL     1     -10.953  12.761  68.708  1.00  0.00    -0.289 A  
HETATM   15  C   UNL     1     -11.383  11.791  67.805  1.00  0.00    -0.289 A  
HETATM   16  O   UNL     1     -12.240  10.880  68.408  1.00  0.00    -0.540 OA 
HETATM   17  C   UNL     1     -11.071  11.646  66.467  1.00  0.00    -0.357 A  
HETATM   18  C   UNL     1     -10.213  12.579  65.941  1.00  0.00    -0.280 A  
HETATM   19  C   UNL     1     -12.362  11.293  69.794  1.00  0.00    -0.209 C  
HETATM   20  C   UNL     1     -11.516  12.547  70.044  1.00  0.00    -0.095 C  
ENDBRANCH   8   9
ENDBRANCH   7   8
ENDBRANCH   5   7
ENDBRANCH   2   3
TORSDOF 4
ENDMDL
MODEL      143
REMARK 921   NORMALIZED FREE ENERGY PREDICTED BY IDOCK:   -4.40 KCAL/MOL
REMARK 922        TOTAL FREE ENERGY PREDICTED BY IDOCK:   -5.63 KCAL/MOL
REMARK 923 INTER-LIGAND FREE ENERGY PREDICTED BY IDOCK:   -5.30 KCAL/MOL
REMARK 924 INTRA-LIGAND FREE ENERGY PREDICTED BY IDOCK:   -0.33 KCAL/MOL
REMARK 927      BINDING AFFINITY PREDICTED BY RF-SCORE:    0.00 PKD
ROOT
HETATM    1  C   UNL     1     -13.788  13.687  72.495  1.00  0.00    -0.620 C  
HETATM    2  C   UNL     1     -12.863  14.889  72.419  1.00  0.00    -0.430 C  
ENDROOT
BRANCH   2   3
HETATM    3  C   UNL     1     -12.025  14.877  71.157  1.00  0.00    -0.335 C  
HETATM    4  O   UNL     1     -11.036  15.582  70.988  1.00  0.00    -0.345 OA 
HETATM    5  N   UNL     1     -12.489  13.990  70.208  1.00  0.00    -0.349 N  
HETATM    6  H   UNL     1     -13.310  13.423  70.417  1.00  0.00     0.000 HD 
BRANCH   5   7
HETATM    7  C   UNL     1     -11.838  13.846  68.920  1.00  0.00    -0.358 C  
BRANCH   7   8
HETATM    8  C   UNL     1     -11.140  12.490  68.792  1.00  0.00    -0.314 C  
BRANCH   8   9
HETATM    9  C   UNL     1      -9.954  12.460  67.821  1.00  0.00    -0.205 C  
HETATM   10  C   UNL     1     -10.181  13.273  66.513  1.00  0.00    -0.283 C  
HETATM   11  C   UNL     1     -10.334  12.274  65.340  1.00  0.00    -0.298 C  
HETATM   12  C   UNL     1      -9.872  10.966  65.916  1.00  0.00    -0.285 A  
HETATM   13  C   UNL     1      -9.655  11.087  67.304  1.00  0.00    -0.183 A  
HETATM   14  C   UNL     1      -9.209   9.922  67.930  1.00  0.00    -0.138 A  
HETATM   15  C   UNL     1      -9.081   8.810  67.100  1.00  0.00    -0.132 A  
HETATM   16  O   UNL     1      -8.654   7.695  67.807  1.00  0.00    -0.121 OA 
HETATM   17  C   UNL     1      -9.315   8.704  65.742  1.00  0.00    -0.227 A  
HETATM   18  C   UNL     1      -9.729   9.849  65.108  1.00  0.00    -0.376 A  
HETATM   19  C   UNL     1      -8.492   8.124  69.184  1.00  0.00    -0.135 C  
HETATM   20  C   UNL     1      -8.850   9.609  69.316  1.00  0.00    -0.164 C  
ENDBRANCH   8   9
ENDBRANCH   7   8
ENDBRANCH   5   7
ENDBRANCH   2   3
TORSDOF 4
ENDMDL
MODEL      144
REMARK 921   NORMALIZED FREE ENERGY PREDICTED BY IDOCK:   -4.39 KCAL/MOL
REMARK 922        TOTAL FREE ENERGY PREDICTED BY IDOCK:   -5.62 KCAL/MOL
REMARK 923 INTER-LIGAND FREE ENERGY PREDICTED BY IDOCK:   -5.27 KCAL/MOL
REMARK 924 INTRA-LIGAND FREE ENERGY PREDICTED BY IDOCK:   -0.35 KCAL/MOL
REMARK 927      BINDING AFFINITY PREDICTED BY RF-SCORE:    0.00 PKD
ROOT
HETATM    1  C   UNL     1      -9.339   7.789  72.672  1.00  0.00    -0.246 C  
HETATM    2  C   UNL     1     -10.158   6.554  72.342  1.00  0.00    -0.187 C  
ENDROOT
BRANCH   2   3
HETATM    3  C   UNL     1     -10.583   6.531  70.888  1.00  0.00    -0.230 C  
HETATM    4  O   UNL     1     -11.668   6.109  70.501  1.00  0.00    -0.293 OA 
HETATM    5  N   UNL     1      -9.623   7.034  70.036  1.00  0.00    -0.164 N  
HETATM    6  H   UNL     1      -8.746   7.382  70.424  1.00  0.00     0.000 HD 
BRANCH   5   7
HETATM    7  C   UNL     1      -9.829   7.079  68.601  1.00  0.00    -0.148 C  
BRANCH   7   8
HETATM    8  C   UNL     1     -10.706   8.266  68.196  1.00  0.00    -0.093 C  
BRANCH   8   9
HETATM    9  C   UNL     1     -10.112   9.646  68.505  1.00  0.00    -0.195 C  
HETATM   10  C   UNL     1     -10.537  10.227  69.884  1.00  0.00    -0.324 C  
HETATM   11  C   UNL     1     -11.502  11.413  69.637  1.00  0.00    -0.380 C  
HETATM   12  C   UNL     1     -11.354  11.699  68.169  1.00  0.00    -0.358 A  
HETATM   13  C   UNL     1     -10.567  10.705  67.550  1.00  0.00    -0.297 A  
HETATM   14  C   UNL     1     -10.361  10.891  66.182  1.00  0.00    -0.305 A  
HETATM   15  C   UNL     1     -10.991  12.004  65.629  1.00  0.00    -0.297 A  
HETATM   16  O   UNL     1     -10.750  12.099  64.266  1.00  0.00    -0.290 OA 
HETATM   17  C   UNL     1     -11.775  12.960  66.248  1.00  0.00    -0.457 A  
HETATM   18  C   UNL     1     -11.964  12.805  67.598  1.00  0.00    -0.331 A  
HETATM   19  C   UNL     1      -9.903  10.971  63.923  1.00  0.00    -0.317 C  
HETATM   20  C   UNL     1      -9.614  10.135  65.174  1.00  0.00    -0.354 C  
ENDBRANCH   8   9
ENDBRANCH   7   8
ENDBRANCH   5   7
ENDBRANCH   2   3
TORSDOF 4
ENDMDL
MODEL      145
REMARK 921   NORMALIZED FREE ENERGY PREDICTED BY IDOCK:   -4.39 KCAL/MOL
REMARK 922        TOTAL FREE ENERGY PREDICTED BY IDOCK:   -5.61 KCAL/MOL
REMARK 923 INTER-LIGAND FREE ENERGY PREDICTED BY IDOCK:   -5.35 KCAL/MOL
REMARK 924 INTRA-LIGAND FREE ENERGY PREDICTED BY IDOCK:   -0.27 KCAL/MOL
REMARK 927      BINDING AFFINITY PREDICTED BY RF-SCORE:    0.00 PKD
ROOT
HETATM    1  C   UNL     1     -14.363  15.089  72.135  1.00  0.00    -0.622 C  
HETATM    2  C   UNL     1     -12.934  14.782  72.549  1.00  0.00    -0.481 C  
ENDROOT
BRANCH   2   3
HETATM    3  C   UNL     1     -11.926  15.481  71.660  1.00  0.00    -0.408 C  
HETATM    4  O   UNL     1     -11.548  16.635  71.834  1.00  0.00    -0.366 OA 
HETATM    5  N   UNL     1     -11.474  14.687  70.627  1.00  0.00    -0.445 N  
HETATM    6  H   UNL     1     -11.819  13.730  70.547  1.00  0.00     0.000 HD 
BRANCH   5   7
HETATM    7  C   UNL     1     -10.521  15.180  69.651  1.00  0.00    -0.250 C  
BRANCH   7   8
HETATM    8  C   UNL     1     -11.119  15.203  68.243  1.00  0.00    -0.295 C  
BRANCH   8   9
HETATM    9  C   UNL     1     -10.770  13.991  67.371  1.00  0.00    -0.285 C  
HETATM   10  C   UNL     1     -11.850  12.871  67.374  1.00  0.00    -0.418 C  
HETATM   11  C   UNL     1     -11.291  11.656  68.154  1.00  0.00    -0.358 C  
HETATM   12  C   UNL     1      -9.825  11.958  68.289  1.00  0.00    -0.199 A  
HETATM   13  C   UNL     1      -9.547  13.266  67.840  1.00  0.00    -0.217 A  
HETATM   14  C   UNL     1      -8.204  13.636  67.914  1.00  0.00    -0.171 A  
HETATM   15  C   UNL     1      -7.349  12.677  68.452  1.00  0.00    -0.118 A  
HETATM   16  O   UNL     1      -6.040  13.136  68.508  1.00  0.00    -0.069 OA 
HETATM   17  C   UNL     1      -7.641  11.404  68.905  1.00  0.00    -0.114 A  
HETATM   18  C   UNL     1      -8.954  11.016  68.814  1.00  0.00    -0.153 A  
HETATM   19  C   UNL     1      -6.057  14.480  67.962  1.00  0.00    -0.153 C  
HETATM   20  C   UNL     1      -7.484  14.859  67.548  1.00  0.00    -0.224 C  
ENDBRANCH   8   9
ENDBRANCH   7   8
ENDBRANCH   5   7
ENDBRANCH   2   3
TORSDOF 4
ENDMDL
MODEL      146
REMARK 921   NORMALIZED FREE ENERGY PREDICTED BY IDOCK:   -4.37 KCAL/MOL
REMARK 922        TOTAL FREE ENERGY PREDICTED BY IDOCK:   -5.60 KCAL/MOL
REMARK 923 INTER-LIGAND FREE ENERGY PREDICTED BY IDOCK:   -5.18 KCAL/MOL
REMARK 924 INTRA-LIGAND FREE ENERGY PREDICTED BY IDOCK:   -0.42 KCAL/MOL
REMARK 927      BINDING AFFINITY PREDICTED BY RF-SCORE:    0.00 PKD
ROOT
HETATM    1  C   UNL     1      -9.267   4.332  64.380  1.00  0.00    -0.155 C  
HETATM    2  C   UNL     1      -8.409   4.248  65.630  1.00  0.00    -0.110 C  
ENDROOT
BRANCH   2   3
HETATM    3  C   UNL     1      -8.638   5.430  66.551  1.00  0.00    -0.116 C  
HETATM    4  O   UNL     1      -7.845   5.782  67.418  1.00  0.00    -0.100 OA 
HETATM    5  N   UNL     1      -9.835   6.073  66.318  1.00  0.00    -0.336 N  
HETATM    6  H   UNL     1     -10.443   5.737  65.572  1.00  0.00     0.000 HD 
BRANCH   5   7
HETATM    7  C   UNL     1     -10.250   7.215  67.110  1.00  0.00    -0.257 C  
BRANCH   7   8
HETATM    8  C   UNL     1     -11.159   6.796  68.267  1.00  0.00    -0.222 C  
BRANCH   8   9
HETATM    9  C   UNL     1     -10.629   7.137  69.665  1.00  0.00    -0.249 C  
HETATM   10  C   UNL     1     -10.886   6.032  70.730  1.00  0.00    -0.358 C  
HETATM   11  C   UNL     1     -11.960   6.548  71.719  1.00  0.00    -0.394 C  
HETATM   12  C   UNL     1     -12.054   8.017  71.416  1.00  0.00    -0.332 A  
HETATM   13  C   UNL     1     -11.297   8.333  70.269  1.00  0.00    -0.129 A  
HETATM   14  C   UNL     1     -11.310   9.683  69.914  1.00  0.00    -0.200 A  
HETATM   15  C   UNL     1     -12.095  10.505  70.721  1.00  0.00    -0.370 A  
HETATM   16  O   UNL     1     -12.067  11.822  70.284  1.00  0.00    -0.338 OA 
HETATM   17  C   UNL     1     -12.846  10.175  71.833  1.00  0.00    -0.526 A  
HETATM   18  C   UNL     1     -12.821   8.855  72.210  1.00  0.00    -0.475 A  
HETATM   19  C   UNL     1     -11.200  11.846  69.120  1.00  0.00    -0.255 C  
HETATM   20  C   UNL     1     -10.667  10.437  68.835  1.00  0.00    -0.255 C  
ENDBRANCH   8   9
ENDBRANCH   7   8
ENDBRANCH   5   7
ENDBRANCH   2   3
TORSDOF 4
ENDMDL
MODEL      147
REMARK 921   NORMALIZED FREE ENERGY PREDICTED BY IDOCK:   -4.37 KCAL/MOL
REMARK 922        TOTAL FREE ENERGY PREDICTED BY IDOCK:   -5.60 KCAL/MOL
REMARK 923 INTER-LIGAND FREE ENERGY PREDICTED BY IDOCK:   -4.91 KCAL/MOL
REMARK 924 INTRA-LIGAND FREE ENERGY PREDICTED BY IDOCK:   -0.69 KCAL/MOL
REMARK 927      BINDING AFFINITY PREDICTED BY RF-SCORE:    0.00 PKD
ROOT
HETATM    1  C   UNL     1     -11.285  10.720  67.708  1.00  0.00    -0.385 C  
HETATM    2  C   UNL     1     -11.954  11.235  68.971  1.00  0.00    -0.393 C  
ENDROOT
BRANCH   2   3
HETATM    3  C   UNL     1     -11.732  10.305  70.146  1.00  0.00    -0.284 C  
HETATM    4  O   UNL     1     -10.634  10.090  70.648  1.00  0.00    -0.295 OA 
HETATM    5  N   UNL     1     -12.895   9.718  70.597  1.00  0.00    -0.551 N  
HETATM    6  H   UNL     1     -13.778   9.950  70.144  1.00  0.00     0.000 HD 
BRANCH   5   7
HETATM    7  C   UNL     1     -12.891   8.777  71.702  1.00  0.00    -0.348 C  
BRANCH   7   8
HETATM    8  C   UNL     1     -13.115   7.342  71.218  1.00  0.00    -0.363 C  
BRANCH   8   9
HETATM    9  C   UNL     1     -11.919   6.401  71.404  1.00  0.00    -0.307 C  
HETATM   10  C   UNL     1     -11.325   6.402  72.842  1.00  0.00    -0.169 C  
HETATM   11  C   UNL     1      -9.943   7.100  72.798  1.00  0.00    -0.219 C  
HETATM   12  C   UNL     1      -9.627   7.183  71.331  1.00  0.00    -0.163 A  
HETATM   13  C   UNL     1     -10.740   6.780  70.563  1.00  0.00    -0.277 A  
HETATM   14  C   UNL     1     -10.538   6.810  69.182  1.00  0.00    -0.261 A  
HETATM   15  C   UNL     1      -9.287   7.265  68.771  1.00  0.00    -0.143 A  
HETATM   16  O   UNL     1      -9.182   7.282  67.387  1.00  0.00    -0.126 OA 
HETATM   17  C   UNL     1      -8.213   7.673  69.538  1.00  0.00    -0.129 A  
HETATM   18  C   UNL     1      -8.387   7.624  70.898  1.00  0.00    -0.112 A  
HETATM   19  C   UNL     1     -10.452   6.799  66.877  1.00  0.00    -0.280 C  
HETATM   20  C   UNL     1     -11.392   6.468  68.042  1.00  0.00    -0.102 C  
ENDBRANCH   8   9
ENDBRANCH   7   8
ENDBRANCH   5   7
ENDBRANCH   2   3
TORSDOF 4
ENDMDL
MODEL      148
REMARK 921   NORMALIZED FREE ENERGY PREDICTED BY IDOCK:   -4.37 KCAL/MOL
REMARK 922        TOTAL FREE ENERGY PREDICTED BY IDOCK:   -5.59 KCAL/MOL
REMARK 923 INTER-LIGAND FREE ENERGY PREDICTED BY IDOCK:   -4.58 KCAL/MOL
REMARK 924 INTRA-LIGAND FREE ENERGY PREDICTED BY IDOCK:   -1.01 KCAL/MOL
REMARK 927      BINDING AFFINITY PREDICTED BY RF-SCORE:    0.00 PKD
ROOT
HETATM    1  C   UNL     1      -9.175   9.098  71.064  1.00  0.00    -0.321 C  
HETATM    2  C   UNL     1      -8.746   9.701  69.738  1.00  0.00    -0.221 C  
ENDROOT
BRANCH   2   3
HETATM    3  C   UNL     1      -8.402   8.634  68.719  1.00  0.00    -0.121 C  
HETATM    4  O   UNL     1      -8.612   8.748  67.516  1.00  0.00    -0.125 OA 
HETATM    5  N   UNL     1      -7.827   7.515  69.281  1.00  0.00    -0.116 N  
HETATM    6  H   UNL     1      -7.667   7.490  70.288  1.00  0.00     0.000 HD 
BRANCH   5   7
HETATM    7  C   UNL     1      -7.444   6.371  68.475  1.00  0.00    -0.088 C  
BRANCH   7   8
HETATM    8  C   UNL     1      -7.807   5.052  69.162  1.00  0.00    -0.080 C  
BRANCH   8   9
HETATM    9  C   UNL     1      -9.279   4.641  69.040  1.00  0.00    -0.183 C  
HETATM   10  C   UNL     1      -9.997   5.206  67.781  1.00  0.00    -0.202 C  
HETATM   11  C   UNL     1     -11.007   6.287  68.239  1.00  0.00    -0.408 C  
HETATM   12  C   UNL     1     -11.094   6.092  69.726  1.00  0.00    -0.476 A  
HETATM   13  C   UNL     1     -10.127   5.162  70.159  1.00  0.00    -0.342 A  
HETATM   14  C   UNL     1     -10.138   4.903  71.531  1.00  0.00    -0.266 A  
HETATM   15  C   UNL     1     -11.074   5.626  72.267  1.00  0.00    -0.261 A  
HETATM   16  O   UNL     1     -11.001   5.322  73.620  1.00  0.00    -0.291 OA 
HETATM   17  C   UNL     1     -12.005   6.548  71.829  1.00  0.00    -0.394 A  
HETATM   18  C   UNL     1     -12.023   6.793  70.478  1.00  0.00    -0.385 A  
HETATM   19  C   UNL     1      -9.949   4.332  73.758  1.00  0.00    -0.133 C  
HETATM   20  C   UNL     1      -9.342   4.018  72.386  1.00  0.00    -0.167 C  
ENDBRANCH   8   9
ENDBRANCH   7   8
ENDBRANCH   5   7
ENDBRANCH   2   3
TORSDOF 4
ENDMDL
MODEL      149
REMARK 921   NORMALIZED FREE ENERGY PREDICTED BY IDOCK:   -4.36 KCAL/MOL
REMARK 922        TOTAL FREE ENERGY PREDICTED BY IDOCK:   -5.59 KCAL/MOL
REMARK 923 INTER-LIGAND FREE ENERGY PREDICTED BY IDOCK:   -5.29 KCAL/MOL
REMARK 924 INTRA-LIGAND FREE ENERGY PREDICTED BY IDOCK:   -0.29 KCAL/MOL
REMARK 927      BINDING AFFINITY PREDICTED BY RF-SCORE:    0.00 PKD
ROOT
HETATM    1  C   UNL     1     -10.784  10.647  65.182  1.00  0.00    -0.088 C  
HETATM    2  C   UNL     1     -10.904  11.895  64.323  1.00  0.00    -0.396 C  
ENDROOT
BRANCH   2   3
HETATM    3  C   UNL     1     -11.243  13.118  65.151  1.00  0.00    -0.294 C  
HETATM    4  O   UNL     1     -12.241  13.808  64.971  1.00  0.00    -0.382 OA 
HETATM    5  N   UNL     1     -10.310  13.383  66.131  1.00  0.00    -0.289 N  
HETATM    6  H   UNL     1      -9.509  12.762  66.236  1.00  0.00     0.000 HD 
BRANCH   5   7
HETATM    7  C   UNL     1     -10.442  14.525  67.015  1.00  0.00    -0.268 C  
BRANCH   7   8
HETATM    8  C   UNL     1      -9.178  14.736  67.853  1.00  0.00    -0.191 C  
BRANCH   8   9
HETATM    9  C   UNL     1      -8.091  15.584  67.183  1.00  0.00    -0.249 C  
HETATM   10  C   UNL     1      -6.638  15.134  67.514  1.00  0.00    -0.167 C  
HETATM   11  C   UNL     1      -5.995  16.200  68.435  1.00  0.00    -0.107 C  
HETATM   12  C   UNL     1      -6.936  17.369  68.346  1.00  0.00    -0.201 A  
HETATM   13  C   UNL     1      -8.101  17.011  67.636  1.00  0.00    -0.190 A  
HETATM   14  C   UNL     1      -9.034  18.039  67.489  1.00  0.00    -0.249 A  
HETATM   15  C   UNL     1      -8.692  19.247  68.094  1.00  0.00    -0.331 A  
HETATM   16  O   UNL     1      -9.683  20.203  67.916  1.00  0.00    -0.370 OA 
HETATM   17  C   UNL     1      -7.552  19.575  68.803  1.00  0.00    -0.386 A  
HETATM   18  C   UNL     1      -6.614  18.582  68.933  1.00  0.00    -0.275 A  
HETATM   19  C   UNL     1     -10.729  19.564  67.138  1.00  0.00    -0.482 C  
HETATM   20  C   UNL     1     -10.338  18.115  66.826  1.00  0.00    -0.376 C  
ENDBRANCH   8   9
ENDBRANCH   7   8
ENDBRANCH   5   7
ENDBRANCH   2   3
TORSDOF 4
ENDMDL
MODEL      150
REMARK 921   NORMALIZED FREE ENERGY PREDICTED BY IDOCK:   -4.36 KCAL/MOL
REMARK 922        TOTAL FREE ENERGY PREDICTED BY IDOCK:   -5.58 KCAL/MOL
REMARK 923 INTER-LIGAND FREE ENERGY PREDICTED BY IDOCK:   -5.35 KCAL/MOL
REMARK 924 INTRA-LIGAND FREE ENERGY PREDICTED BY IDOCK:   -0.23 KCAL/MOL
REMARK 927      BINDING AFFINITY PREDICTED BY RF-SCORE:    0.00 PKD
ROOT
HETATM    1  C   UNL     1      -5.811  10.283  64.234  1.00  0.00    -0.142 C  
HETATM    2  C   UNL     1      -7.066   9.429  64.270  1.00  0.00    -0.102 C  
ENDROOT
BRANCH   2   3
HETATM    3  C   UNL     1      -8.016   9.869  65.366  1.00  0.00    -0.134 C  
HETATM    4  O   UNL     1      -8.434   9.123  66.245  1.00  0.00    -0.119 OA 
HETATM    5  N   UNL     1      -8.367  11.198  65.275  1.00  0.00    -0.377 N  
HETATM    6  H   UNL     1      -7.973  11.768  64.527  1.00  0.00     0.000 HD 
BRANCH   5   7
HETATM    7  C   UNL     1      -9.286  11.807  66.219  1.00  0.00    -0.225 C  
BRANCH   7   8
HETATM    8  C   UNL     1     -10.725  11.340  65.983  1.00  0.00    -0.301 C  
BRANCH   8   9
HETATM    9  C   UNL     1     -11.755  12.465  65.828  1.00  0.00    -0.470 C  
HETATM   10  C   UNL     1     -11.604  13.290  64.517  1.00  0.00    -0.407 C  
HETATM   11  C   UNL     1     -11.079  14.700  64.886  1.00  0.00    -0.409 C  
HETATM   12  C   UNL     1     -11.252  14.771  66.377  1.00  0.00    -0.342 A  
HETATM   13  C   UNL     1     -11.638  13.515  66.889  1.00  0.00    -0.398 A  
HETATM   14  C   UNL     1     -11.838  13.483  68.270  1.00  0.00    -0.401 A  
HETATM   15  C   UNL     1     -11.591  14.681  68.937  1.00  0.00    -0.310 A  
HETATM   16  O   UNL     1     -11.793  14.553  70.304  1.00  0.00    -0.275 OA 
HETATM   17  C   UNL     1     -11.195  15.901  68.421  1.00  0.00    -0.368 A  
HETATM   18  C   UNL     1     -11.021  15.954  67.061  1.00  0.00    -0.189 A  
HETATM   19  C   UNL     1     -12.203  13.179  70.528  1.00  0.00    -0.328 C  
HETATM   20  C   UNL     1     -12.250  12.423  69.195  1.00  0.00    -0.058 C  
ENDBRANCH   8   9
ENDBRANCH   7   8
ENDBRANCH   5   7
ENDBRANCH   2   3
TORSDOF 4
ENDMDL
MODEL      151
REMARK 921   NORMALIZED FREE ENERGY PREDICTED BY IDOCK:   -4.36 KCAL/MOL
REMARK 922        TOTAL FREE ENERGY PREDICTED BY IDOCK:   -5.58 KCAL/MOL
REMARK 923 INTER-LIGAND FREE ENERGY PREDICTED BY IDOCK:   -5.25 KCAL/MOL
REMARK 924 INTRA-LIGAND FREE ENERGY PREDICTED BY IDOCK:   -0.33 KCAL/MOL
REMARK 927      BINDING AFFINITY PREDICTED BY RF-SCORE:    0.00 PKD
ROOT
HETATM    1  C   UNL     1     -12.388  12.515  64.050  1.00  0.00    -0.557 C  
HETATM    2  C   UNL     1     -10.872  12.577  63.998  1.00  0.00    -0.446 C  
ENDROOT
BRANCH   2   3
HETATM    3  C   UNL     1     -10.259  12.581  65.384  1.00  0.00    -0.283 C  
HETATM    4  O   UNL     1      -9.384  11.801  65.744  1.00  0.00    -0.232 OA 
HETATM    5  N   UNL     1     -10.789  13.552  66.207  1.00  0.00    -0.288 N  
HETATM    6  H   UNL     1     -11.506  14.178  65.840  1.00  0.00     0.000 HD 
BRANCH   5   7
HETATM    7  C   UNL     1     -10.351  13.704  67.582  1.00  0.00    -0.239 C  
BRANCH   7   8
HETATM    8  C   UNL     1      -9.292  14.800  67.715  1.00  0.00    -0.199 C  
BRANCH   8   9
HETATM    9  C   UNL     1      -9.748  16.054  68.472  1.00  0.00    -0.214 C  
HETATM   10  C   UNL     1     -11.084  16.660  67.954  1.00  0.00    -0.212 C  
HETATM   11  C   UNL     1     -10.768  17.995  67.236  1.00  0.00    -0.305 C  
HETATM   12  C   UNL     1      -9.350  18.292  67.635  1.00  0.00    -0.271 A  
HETATM   13  C   UNL     1      -8.794  17.200  68.333  1.00  0.00    -0.255 A  
HETATM   14  C   UNL     1      -7.478  17.386  68.759  1.00  0.00    -0.258 A  
HETATM   15  C   UNL     1      -6.902  18.603  68.400  1.00  0.00    -0.249 A  
HETATM   16  O   UNL     1      -5.590  18.695  68.845  1.00  0.00    -0.194 OA 
HETATM   17  C   UNL     1      -7.455  19.658  67.699  1.00  0.00    -0.304 A  
HETATM   18  C   UNL     1      -8.758  19.499  67.297  1.00  0.00    -0.348 A  
HETATM   19  C   UNL     1      -5.309  17.452  69.540  1.00  0.00    -0.178 C  
HETATM   20  C   UNL     1      -6.544  16.545  69.511  1.00  0.00    -0.217 C  
ENDBRANCH   8   9
ENDBRANCH   7   8
ENDBRANCH   5   7
ENDBRANCH   2   3
TORSDOF 4
ENDMDL
MODEL      152
REMARK 921   NORMALIZED FREE ENERGY PREDICTED BY IDOCK:   -4.34 KCAL/MOL
REMARK 922        TOTAL FREE ENERGY PREDICTED BY IDOCK:   -5.56 KCAL/MOL
REMARK 923 INTER-LIGAND FREE ENERGY PREDICTED BY IDOCK:   -5.30 KCAL/MOL
REMARK 924 INTRA-LIGAND FREE ENERGY PREDICTED BY IDOCK:   -0.26 KCAL/MOL
REMARK 927      BINDING AFFINITY PREDICTED BY RF-SCORE:    0.00 PKD
ROOT
HETATM    1  C   UNL     1      -5.434  19.095  64.042  1.00  0.00    -0.321 C  
HETATM    2  C   UNL     1      -5.848  19.934  65.239  1.00  0.00    -0.225 C  
ENDROOT
BRANCH   2   3
HETATM    3  C   UNL     1      -7.166  19.469  65.824  1.00  0.00    -0.295 C  
HETATM    4  O   UNL     1      -8.140  20.200  65.975  1.00  0.00    -0.291 OA 
HETATM    5  N   UNL     1      -7.162  18.136  66.175  1.00  0.00    -0.267 N  
HETATM    6  H   UNL     1      -6.323  17.581  66.010  1.00  0.00     0.000 HD 
BRANCH   5   7
HETATM    7  C   UNL     1      -8.323  17.505  66.774  1.00  0.00    -0.251 C  
BRANCH   7   8
HETATM    8  C   UNL     1      -8.459  16.046  66.331  1.00  0.00    -0.363 C  
BRANCH   8   9
HETATM    9  C   UNL     1      -8.843  15.064  67.445  1.00  0.00    -0.202 C  
HETATM   10  C   UNL     1      -7.628  14.423  68.176  1.00  0.00    -0.128 C  
HETATM   11  C   UNL     1      -7.549  12.930  67.773  1.00  0.00    -0.141 C  
HETATM   12  C   UNL     1      -8.870  12.665  67.109  1.00  0.00    -0.204 A  
HETATM   13  C   UNL     1      -9.587  13.868  66.939  1.00  0.00    -0.271 A  
HETATM   14  C   UNL     1     -10.839  13.722  66.340  1.00  0.00    -0.287 A  
HETATM   15  C   UNL     1     -11.176  12.422  65.968  1.00  0.00    -0.335 A  
HETATM   16  O   UNL     1     -12.424  12.373  65.363  1.00  0.00    -0.637 OA 
HETATM   17  C   UNL     1     -10.453  11.255  66.126  1.00  0.00    -0.305 A  
HETATM   18  C   UNL     1      -9.230  11.379  66.738  1.00  0.00    -0.185 A  
HETATM   19  C   UNL     1     -12.923  13.736  65.351  1.00  0.00    -0.312 C  
HETATM   20  C   UNL     1     -11.898  14.675  65.997  1.00  0.00    -0.280 C  
ENDBRANCH   8   9
ENDBRANCH   7   8
ENDBRANCH   5   7
ENDBRANCH   2   3
TORSDOF 4
ENDMDL
MODEL      153
REMARK 921   NORMALIZED FREE ENERGY PREDICTED BY IDOCK:   -4.30 KCAL/MOL
REMARK 922        TOTAL FREE ENERGY PREDICTED BY IDOCK:   -5.51 KCAL/MOL
REMARK 923 INTER-LIGAND FREE ENERGY PREDICTED BY IDOCK:   -4.73 KCAL/MOL
REMARK 924 INTRA-LIGAND FREE ENERGY PREDICTED BY IDOCK:   -0.78 KCAL/MOL
REMARK 927      BINDING AFFINITY PREDICTED BY RF-SCORE:    0.00 PKD
ROOT
HETATM    1  C   UNL     1      -9.642  10.680  62.376  1.00  0.00    -0.181 C  
HETATM    2  C   UNL     1     -10.338  11.082  63.665  1.00  0.00    -0.415 C  
ENDROOT
BRANCH   2   3
HETATM    3  C   UNL     1      -9.692  10.445  64.878  1.00  0.00    -0.309 C  
HETATM    4  O   UNL     1     -10.261   9.645  65.613  1.00  0.00    -0.253 OA 
HETATM    5  N   UNL     1      -8.391  10.857  65.077  1.00  0.00    -0.369 N  
HETATM    6  H   UNL     1      -7.972  11.515  64.420  1.00  0.00     0.000 HD 
BRANCH   5   7
HETATM    7  C   UNL     1      -7.606  10.378  66.199  1.00  0.00    -0.130 C  
BRANCH   7   8
HETATM    8  C   UNL     1      -7.021  11.537  67.010  1.00  0.00    -0.145 C  
BRANCH   8   9
HETATM    9  C   UNL     1      -7.701  11.791  68.361  1.00  0.00    -0.131 C  
HETATM   10  C   UNL     1      -7.407  10.706  69.436  1.00  0.00    -0.133 C  
HETATM   11  C   UNL     1      -8.701   9.887  69.670  1.00  0.00    -0.218 C  
HETATM   12  C   UNL     1      -9.770  10.703  68.998  1.00  0.00    -0.214 A  
HETATM   13  C   UNL     1      -9.196  11.769  68.276  1.00  0.00    -0.188 A  
HETATM   14  C   UNL     1     -10.114  12.596  67.626  1.00  0.00    -0.218 A  
HETATM   15  C   UNL     1     -11.450  12.223  67.757  1.00  0.00    -0.329 A  
HETATM   16  O   UNL     1     -12.289  13.085  67.064  1.00  0.00    -0.328 OA 
HETATM   17  C   UNL     1     -11.995  11.162  68.455  1.00  0.00    -0.250 A  
HETATM   18  C   UNL     1     -11.106  10.356  69.122  1.00  0.00    -0.296 A  
HETATM   19  C   UNL     1     -11.430  14.081  66.450  1.00  0.00    -0.352 C  
HETATM   20  C   UNL     1      -9.965  13.797  66.800  1.00  0.00    -0.270 C  
ENDBRANCH   8   9
ENDBRANCH   7   8
ENDBRANCH   5   7
ENDBRANCH   2   3
TORSDOF 4
ENDMDL
MODEL      154
REMARK 921   NORMALIZED FREE ENERGY PREDICTED BY IDOCK:   -4.29 KCAL/MOL
REMARK 922        TOTAL FREE ENERGY PREDICTED BY IDOCK:   -5.50 KCAL/MOL
REMARK 923 INTER-LIGAND FREE ENERGY PREDICTED BY IDOCK:   -4.94 KCAL/MOL
REMARK 924 INTRA-LIGAND FREE ENERGY PREDICTED BY IDOCK:   -0.56 KCAL/MOL
REMARK 927      BINDING AFFINITY PREDICTED BY RF-SCORE:    0.00 PKD
ROOT
HETATM    1  C   UNL     1      -9.099   4.414  66.564  1.00  0.00    -0.123 C  
HETATM    2  C   UNL     1      -9.334   3.779  67.923  1.00  0.00    -0.236 C  
ENDROOT
BRANCH   2   3
HETATM    3  C   UNL     1      -9.198   4.786  69.047  1.00  0.00    -0.123 C  
HETATM    4  O   UNL     1      -8.134   5.300  69.377  1.00  0.00    -0.089 OA 
HETATM    5  N   UNL     1     -10.396   5.068  69.669  1.00  0.00    -0.246 N  
HETATM    6  H   UNL     1     -11.247   4.616  69.336  1.00  0.00     0.000 HD 
BRANCH   5   7
HETATM    7  C   UNL     1     -10.473   5.992  70.784  1.00  0.00    -0.239 C  
BRANCH   7   8
HETATM    8  C   UNL     1     -11.401   7.169  70.475  1.00  0.00    -0.333 C  
BRANCH   8   9
HETATM    9  C   UNL     1     -10.778   8.556  70.677  1.00  0.00    -0.251 C  
HETATM   10  C   UNL     1     -11.534   9.451  71.701  1.00  0.00    -0.463 C  
HETATM   11  C   UNL     1     -12.238  10.592  70.927  1.00  0.00    -0.490 C  
HETATM   12  C   UNL     1     -11.621  10.533  69.558  1.00  0.00    -0.332 A  
HETATM   13  C   UNL     1     -10.800   9.393  69.435  1.00  0.00    -0.208 A  
HETATM   14  C   UNL     1     -10.168   9.257  68.198  1.00  0.00    -0.246 A  
HETATM   15  C   UNL     1     -10.471  10.244  67.262  1.00  0.00    -0.253 A  
HETATM   16  O   UNL     1      -9.819  10.020  66.057  1.00  0.00    -0.222 OA 
HETATM   17  C   UNL     1     -11.293  11.347  67.393  1.00  0.00    -0.359 A  
HETATM   18  C   UNL     1     -11.900  11.508  68.613  1.00  0.00    -0.382 A  
HETATM   19  C   UNL     1      -9.040   8.808  66.237  1.00  0.00    -0.193 C  
HETATM   20  C   UNL     1      -9.240   8.262  67.655  1.00  0.00    -0.150 C  
ENDBRANCH   8   9
ENDBRANCH   7   8
ENDBRANCH   5   7
ENDBRANCH   2   3
TORSDOF 4
ENDMDL
MODEL      155
REMARK 921   NORMALIZED FREE ENERGY PREDICTED BY IDOCK:   -4.28 KCAL/MOL
REMARK 922        TOTAL FREE ENERGY PREDICTED BY IDOCK:   -5.49 KCAL/MOL
REMARK 923 INTER-LIGAND FREE ENERGY PREDICTED BY IDOCK:   -5.18 KCAL/MOL
REMARK 924 INTRA-LIGAND FREE ENERGY PREDICTED BY IDOCK:   -0.31 KCAL/MOL
REMARK 927      BINDING AFFINITY PREDICTED BY RF-SCORE:    0.00 PKD
ROOT
HETATM    1  C   UNL     1      -9.223   6.053  69.936  1.00  0.00    -0.159 C  
HETATM    2  C   UNL     1      -9.961   6.476  68.677  1.00  0.00    -0.155 C  
ENDROOT
BRANCH   2   3
HETATM    3  C   UNL     1      -9.110   7.369  67.797  1.00  0.00    -0.129 C  
HETATM    4  O   UNL     1      -7.891   7.460  67.895  1.00  0.00    -0.113 OA 
HETATM    5  N   UNL     1      -9.847   8.076  66.871  1.00  0.00    -0.224 N  
HETATM    6  H   UNL     1     -10.857   7.943  66.833  1.00  0.00     0.000 HD 
BRANCH   5   7
HETATM    7  C   UNL     1      -9.219   9.003  65.949  1.00  0.00    -0.230 C  
BRANCH   7   8
HETATM    8  C   UNL     1      -9.453  10.456  66.368  1.00  0.00    -0.209 C  
BRANCH   8   9
HETATM    9  C   UNL     1     -10.716  11.103  65.788  1.00  0.00    -0.252 C  
HETATM   10  C   UNL     1     -10.768  11.117  64.233  1.00  0.00    -0.403 C  
HETATM   11  C   UNL     1     -10.582  12.578  63.752  1.00  0.00    -0.471 C  
HETATM   12  C   UNL     1     -10.759  13.394  65.001  1.00  0.00    -0.354 A  
HETATM   13  C   UNL     1     -10.840  12.555  66.131  1.00  0.00    -0.304 A  
HETATM   14  C   UNL     1     -11.020  13.224  67.343  1.00  0.00    -0.287 A  
HETATM   15  C   UNL     1     -11.054  14.614  67.259  1.00  0.00    -0.328 A  
HETATM   16  O   UNL     1     -11.214  15.195  68.509  1.00  0.00    -0.264 OA 
HETATM   17  C   UNL     1     -10.954  15.423  66.143  1.00  0.00    -0.279 A  
HETATM   18  C   UNL     1     -10.804  14.778  64.940  1.00  0.00    -0.433 A  
HETATM   19  C   UNL     1     -11.293  14.101  69.459  1.00  0.00    -0.259 C  
HETATM   20  C   UNL     1     -11.171  12.760  68.725  1.00  0.00    -0.327 C  
ENDBRANCH   8   9
ENDBRANCH   7   8
ENDBRANCH   5   7
ENDBRANCH   2   3
TORSDOF 4
ENDMDL
MODEL      156
REMARK 921   NORMALIZED FREE ENERGY PREDICTED BY IDOCK:   -4.28 KCAL/MOL
REMARK 922        TOTAL FREE ENERGY PREDICTED BY IDOCK:   -5.48 KCAL/MOL
REMARK 923 INTER-LIGAND FREE ENERGY PREDICTED BY IDOCK:   -5.19 KCAL/MOL
REMARK 924 INTRA-LIGAND FREE ENERGY PREDICTED BY IDOCK:   -0.29 KCAL/MOL
REMARK 927      BINDING AFFINITY PREDICTED BY RF-SCORE:    0.00 PKD
ROOT
HETATM    1  C   UNL     1     -11.475  12.299  63.441  1.00  0.00    -0.512 C  
HETATM    2  C   UNL     1     -10.362  11.268  63.500  1.00  0.00    -0.463 C  
ENDROOT
BRANCH   2   3
HETATM    3  C   UNL     1     -10.156  10.739  64.905  1.00  0.00    -0.322 C  
HETATM    4  O   UNL     1      -9.671   9.641  65.156  1.00  0.00    -0.300 OA 
HETATM    5  N   UNL     1     -10.573  11.620  65.880  1.00  0.00    -0.264 N  
HETATM    6  H   UNL     1     -10.955  12.524  65.604  1.00  0.00     0.000 HD 
BRANCH   5   7
HETATM    7  C   UNL     1     -10.480  11.291  67.290  1.00  0.00    -0.214 C  
BRANCH   7   8
HETATM    8  C   UNL     1      -9.677  12.341  68.061  1.00  0.00    -0.205 C  
BRANCH   8   9
HETATM    9  C   UNL     1     -10.484  13.559  68.530  1.00  0.00    -0.250 C  
HETATM   10  C   UNL     1     -11.907  13.657  67.909  1.00  0.00    -0.402 C  
HETATM   11  C   UNL     1     -11.924  14.842  66.912  1.00  0.00    -0.212 C  
HETATM   12  C   UNL     1     -10.655  15.587  67.216  1.00  0.00    -0.299 A  
HETATM   13  C   UNL     1      -9.863  14.861  68.129  1.00  0.00    -0.218 A  
HETATM   14  C   UNL     1      -8.664  15.481  68.486  1.00  0.00    -0.184 A  
HETATM   15  C   UNL     1      -8.415  16.701  67.861  1.00  0.00    -0.194 A  
HETATM   16  O   UNL     1      -7.196  17.235  68.256  1.00  0.00    -0.195 OA 
HETATM   17  C   UNL     1      -9.195  17.392  66.953  1.00  0.00    -0.266 A  
HETATM   18  C   UNL     1     -10.389  16.807  66.614  1.00  0.00    -0.297 A  
HETATM   19  C   UNL     1      -6.628  16.294  69.204  1.00  0.00    -0.185 C  
HETATM   20  C   UNL     1      -7.577  15.104  69.392  1.00  0.00    -0.210 C  
ENDBRANCH   8   9
ENDBRANCH   7   8
ENDBRANCH   5   7
ENDBRANCH   2   3
TORSDOF 4
ENDMDL
MODEL      157
REMARK 921   NORMALIZED FREE ENERGY PREDICTED BY IDOCK:   -4.28 KCAL/MOL
REMARK 922        TOTAL FREE ENERGY PREDICTED BY IDOCK:   -5.48 KCAL/MOL
REMARK 923 INTER-LIGAND FREE ENERGY PREDICTED BY IDOCK:   -4.81 KCAL/MOL
REMARK 924 INTRA-LIGAND FREE ENERGY PREDICTED BY IDOCK:   -0.68 KCAL/MOL
REMARK 927      BINDING AFFINITY PREDICTED BY RF-SCORE:    0.00 PKD
ROOT
HETATM    1  C   UNL     1      -9.411  10.543  62.344  1.00  0.00    -0.281 C  
HETATM    2  C   UNL     1     -10.152  10.778  63.649  1.00  0.00    -0.375 C  
ENDROOT
BRANCH   2   3
HETATM    3  C   UNL     1      -9.392  10.226  64.837  1.00  0.00    -0.252 C  
HETATM    4  O   UNL     1      -9.619   9.131  65.343  1.00  0.00    -0.231 OA 
HETATM    5  N   UNL     1      -8.415  11.082  65.299  1.00  0.00    -0.365 N  
HETATM    6  H   UNL     1      -8.268  11.972  64.825  1.00  0.00     0.000 HD 
BRANCH   5   7
HETATM    7  C   UNL     1      -7.591  10.745  66.445  1.00  0.00    -0.141 C  
BRANCH   7   8
HETATM    8  C   UNL     1      -7.422  11.941  67.385  1.00  0.00    -0.148 C  
BRANCH   8   9
HETATM    9  C   UNL     1      -8.564  12.142  68.389  1.00  0.00    -0.141 C  
HETATM   10  C   UNL     1      -9.336  10.839  68.746  1.00  0.00    -0.186 C  
HETATM   11  C   UNL     1     -10.746  10.918  68.110  1.00  0.00    -0.256 C  
HETATM   12  C   UNL     1     -10.877  12.357  67.699  1.00  0.00    -0.258 A  
HETATM   13  C   UNL     1      -9.650  13.032  67.868  1.00  0.00    -0.215 A  
HETATM   14  C   UNL     1      -9.675  14.385  67.524  1.00  0.00    -0.215 A  
HETATM   15  C   UNL     1     -10.892  14.853  67.033  1.00  0.00    -0.315 A  
HETATM   16  O   UNL     1     -10.820  16.199  66.698  1.00  0.00    -0.268 OA 
HETATM   17  C   UNL     1     -12.081  14.173  66.856  1.00  0.00    -0.466 A  
HETATM   18  C   UNL     1     -12.080  12.848  67.216  1.00  0.00    -0.275 A  
HETATM   19  C   UNL     1      -9.465  16.621  67.000  1.00  0.00    -0.230 C  
HETATM   20  C   UNL     1      -8.661  15.441  67.558  1.00  0.00    -0.187 C  
ENDBRANCH   8   9
ENDBRANCH   7   8
ENDBRANCH   5   7
ENDBRANCH   2   3
TORSDOF 4
ENDMDL
MODEL      158
REMARK 921   NORMALIZED FREE ENERGY PREDICTED BY IDOCK:   -4.27 KCAL/MOL
REMARK 922        TOTAL FREE ENERGY PREDICTED BY IDOCK:   -5.48 KCAL/MOL
REMARK 923 INTER-LIGAND FREE ENERGY PREDICTED BY IDOCK:   -5.19 KCAL/MOL
REMARK 924 INTRA-LIGAND FREE ENERGY PREDICTED BY IDOCK:   -0.29 KCAL/MOL
REMARK 927      BINDING AFFINITY PREDICTED BY RF-SCORE:    0.00 PKD
ROOT
HETATM    1  C   UNL     1      -5.834  13.843  71.418  1.00  0.00    -0.170 C  
HETATM    2  C   UNL     1      -5.484  13.526  69.975  1.00  0.00    -0.105 C  
ENDROOT
BRANCH   2   3
HETATM    3  C   UNL     1      -6.723  13.374  69.115  1.00  0.00    -0.099 C  
HETATM    4  O   UNL     1      -7.172  14.267  68.404  1.00  0.00    -0.097 OA 
HETATM    5  N   UNL     1      -7.299  12.126  69.213  1.00  0.00    -0.330 N  
HETATM    6  H   UNL     1      -6.867  11.424  69.812  1.00  0.00     0.000 HD 
BRANCH   5   7
HETATM    7  C   UNL     1      -8.507  11.788  68.484  1.00  0.00    -0.125 C  
BRANCH   7   8
HETATM    8  C   UNL     1      -9.188  10.548  69.069  1.00  0.00    -0.193 C  
BRANCH   8   9
HETATM    9  C   UNL     1     -10.714  10.517  68.924  1.00  0.00    -0.253 C  
HETATM   10  C   UNL     1     -11.389  11.918  68.994  1.00  0.00    -0.337 C  
HETATM   11  C   UNL     1     -12.165  12.019  70.330  1.00  0.00    -0.379 C  
HETATM   12  C   UNL     1     -12.202  10.604  70.834  1.00  0.00    -0.497 A  
HETATM   13  C   UNL     1     -11.392   9.773  70.032  1.00  0.00    -0.269 A  
HETATM   14  C   UNL     1     -11.372   8.431  70.414  1.00  0.00    -0.178 A  
HETATM   15  C   UNL     1     -12.123   8.122  71.547  1.00  0.00    -0.298 A  
HETATM   16  O   UNL     1     -12.030   6.774  71.866  1.00  0.00    -0.306 OA 
HETATM   17  C   UNL     1     -12.898   8.953  72.333  1.00  0.00    -0.446 A  
HETATM   18  C   UNL     1     -12.948  10.271  71.953  1.00  0.00    -0.554 A  
HETATM   19  C   UNL     1     -11.163   6.178  70.865  1.00  0.00    -0.299 C  
HETATM   20  C   UNL     1     -10.700   7.248  69.870  1.00  0.00    -0.257 C  
ENDBRANCH   8   9
ENDBRANCH   7   8
ENDBRANCH   5   7
ENDBRANCH   2   3
TORSDOF 4
ENDMDL
MODEL      159
REMARK 921   NORMALIZED FREE ENERGY PREDICTED BY IDOCK:   -4.26 KCAL/MOL
REMARK 922        TOTAL FREE ENERGY PREDICTED BY IDOCK:   -5.46 KCAL/MOL
REMARK 923 INTER-LIGAND FREE ENERGY PREDICTED BY IDOCK:   -5.15 KCAL/MOL
REMARK 924 INTRA-LIGAND FREE ENERGY PREDICTED BY IDOCK:   -0.31 KCAL/MOL
REMARK 927      BINDING AFFINITY PREDICTED BY RF-SCORE:    0.00 PKD
ROOT
HETATM    1  C   UNL     1      -9.009   2.343  70.041  1.00  0.00    -0.158 C  
HETATM    2  C   UNL     1      -9.735   3.023  71.189  1.00  0.00    -0.192 C  
ENDROOT
BRANCH   2   3
HETATM    3  C   UNL     1      -9.057   4.314  71.599  1.00  0.00    -0.123 C  
HETATM    4  O   UNL     1      -8.943   4.684  72.763  1.00  0.00    -0.118 OA 
HETATM    5  N   UNL     1      -8.579   5.038  70.528  1.00  0.00    -0.107 N  
HETATM    6  H   UNL     1      -8.694   4.666  69.585  1.00  0.00     0.000 HD 
BRANCH   5   7
HETATM    7  C   UNL     1      -7.917   6.316  70.709  1.00  0.00    -0.112 C  
BRANCH   7   8
HETATM    8  C   UNL     1      -8.797   7.476  70.240  1.00  0.00    -0.146 C  
BRANCH   8   9
HETATM    9  C   UNL     1      -9.203   8.467  71.337  1.00  0.00    -0.272 C  
HETATM   10  C   UNL     1      -9.556   7.801  72.698  1.00  0.00    -0.261 C  
HETATM   11  C   UNL     1     -11.083   7.925  72.921  1.00  0.00    -0.442 C  
HETATM   12  C   UNL     1     -11.519   8.922  71.884  1.00  0.00    -0.442 A  
HETATM   13  C   UNL     1     -10.454   9.222  71.010  1.00  0.00    -0.384 A  
HETATM   14  C   UNL     1     -10.759  10.154  70.016  1.00  0.00    -0.356 A  
HETATM   15  C   UNL     1     -12.073  10.617  70.015  1.00  0.00    -0.316 A  
HETATM   16  O   UNL     1     -12.292  11.520  68.984  1.00  0.00    -0.360 OA 
HETATM   17  C   UNL     1     -13.111  10.298  70.869  1.00  0.00    -0.423 A  
HETATM   18  C   UNL     1     -12.819   9.403  71.868  1.00  0.00    -0.497 A  
HETATM   19  C   UNL     1     -11.029  11.648  68.280  1.00  0.00    -0.226 C  
HETATM   20  C   UNL     1      -9.971  10.753  68.936  1.00  0.00    -0.213 C  
ENDBRANCH   8   9
ENDBRANCH   7   8
ENDBRANCH   5   7
ENDBRANCH   2   3
TORSDOF 4
ENDMDL
MODEL      160
REMARK 921   NORMALIZED FREE ENERGY PREDICTED BY IDOCK:   -4.24 KCAL/MOL
REMARK 922        TOTAL FREE ENERGY PREDICTED BY IDOCK:   -5.44 KCAL/MOL
REMARK 923 INTER-LIGAND FREE ENERGY PREDICTED BY IDOCK:   -5.15 KCAL/MOL
REMARK 924 INTRA-LIGAND FREE ENERGY PREDICTED BY IDOCK:   -0.29 KCAL/MOL
REMARK 927      BINDING AFFINITY PREDICTED BY RF-SCORE:    0.00 PKD
ROOT
HETATM    1  C   UNL     1      -5.159  12.081  69.584  1.00  0.00    -0.070 C  
HETATM    2  C   UNL     1      -5.952  11.953  68.295  1.00  0.00    -0.050 C  
ENDROOT
BRANCH   2   3
HETATM    3  C   UNL     1      -7.446  11.979  68.547  1.00  0.00    -0.117 C  
HETATM    4  O   UNL     1      -8.129  12.996  68.492  1.00  0.00    -0.143 OA 
HETATM    5  N   UNL     1      -7.965  10.738  68.850  1.00  0.00    -0.135 N  
HETATM    6  H   UNL     1      -7.344   9.930  68.866  1.00  0.00     0.000 HD 
BRANCH   5   7
HETATM    7  C   UNL     1      -9.374  10.556  69.146  1.00  0.00    -0.187 C  
BRANCH   7   8
HETATM    8  C   UNL     1     -10.166  10.172  67.894  1.00  0.00    -0.217 C  
BRANCH   8   9
HETATM    9  C   UNL     1     -11.446  10.984  67.662  1.00  0.00    -0.303 C  
HETATM   10  C   UNL     1     -11.285  12.151  66.645  1.00  0.00    -0.375 C  
HETATM   11  C   UNL     1     -11.349  13.488  67.423  1.00  0.00    -0.338 C  
HETATM   12  C   UNL     1     -11.865  13.094  68.778  1.00  0.00    -0.361 A  
HETATM   13  C   UNL     1     -11.922  11.690  68.894  1.00  0.00    -0.355 A  
HETATM   14  C   UNL     1     -12.404  11.224  70.119  1.00  0.00    -0.354 A  
HETATM   15  C   UNL     1     -12.721  12.210  71.050  1.00  0.00    -0.228 A  
HETATM   16  O   UNL     1     -13.171  11.659  72.242  1.00  0.00    -0.434 OA 
HETATM   17  C   UNL     1     -12.642  13.584  70.926  1.00  0.00    -0.414 A  
HETATM   18  C   UNL     1     -12.195  14.058  69.717  1.00  0.00    -0.396 A  
HETATM   19  C   UNL     1     -13.145  10.219  72.058  1.00  0.00    -0.425 C  
HETATM   20  C   UNL     1     -12.641   9.879  70.651  1.00  0.00    -0.250 C  
ENDBRANCH   8   9
ENDBRANCH   7   8
ENDBRANCH   5   7
ENDBRANCH   2   3
TORSDOF 4
ENDMDL
MODEL      161
REMARK 921   NORMALIZED FREE ENERGY PREDICTED BY IDOCK:   -4.24 KCAL/MOL
REMARK 922        TOTAL FREE ENERGY PREDICTED BY IDOCK:   -5.43 KCAL/MOL
REMARK 923 INTER-LIGAND FREE ENERGY PREDICTED BY IDOCK:   -5.07 KCAL/MOL
REMARK 924 INTRA-LIGAND FREE ENERGY PREDICTED BY IDOCK:   -0.36 KCAL/MOL
REMARK 927      BINDING AFFINITY PREDICTED BY RF-SCORE:    0.00 PKD
ROOT
HETATM    1  C   UNL     1     -10.877   7.981  71.468  1.00  0.00    -0.278 C  
HETATM    2  C   UNL     1     -11.105   9.190  70.576  1.00  0.00    -0.308 C  
ENDROOT
BRANCH   2   3
HETATM    3  C   UNL     1     -10.230   9.151  69.339  1.00  0.00    -0.210 C  
HETATM    4  O   UNL     1     -10.160   8.186  68.585  1.00  0.00    -0.186 OA 
HETATM    5  N   UNL     1      -9.515  10.313  69.146  1.00  0.00    -0.205 N  
HETATM    6  H   UNL     1      -9.629  11.083  69.805  1.00  0.00     0.000 HD 
BRANCH   5   7
HETATM    7  C   UNL     1      -8.602  10.466  68.029  1.00  0.00    -0.123 C  
BRANCH   7   8
HETATM    8  C   UNL     1      -9.178  11.394  66.957  1.00  0.00    -0.174 C  
BRANCH   8   9
HETATM    9  C   UNL     1     -10.229  12.391  67.458  1.00  0.00    -0.214 C  
HETATM   10  C   UNL     1     -11.696  11.985  67.136  1.00  0.00    -0.344 C  
HETATM   11  C   UNL     1     -12.241  12.947  66.051  1.00  0.00    -0.431 C  
HETATM   12  C   UNL     1     -11.231  14.058  66.014  1.00  0.00    -0.310 A  
HETATM   13  C   UNL     1     -10.114  13.737  66.812  1.00  0.00    -0.265 A  
HETATM   14  C   UNL     1      -9.122  14.718  66.852  1.00  0.00    -0.268 A  
HETATM   15  C   UNL     1      -9.367  15.846  66.072  1.00  0.00    -0.349 A  
HETATM   16  O   UNL     1      -8.323  16.758  66.155  1.00  0.00    -0.345 OA 
HETATM   17  C   UNL     1     -10.461  16.138  65.280  1.00  0.00    -0.356 A  
HETATM   18  C   UNL     1     -11.456  15.194  65.252  1.00  0.00    -0.266 A  
HETATM   19  C   UNL     1      -7.344  16.174  67.054  1.00  0.00    -0.231 C  
HETATM   20  C   UNL     1      -7.836  14.809  67.549  1.00  0.00    -0.208 C  
ENDBRANCH   8   9
ENDBRANCH   7   8
ENDBRANCH   5   7
ENDBRANCH   2   3
TORSDOF 4
ENDMDL
MODEL      162
REMARK 921   NORMALIZED FREE ENERGY PREDICTED BY IDOCK:   -4.23 KCAL/MOL
REMARK 922        TOTAL FREE ENERGY PREDICTED BY IDOCK:   -5.43 KCAL/MOL
REMARK 923 INTER-LIGAND FREE ENERGY PREDICTED BY IDOCK:   -5.12 KCAL/MOL
REMARK 924 INTRA-LIGAND FREE ENERGY PREDICTED BY IDOCK:   -0.31 KCAL/MOL
REMARK 927      BINDING AFFINITY PREDICTED BY RF-SCORE:    0.00 PKD
ROOT
HETATM    1  C   UNL     1      -8.034  18.047  67.538  1.00  0.00    -0.224 C  
HETATM    2  C   UNL     1      -8.613  17.483  66.252  1.00  0.00    -0.234 C  
ENDROOT
BRANCH   2   3
HETATM    3  C   UNL     1      -9.413  16.220  66.501  1.00  0.00    -0.264 C  
HETATM    4  O   UNL     1     -10.626  16.206  66.680  1.00  0.00    -0.311 OA 
HETATM    5  N   UNL     1      -8.636  15.081  66.507  1.00  0.00    -0.439 N  
HETATM    6  H   UNL     1      -7.634  15.161  66.337  1.00  0.00     0.000 HD 
BRANCH   5   7
HETATM    7  C   UNL     1      -9.211  13.772  66.750  1.00  0.00    -0.244 C  
BRANCH   7   8
HETATM    8  C   UNL     1      -9.814  13.177  65.475  1.00  0.00    -0.153 C  
BRANCH   8   9
HETATM    9  C   UNL     1     -10.955  12.179  65.702  1.00  0.00    -0.337 C  
HETATM   10  C   UNL     1     -12.015  12.649  66.740  1.00  0.00    -0.362 C  
HETATM   11  C   UNL     1     -11.868  11.780  68.014  1.00  0.00    -0.304 C  
HETATM   12  C   UNL     1     -10.986  10.645  67.577  1.00  0.00    -0.371 A  
HETATM   13  C   UNL     1     -10.489  10.878  66.278  1.00  0.00    -0.304 A  
HETATM   14  C   UNL     1      -9.667   9.868  65.777  1.00  0.00    -0.332 A  
HETATM   15  C   UNL     1      -9.432   8.804  66.645  1.00  0.00    -0.203 A  
HETATM   16  O   UNL     1      -8.590   7.859  66.075  1.00  0.00    -0.136 OA 
HETATM   17  C   UNL     1      -9.913   8.599  67.924  1.00  0.00    -0.232 A  
HETATM   18  C   UNL     1     -10.745   9.571  68.420  1.00  0.00    -0.230 A  
HETATM   19  C   UNL     1      -8.267   8.350  64.747  1.00  0.00    -0.160 C  
HETATM   20  C   UNL     1      -8.967   9.691  64.501  1.00  0.00    -0.278 C  
ENDBRANCH   8   9
ENDBRANCH   7   8
ENDBRANCH   5   7
ENDBRANCH   2   3
TORSDOF 4
ENDMDL
MODEL      163
REMARK 921   NORMALIZED FREE ENERGY PREDICTED BY IDOCK:   -4.23 KCAL/MOL
REMARK 922        TOTAL FREE ENERGY PREDICTED BY IDOCK:   -5.42 KCAL/MOL
REMARK 923 INTER-LIGAND FREE ENERGY PREDICTED BY IDOCK:   -5.10 KCAL/MOL
REMARK 924 INTRA-LIGAND FREE ENERGY PREDICTED BY IDOCK:   -0.32 KCAL/MOL
REMARK 927      BINDING AFFINITY PREDICTED BY RF-SCORE:    0.00 PKD
ROOT
HETATM    1  C   UNL     1     -13.243  12.181  72.056  1.00  0.00    -0.496 C  
HETATM    2  C   UNL     1     -12.748  11.024  71.205  1.00  0.00    -0.521 C  
ENDROOT
BRANCH   2   3
HETATM    3  C   UNL     1     -12.854   9.701  71.936  1.00  0.00    -0.425 C  
HETATM    4  O   UNL     1     -13.904   9.251  72.381  1.00  0.00    -0.470 OA 
HETATM    5  N   UNL     1     -11.644   9.051  72.054  1.00  0.00    -0.364 N  
HETATM    6  H   UNL     1     -10.810   9.474  71.649  1.00  0.00     0.000 HD 
BRANCH   5   7
HETATM    7  C   UNL     1     -11.531   7.778  72.741  1.00  0.00    -0.359 C  
BRANCH   7   8
HETATM    8  C   UNL     1     -11.176   6.647  71.774  1.00  0.00    -0.299 C  
BRANCH   8   9
HETATM    9  C   UNL     1      -9.693   6.564  71.389  1.00  0.00    -0.184 C  
HETATM   10  C   UNL     1      -8.714   6.852  72.563  1.00  0.00    -0.135 C  
HETATM   11  C   UNL     1      -8.037   8.221  72.309  1.00  0.00    -0.203 C  
HETATM   12  C   UNL     1      -8.372   8.529  70.877  1.00  0.00    -0.166 A  
HETATM   13  C   UNL     1      -9.295   7.589  70.373  1.00  0.00    -0.161 A  
HETATM   14  C   UNL     1      -9.659   7.784  69.040  1.00  0.00    -0.155 A  
HETATM   15  C   UNL     1      -9.088   8.894  68.421  1.00  0.00    -0.137 A  
HETATM   16  O   UNL     1      -9.521   9.024  67.109  1.00  0.00    -0.142 OA 
HETATM   17  C   UNL     1      -8.199   9.818  68.936  1.00  0.00    -0.117 A  
HETATM   18  C   UNL     1      -7.810   9.623  70.238  1.00  0.00    -0.193 A  
HETATM   19  C   UNL     1     -10.428   7.916  66.869  1.00  0.00    -0.318 C  
HETATM   20  C   UNL     1     -10.550   7.056  68.133  1.00  0.00    -0.250 C  
ENDBRANCH   8   9
ENDBRANCH   7   8
ENDBRANCH   5   7
ENDBRANCH   2   3
TORSDOF 4
ENDMDL
MODEL      164
REMARK 921   NORMALIZED FREE ENERGY PREDICTED BY IDOCK:   -4.22 KCAL/MOL
REMARK 922        TOTAL FREE ENERGY PREDICTED BY IDOCK:   -5.41 KCAL/MOL
REMARK 923 INTER-LIGAND FREE ENERGY PREDICTED BY IDOCK:   -5.47 KCAL/MOL
REMARK 924 INTRA-LIGAND FREE ENERGY PREDICTED BY IDOCK:    0.06 KCAL/MOL
REMARK 927      BINDING AFFINITY PREDICTED BY RF-SCORE:    0.00 PKD
ROOT
HETATM    1  C   UNL     1      -9.782   9.773  65.346  1.00  0.00    -0.383 C  
HETATM    2  C   UNL     1     -10.565   9.696  66.646  1.00  0.00    -0.173 C  
ENDROOT
BRANCH   2   3
HETATM    3  C   UNL     1     -11.270  11.001  66.957  1.00  0.00    -0.181 C  
HETATM    4  O   UNL     1     -11.887  11.211  67.996  1.00  0.00    -0.582 OA 
HETATM    5  N   UNL     1     -11.151  11.934  65.949  1.00  0.00    -0.312 N  
HETATM    6  H   UNL     1     -10.612  11.699  65.115  1.00  0.00     0.000 HD 
BRANCH   5   7
HETATM    7  C   UNL     1     -11.775  13.240  66.045  1.00  0.00    -0.368 C  
BRANCH   7   8
HETATM    8  C   UNL     1     -10.948  14.311  65.330  1.00  0.00    -0.347 C  
BRANCH   8   9
HETATM    9  C   UNL     1      -9.676  14.747  66.067  1.00  0.00    -0.350 C  
HETATM   10  C   UNL     1      -9.077  13.659  67.004  1.00  0.00    -0.254 C  
HETATM   11  C   UNL     1      -9.302  14.101  68.471  1.00  0.00    -0.191 C  
HETATM   12  C   UNL     1      -9.708  15.543  68.355  1.00  0.00    -0.203 A  
HETATM   13  C   UNL     1      -9.906  15.893  67.003  1.00  0.00    -0.236 A  
HETATM   14  C   UNL     1     -10.273  17.223  66.791  1.00  0.00    -0.318 A  
HETATM   15  C   UNL     1     -10.425  17.991  67.943  1.00  0.00    -0.396 A  
HETATM   16  O   UNL     1     -10.811  19.290  67.641  1.00  0.00    -0.458 OA 
HETATM   17  C   UNL     1     -10.244  17.627  69.264  1.00  0.00    -0.147 A  
HETATM   18  C   UNL     1      -9.856  16.330  69.486  1.00  0.00    -0.159 A  
HETATM   19  C   UNL     1     -10.908  19.358  66.194  1.00  0.00    -0.311 C  
HETATM   20  C   UNL     1     -10.555  17.999  65.580  1.00  0.00    -0.104 C  
ENDBRANCH   8   9
ENDBRANCH   7   8
ENDBRANCH   5   7
ENDBRANCH   2   3
TORSDOF 4
ENDMDL
MODEL      165
REMARK 921   NORMALIZED FREE ENERGY PREDICTED BY IDOCK:   -4.22 KCAL/MOL
REMARK 922        TOTAL FREE ENERGY PREDICTED BY IDOCK:   -5.41 KCAL/MOL
REMARK 923 INTER-LIGAND FREE ENERGY PREDICTED BY IDOCK:   -4.99 KCAL/MOL
REMARK 924 INTRA-LIGAND FREE ENERGY PREDICTED BY IDOCK:   -0.42 KCAL/MOL
REMARK 927      BINDING AFFINITY PREDICTED BY RF-SCORE:    0.00 PKD
ROOT
HETATM    1  C   UNL     1      -6.787  20.717  67.528  1.00  0.00    -0.407 C  
HETATM    2  C   UNL     1      -7.046  19.761  66.377  1.00  0.00    -0.248 C  
ENDROOT
BRANCH   2   3
HETATM    3  C   UNL     1      -8.201  18.825  66.671  1.00  0.00    -0.289 C  
HETATM    4  O   UNL     1      -9.273  18.857  66.076  1.00  0.00    -0.468 OA 
HETATM    5  N   UNL     1      -7.926  17.928  67.682  1.00  0.00    -0.217 N  
HETATM    6  H   UNL     1      -7.009  17.945  68.126  1.00  0.00     0.000 HD 
BRANCH   5   7
HETATM    7  C   UNL     1      -8.912  16.962  68.128  1.00  0.00    -0.227 C  
BRANCH   7   8
HETATM    8  C   UNL     1      -8.479  15.529  67.808  1.00  0.00    -0.159 C  
BRANCH   8   9
HETATM    9  C   UNL     1      -9.173  14.897  66.595  1.00  0.00    -0.302 C  
HETATM   10  C   UNL     1     -10.483  15.618  66.164  1.00  0.00    -0.327 C  
HETATM   11  C   UNL     1     -11.681  14.702  66.513  1.00  0.00    -0.335 C  
HETATM   12  C   UNL     1     -11.044  13.375  66.817  1.00  0.00    -0.308 A  
HETATM   13  C   UNL     1      -9.640  13.498  66.852  1.00  0.00    -0.258 A  
HETATM   14  C   UNL     1      -8.955  12.311  67.114  1.00  0.00    -0.192 A  
HETATM   15  C   UNL     1      -9.759  11.195  67.338  1.00  0.00    -0.173 A  
HETATM   16  O   UNL     1      -8.999  10.067  67.612  1.00  0.00    -0.131 OA 
HETATM   17  C   UNL     1     -11.138  11.095  67.318  1.00  0.00    -0.366 A  
HETATM   18  C   UNL     1     -11.824  12.250  67.035  1.00  0.00    -0.329 A  
HETATM   19  C   UNL     1      -7.611  10.488  67.554  1.00  0.00    -0.093 C  
HETATM   20  C   UNL     1      -7.531  11.983  67.221  1.00  0.00    -0.158 C  
ENDBRANCH   8   9
ENDBRANCH   7   8
ENDBRANCH   5   7
ENDBRANCH   2   3
TORSDOF 4
ENDMDL
MODEL      166
REMARK 921   NORMALIZED FREE ENERGY PREDICTED BY IDOCK:   -4.22 KCAL/MOL
REMARK 922        TOTAL FREE ENERGY PREDICTED BY IDOCK:   -5.41 KCAL/MOL
REMARK 923 INTER-LIGAND FREE ENERGY PREDICTED BY IDOCK:   -4.96 KCAL/MOL
REMARK 924 INTRA-LIGAND FREE ENERGY PREDICTED BY IDOCK:   -0.44 KCAL/MOL
REMARK 927      BINDING AFFINITY PREDICTED BY RF-SCORE:    0.00 PKD
ROOT
HETATM    1  C   UNL     1      -6.052  10.690  68.052  1.00  0.00    -0.046 C  
HETATM    2  C   UNL     1      -6.625  10.782  66.648  1.00  0.00    -0.112 C  
ENDROOT
BRANCH   2   3
HETATM    3  C   UNL     1      -8.139  10.835  66.659  1.00  0.00    -0.142 C  
HETATM    4  O   UNL     1      -8.784  11.877  66.693  1.00  0.00    -0.192 OA 
HETATM    5  N   UNL     1      -8.724   9.587  66.628  1.00  0.00    -0.133 N  
HETATM    6  H   UNL     1      -8.129   8.760  66.587  1.00  0.00     0.000 HD 
BRANCH   5   7
HETATM    7  C   UNL     1     -10.165   9.423  66.655  1.00  0.00    -0.249 C  
BRANCH   7   8
HETATM    8  C   UNL     1     -10.572   8.148  67.398  1.00  0.00    -0.325 C  
BRANCH   8   9
HETATM    9  C   UNL     1      -9.977   7.999  68.804  1.00  0.00    -0.196 C  
HETATM   10  C   UNL     1      -9.682   6.529  69.218  1.00  0.00    -0.152 C  
HETATM   11  C   UNL     1     -10.701   6.115  70.308  1.00  0.00    -0.355 C  
HETATM   12  C   UNL     1     -11.326   7.415  70.729  1.00  0.00    -0.303 A  
HETATM   13  C   UNL     1     -10.906   8.462  69.883  1.00  0.00    -0.207 A  
HETATM   14  C   UNL     1     -11.425   9.717  70.205  1.00  0.00    -0.272 A  
HETATM   15  C   UNL     1     -12.305   9.741  71.285  1.00  0.00    -0.371 A  
HETATM   16  O   UNL     1     -12.788  11.021  71.519  1.00  0.00    -0.421 OA 
HETATM   17  C   UNL     1     -12.721   8.700  72.093  1.00  0.00    -0.447 A  
HETATM   18  C   UNL     1     -12.198   7.464  71.806  1.00  0.00    -0.359 A  
HETATM   19  C   UNL     1     -12.169  11.877  70.524  1.00  0.00    -0.336 C  
HETATM   20  C   UNL     1     -11.246  11.049  69.622  1.00  0.00    -0.345 C  
ENDBRANCH   8   9
ENDBRANCH   7   8
ENDBRANCH   5   7
ENDBRANCH   2   3
TORSDOF 4
ENDMDL
MODEL      167
REMARK 921   NORMALIZED FREE ENERGY PREDICTED BY IDOCK:   -4.21 KCAL/MOL
REMARK 922        TOTAL FREE ENERGY PREDICTED BY IDOCK:   -5.40 KCAL/MOL
REMARK 923 INTER-LIGAND FREE ENERGY PREDICTED BY IDOCK:   -4.97 KCAL/MOL
REMARK 924 INTRA-LIGAND FREE ENERGY PREDICTED BY IDOCK:   -0.43 KCAL/MOL
REMARK 927      BINDING AFFINITY PREDICTED BY RF-SCORE:    0.00 PKD
ROOT
HETATM    1  C   UNL     1      -9.755  18.310  66.758  1.00  0.00    -0.322 C  
HETATM    2  C   UNL     1     -10.318  18.246  68.167  1.00  0.00    -0.393 C  
ENDROOT
BRANCH   2   3
HETATM    3  C   UNL     1     -10.182  16.861  68.766  1.00  0.00    -0.311 C  
HETATM    4  O   UNL     1     -10.871  16.449  69.694  1.00  0.00    -0.318 OA 
HETATM    5  N   UNL     1      -9.201  16.104  68.162  1.00  0.00    -0.191 N  
HETATM    6  H   UNL     1      -8.673  16.502  67.385  1.00  0.00     0.000 HD 
BRANCH   5   7
HETATM    7  C   UNL     1      -8.900  14.756  68.605  1.00  0.00    -0.180 C  
BRANCH   7   8
HETATM    8  C   UNL     1      -8.406  13.882  67.450  1.00  0.00    -0.208 C  
BRANCH   8   9
HETATM    9  C   UNL     1      -9.427  12.866  66.923  1.00  0.00    -0.237 C  
HETATM   10  C   UNL     1     -10.703  13.507  66.305  1.00  0.00    -0.288 C  
HETATM   11  C   UNL     1     -11.894  13.237  67.258  1.00  0.00    -0.421 C  
HETATM   12  C   UNL     1     -11.371  12.194  68.204  1.00  0.00    -0.349 A  
HETATM   13  C   UNL     1      -9.990  11.991  67.999  1.00  0.00    -0.197 A  
HETATM   14  C   UNL     1      -9.413  11.025  68.826  1.00  0.00    -0.190 A  
HETATM   15  C   UNL     1     -10.275  10.437  69.749  1.00  0.00    -0.184 A  
HETATM   16  O   UNL     1      -9.615   9.508  70.541  1.00  0.00    -0.249 OA 
HETATM   17  C   UNL     1     -11.624  10.661  69.948  1.00  0.00    -0.396 A  
HETATM   18  C   UNL     1     -12.211  11.589  69.124  1.00  0.00    -0.221 A  
HETATM   19  C   UNL     1      -8.235   9.497  70.090  1.00  0.00    -0.177 C  
HETATM   20  C   UNL     1      -8.052  10.495  68.941  1.00  0.00    -0.138 C  
ENDBRANCH   8   9
ENDBRANCH   7   8
ENDBRANCH   5   7
ENDBRANCH   2   3
TORSDOF 4
ENDMDL
MODEL      168
REMARK 921   NORMALIZED FREE ENERGY PREDICTED BY IDOCK:   -4.20 KCAL/MOL
REMARK 922        TOTAL FREE ENERGY PREDICTED BY IDOCK:   -5.38 KCAL/MOL
REMARK 923 INTER-LIGAND FREE ENERGY PREDICTED BY IDOCK:   -5.16 KCAL/MOL
REMARK 924 INTRA-LIGAND FREE ENERGY PREDICTED BY IDOCK:   -0.22 KCAL/MOL
REMARK 927      BINDING AFFINITY PREDICTED BY RF-SCORE:    0.00 PKD
ROOT
HETATM    1  C   UNL     1      -9.748  20.007  68.099  1.00  0.00    -0.463 C  
HETATM    2  C   UNL     1     -10.943  19.244  67.554  1.00  0.00    -0.426 C  
ENDROOT
BRANCH   2   3
HETATM    3  C   UNL     1     -10.529  18.207  66.528  1.00  0.00    -0.341 C  
HETATM    4  O   UNL     1     -10.624  18.371  65.317  1.00  0.00    -0.527 OA 
HETATM    5  N   UNL     1     -10.034  17.053  67.096  1.00  0.00    -0.273 N  
HETATM    6  H   UNL     1      -9.969  16.986  68.112  1.00  0.00     0.000 HD 
BRANCH   5   7
HETATM    7  C   UNL     1      -9.604  15.931  66.284  1.00  0.00    -0.316 C  
BRANCH   7   8
HETATM    8  C   UNL     1      -9.501  14.646  67.109  1.00  0.00    -0.234 C  
BRANCH   8   9
HETATM    9  C   UNL     1      -9.442  13.351  66.290  1.00  0.00    -0.196 C  
HETATM   10  C   UNL     1     -10.667  13.133  65.355  1.00  0.00    -0.308 C  
HETATM   11  C   UNL     1     -11.515  11.970  65.927  1.00  0.00    -0.392 C  
HETATM   12  C   UNL     1     -10.618  11.340  66.954  1.00  0.00    -0.300 A  
HETATM   13  C   UNL     1      -9.458  12.120  67.141  1.00  0.00    -0.190 A  
HETATM   14  C   UNL     1      -8.552  11.606  68.070  1.00  0.00    -0.152 A  
HETATM   15  C   UNL     1      -8.945  10.426  68.698  1.00  0.00    -0.146 A  
HETATM   16  O   UNL     1      -7.998   9.999  69.619  1.00  0.00    -0.139 OA 
HETATM   17  C   UNL     1     -10.096   9.683  68.516  1.00  0.00    -0.195 A  
HETATM   18  C   UNL     1     -10.984  10.161  67.585  1.00  0.00    -0.331 A  
HETATM   19  C   UNL     1      -6.921  10.972  69.574  1.00  0.00    -0.126 C  
HETATM   20  C   UNL     1      -7.246  12.066  68.550  1.00  0.00    -0.101 C  
ENDBRANCH   8   9
ENDBRANCH   7   8
ENDBRANCH   5   7
ENDBRANCH   2   3
TORSDOF 4
ENDMDL
MODEL      169
REMARK 921   NORMALIZED FREE ENERGY PREDICTED BY IDOCK:   -4.19 KCAL/MOL
REMARK 922        TOTAL FREE ENERGY PREDICTED BY IDOCK:   -5.37 KCAL/MOL
REMARK 923 INTER-LIGAND FREE ENERGY PREDICTED BY IDOCK:   -4.90 KCAL/MOL
REMARK 924 INTRA-LIGAND FREE ENERGY PREDICTED BY IDOCK:   -0.47 KCAL/MOL
REMARK 927      BINDING AFFINITY PREDICTED BY RF-SCORE:    0.00 PKD
ROOT
HETATM    1  C   UNL     1     -12.837   7.812  71.833  1.00  0.00    -0.317 C  
HETATM    2  C   UNL     1     -13.700   9.009  72.190  1.00  0.00    -0.536 C  
ENDROOT
BRANCH   2   3
HETATM    3  C   UNL     1     -13.194  10.283  71.544  1.00  0.00    -0.386 C  
HETATM    4  O   UNL     1     -13.268  11.389  72.069  1.00  0.00    -0.503 OA 
HETATM    5  N   UNL     1     -12.640  10.075  70.299  1.00  0.00    -0.527 N  
HETATM    6  H   UNL     1     -12.597   9.127  69.926  1.00  0.00     0.000 HD 
BRANCH   5   7
HETATM    7  C   UNL     1     -12.118  11.172  69.507  1.00  0.00    -0.326 C  
BRANCH   7   8
HETATM    8  C   UNL     1     -10.644  10.959  69.156  1.00  0.00    -0.253 C  
BRANCH   8   9
HETATM    9  C   UNL     1     -10.321   9.610  68.503  1.00  0.00    -0.231 C  
HETATM   10  C   UNL     1      -9.379   8.703  69.346  1.00  0.00    -0.150 C  
HETATM   11  C   UNL     1      -8.002   8.642  68.641  1.00  0.00    -0.115 C  
HETATM   12  C   UNL     1      -8.267   9.217  67.279  1.00  0.00    -0.121 A  
HETATM   13  C   UNL     1      -9.572   9.748  67.213  1.00  0.00    -0.194 A  
HETATM   14  C   UNL     1      -9.919  10.296  65.977  1.00  0.00    -0.308 A  
HETATM   15  C   UNL     1      -8.917  10.270  65.010  1.00  0.00    -0.196 A  
HETATM   16  O   UNL     1      -9.340  10.852  63.823  1.00  0.00    -0.218 OA 
HETATM   17  C   UNL     1      -7.635   9.761  65.096  1.00  0.00    -0.125 A  
HETATM   18  C   UNL     1      -7.289   9.194  66.298  1.00  0.00    -0.092 A  
HETATM   19  C   UNL     1     -10.710  11.276  64.045  1.00  0.00    -0.377 C  
HETATM   20  C   UNL     1     -11.144  10.923  65.473  1.00  0.00     0.075 C  
ENDBRANCH   8   9
ENDBRANCH   7   8
ENDBRANCH   5   7
ENDBRANCH   2   3
TORSDOF 4
ENDMDL
MODEL      170
REMARK 921   NORMALIZED FREE ENERGY PREDICTED BY IDOCK:   -4.18 KCAL/MOL
REMARK 922        TOTAL FREE ENERGY PREDICTED BY IDOCK:   -5.37 KCAL/MOL
REMARK 923 INTER-LIGAND FREE ENERGY PREDICTED BY IDOCK:   -5.16 KCAL/MOL
REMARK 924 INTRA-LIGAND FREE ENERGY PREDICTED BY IDOCK:   -0.20 KCAL/MOL
REMARK 927      BINDING AFFINITY PREDICTED BY RF-SCORE:    0.00 PKD
ROOT
HETATM    1  C   UNL     1     -13.282  12.288  71.908  1.00  0.00    -0.481 C  
HETATM    2  C   UNL     1     -12.695  11.141  71.105  1.00  0.00    -0.510 C  
ENDROOT
BRANCH   2   3
HETATM    3  C   UNL     1     -12.678   9.849  71.897  1.00  0.00    -0.409 C  
HETATM    4  O   UNL     1     -13.618   9.455  72.579  1.00  0.00    -0.459 OA 
HETATM    5  N   UNL     1     -11.493   9.155  71.774  1.00  0.00    -0.368 N  
HETATM    6  H   UNL     1     -10.755   9.531  71.179  1.00  0.00     0.000 HD 
BRANCH   5   7
HETATM    7  C   UNL     1     -11.270   7.904  72.473  1.00  0.00    -0.376 C  
BRANCH   7   8
HETATM    8  C   UNL     1     -12.124   6.775  71.890  1.00  0.00    -0.375 C  
BRANCH   8   9
HETATM    9  C   UNL     1     -11.365   5.477  71.589  1.00  0.00    -0.063 C  
HETATM   10  C   UNL     1     -10.688   4.832  72.832  1.00  0.00    -0.297 C  
HETATM   11  C   UNL     1      -9.154   5.000  72.694  1.00  0.00    -0.141 C  
HETATM   12  C   UNL     1      -8.965   5.421  71.264  1.00  0.00    -0.155 A  
HETATM   13  C   UNL     1     -10.211   5.678  70.656  1.00  0.00    -0.292 A  
HETATM   14  C   UNL     1     -10.139   6.064  69.317  1.00  0.00    -0.235 A  
HETATM   15  C   UNL     1      -8.852   6.174  68.795  1.00  0.00    -0.121 A  
HETATM   16  O   UNL     1      -8.874   6.583  67.469  1.00  0.00    -0.114 OA 
HETATM   17  C   UNL     1      -7.638   5.936  69.412  1.00  0.00    -0.092 A  
HETATM   18  C   UNL     1      -7.694   5.529  70.721  1.00  0.00    -0.091 A  
HETATM   19  C   UNL     1     -10.273   6.740  67.115  1.00  0.00    -0.225 C  
HETATM   20  C   UNL     1     -11.159   6.402  68.320  1.00  0.00    -0.359 C  
ENDBRANCH   8   9
ENDBRANCH   7   8
ENDBRANCH   5   7
ENDBRANCH   2   3
TORSDOF 4
ENDMDL
MODEL      171
REMARK 921   NORMALIZED FREE ENERGY PREDICTED BY IDOCK:   -4.17 KCAL/MOL
REMARK 922        TOTAL FREE ENERGY PREDICTED BY IDOCK:   -5.35 KCAL/MOL
REMARK 923 INTER-LIGAND FREE ENERGY PREDICTED BY IDOCK:   -4.84 KCAL/MOL
REMARK 924 INTRA-LIGAND FREE ENERGY PREDICTED BY IDOCK:   -0.51 KCAL/MOL
REMARK 927      BINDING AFFINITY PREDICTED BY RF-SCORE:    0.00 PKD
ROOT
HETATM    1  C   UNL     1      -6.493  10.409  69.141  1.00  0.00    -0.048 C  
HETATM    2  C   UNL     1      -6.076   9.183  68.347  1.00  0.00    -0.045 C  
ENDROOT
BRANCH   2   3
HETATM    3  C   UNL     1      -7.204   8.663  67.479  1.00  0.00    -0.081 C  
HETATM    4  O   UNL     1      -7.070   8.356  66.299  1.00  0.00    -0.075 OA 
HETATM    5  N   UNL     1      -8.404   8.570  68.151  1.00  0.00    -0.126 N  
HETATM    6  H   UNL     1      -8.444   8.828  69.136  1.00  0.00     0.000 HD 
BRANCH   5   7
HETATM    7  C   UNL     1      -9.612   8.114  67.488  1.00  0.00    -0.157 C  
BRANCH   7   8
HETATM    8  C   UNL     1     -10.710   9.179  67.527  1.00  0.00    -0.255 C  
BRANCH   8   9
HETATM    9  C   UNL     1     -10.227  10.618  67.311  1.00  0.00    -0.250 C  
HETATM   10  C   UNL     1     -10.941  11.672  68.205  1.00  0.00    -0.273 C  
HETATM   11  C   UNL     1     -11.862  12.532  67.305  1.00  0.00    -0.381 C  
HETATM   12  C   UNL     1     -11.421  12.192  65.909  1.00  0.00    -0.418 A  
HETATM   13  C   UNL     1     -10.500  11.124  65.928  1.00  0.00    -0.310 A  
HETATM   14  C   UNL     1     -10.020  10.744  64.674  1.00  0.00    -0.386 A  
HETATM   15  C   UNL     1     -10.548  11.447  63.594  1.00  0.00    -0.412 A  
HETATM   16  O   UNL     1     -10.033  10.990  62.389  1.00  0.00    -0.032 OA 
HETATM   17  C   UNL     1     -11.466  12.481  63.591  1.00  0.00    -0.568 A  
HETATM   18  C   UNL     1     -11.926  12.884  64.819  1.00  0.00    -0.445 A  
HETATM   19  C   UNL     1      -9.107   9.923  62.721  1.00  0.00    -0.284 C  
HETATM   20  C   UNL     1      -9.062   9.723  64.240  1.00  0.00    -0.293 C  
ENDBRANCH   8   9
ENDBRANCH   7   8
ENDBRANCH   5   7
ENDBRANCH   2   3
TORSDOF 4
ENDMDL
MODEL      172
REMARK 921   NORMALIZED FREE ENERGY PREDICTED BY IDOCK:   -4.16 KCAL/MOL
REMARK 922        TOTAL FREE ENERGY PREDICTED BY IDOCK:   -5.34 KCAL/MOL
REMARK 923 INTER-LIGAND FREE ENERGY PREDICTED BY IDOCK:   -4.82 KCAL/MOL
REMARK 924 INTRA-LIGAND FREE ENERGY PREDICTED BY IDOCK:   -0.52 KCAL/MOL
REMARK 927      BINDING AFFINITY PREDICTED BY RF-SCORE:    0.00 PKD
ROOT
HETATM    1  C   UNL     1     -10.072  19.907  67.929  1.00  0.00    -0.571 C  
HETATM    2  C   UNL     1      -9.662  18.653  68.680  1.00  0.00    -0.418 C  
ENDROOT
BRANCH   2   3
HETATM    3  C   UNL     1     -10.511  17.460  68.292  1.00  0.00    -0.385 C  
HETATM    4  O   UNL     1     -10.724  17.123  67.132  1.00  0.00    -0.284 OA 
HETATM    5  N   UNL     1     -11.027  16.787  69.379  1.00  0.00    -0.328 N  
HETATM    6  H   UNL     1     -10.800  17.112  70.319  1.00  0.00     0.000 HD 
BRANCH   5   7
HETATM    7  C   UNL     1     -11.886  15.629  69.218  1.00  0.00    -0.363 C  
BRANCH   7   8
HETATM    8  C   UNL     1     -11.130  14.327  69.495  1.00  0.00    -0.244 C  
BRANCH   8   9
HETATM    9  C   UNL     1     -10.911  13.432  68.270  1.00  0.00    -0.275 C  
HETATM   10  C   UNL     1     -11.757  12.126  68.274  1.00  0.00    -0.401 C  
HETATM   11  C   UNL     1     -10.805  10.929  68.514  1.00  0.00    -0.262 C  
HETATM   12  C   UNL     1      -9.434  11.511  68.312  1.00  0.00    -0.189 A  
HETATM   13  C   UNL     1      -9.510  12.912  68.169  1.00  0.00    -0.218 A  
HETATM   14  C   UNL     1      -8.284  13.545  67.962  1.00  0.00    -0.163 A  
HETATM   15  C   UNL     1      -7.171  12.707  67.965  1.00  0.00    -0.112 A  
HETATM   16  O   UNL     1      -5.996  13.421  67.774  1.00  0.00    -0.134 OA 
HETATM   17  C   UNL     1      -7.112  11.336  68.125  1.00  0.00    -0.071 A  
HETATM   18  C   UNL     1      -8.314  10.696  68.303  1.00  0.00    -0.122 A  
HETATM   19  C   UNL     1      -6.384  14.813  67.634  1.00  0.00    -0.116 C  
HETATM   20  C   UNL     1      -7.907  14.946  67.750  1.00  0.00    -0.164 C  
ENDBRANCH   8   9
ENDBRANCH   7   8
ENDBRANCH   5   7
ENDBRANCH   2   3
TORSDOF 4
ENDMDL
MODEL      173
REMARK 921   NORMALIZED FREE ENERGY PREDICTED BY IDOCK:   -4.16 KCAL/MOL
REMARK 922        TOTAL FREE ENERGY PREDICTED BY IDOCK:   -5.34 KCAL/MOL
REMARK 923 INTER-LIGAND FREE ENERGY PREDICTED BY IDOCK:   -5.16 KCAL/MOL
REMARK 924 INTRA-LIGAND FREE ENERGY PREDICTED BY IDOCK:   -0.17 KCAL/MOL
REMARK 927      BINDING AFFINITY PREDICTED BY RF-SCORE:    0.00 PKD
ROOT
HETATM    1  C   UNL     1      -7.537   8.908  65.050  1.00  0.00    -0.100 C  
HETATM    2  C   UNL     1      -8.293   7.638  65.402  1.00  0.00    -0.134 C  
ENDROOT
BRANCH   2   3
HETATM    3  C   UNL     1      -8.815   7.669  66.824  1.00  0.00    -0.136 C  
HETATM    4  O   UNL     1      -8.493   6.858  67.686  1.00  0.00    -0.122 OA 
HETATM    5  N   UNL     1      -9.696   8.704  67.055  1.00  0.00    -0.182 N  
HETATM    6  H   UNL     1      -9.911   9.352  66.298  1.00  0.00     0.000 HD 
BRANCH   5   7
HETATM    7  C   UNL     1     -10.324   8.892  68.349  1.00  0.00    -0.200 C  
BRANCH   7   8
HETATM    8  C   UNL     1     -10.387  10.373  68.733  1.00  0.00    -0.213 C  
BRANCH   8   9
HETATM    9  C   UNL     1     -11.525  11.164  68.077  1.00  0.00    -0.366 C  
HETATM   10  C   UNL     1     -11.237  11.599  66.611  1.00  0.00    -0.362 C  
HETATM   11  C   UNL     1     -11.025  13.133  66.590  1.00  0.00    -0.301 C  
HETATM   12  C   UNL     1     -11.512  13.583  67.938  1.00  0.00    -0.353 A  
HETATM   13  C   UNL     1     -11.796  12.471  68.757  1.00  0.00    -0.347 A  
HETATM   14  C   UNL     1     -12.269  12.788  70.031  1.00  0.00    -0.279 A  
HETATM   15  C   UNL     1     -12.356  14.150  70.314  1.00  0.00    -0.356 A  
HETATM   16  O   UNL     1     -12.814  14.374  71.605  1.00  0.00    -0.312 OA 
HETATM   17  C   UNL     1     -12.056  15.229  69.504  1.00  0.00    -0.320 A  
HETATM   18  C   UNL     1     -11.615  14.932  68.239  1.00  0.00    -0.356 A  
HETATM   19  C   UNL     1     -13.042  13.064  72.187  1.00  0.00    -0.360 C  
HETATM   20  C   UNL     1     -12.694  11.970  71.170  1.00  0.00    -0.365 C  
ENDBRANCH   8   9
ENDBRANCH   7   8
ENDBRANCH   5   7
ENDBRANCH   2   3
TORSDOF 4
ENDMDL
MODEL      174
REMARK 921   NORMALIZED FREE ENERGY PREDICTED BY IDOCK:   -4.15 KCAL/MOL
REMARK 922        TOTAL FREE ENERGY PREDICTED BY IDOCK:   -5.32 KCAL/MOL
REMARK 923 INTER-LIGAND FREE ENERGY PREDICTED BY IDOCK:   -4.80 KCAL/MOL
REMARK 924 INTRA-LIGAND FREE ENERGY PREDICTED BY IDOCK:   -0.52 KCAL/MOL
REMARK 927      BINDING AFFINITY PREDICTED BY RF-SCORE:    0.00 PKD
ROOT
HETATM    1  C   UNL     1     -10.095   8.694  72.269  1.00  0.00    -0.363 C  
HETATM    2  C   UNL     1     -11.164   7.653  72.552  1.00  0.00    -0.399 C  
ENDROOT
BRANCH   2   3
HETATM    3  C   UNL     1     -11.642   6.976  71.283  1.00  0.00    -0.303 C  
HETATM    4  O   UNL     1     -12.821   6.743  71.038  1.00  0.00    -0.290 OA 
HETATM    5  N   UNL     1     -10.614   6.645  70.427  1.00  0.00    -0.214 N  
HETATM    6  H   UNL     1      -9.656   6.880  70.685  1.00  0.00     0.000 HD 
BRANCH   5   7
HETATM    7  C   UNL     1     -10.862   5.969  69.167  1.00  0.00    -0.352 C  
BRANCH   7   8
HETATM    8  C   UNL     1     -11.021   6.966  68.017  1.00  0.00    -0.241 C  
BRANCH   8   9
HETATM    9  C   UNL     1     -10.061   8.161  68.057  1.00  0.00    -0.241 C  
HETATM   10  C   UNL     1     -10.699   9.473  68.596  1.00  0.00    -0.218 C  
HETATM   11  C   UNL     1     -10.852  10.462  67.413  1.00  0.00    -0.344 C  
HETATM   12  C   UNL     1     -10.018   9.852  66.322  1.00  0.00    -0.322 A  
HETATM   13  C   UNL     1      -9.576   8.567  66.700  1.00  0.00    -0.292 A  
HETATM   14  C   UNL     1      -8.779   7.921  65.753  1.00  0.00    -0.163 A  
HETATM   15  C   UNL     1      -8.572   8.624  64.568  1.00  0.00    -0.070 A  
HETATM   16  O   UNL     1      -7.790   7.902  63.678  1.00  0.00    -0.132 OA 
HETATM   17  C   UNL     1      -9.029   9.878  64.206  1.00  0.00    -0.278 A  
HETATM   18  C   UNL     1      -9.792  10.536  65.138  1.00  0.00    -0.359 A  
HETATM   19  C   UNL     1      -7.469   6.651  64.341  1.00  0.00    -0.095 C  
HETATM   20  C   UNL     1      -8.107   6.619  65.735  1.00  0.00    -0.122 C  
ENDBRANCH   8   9
ENDBRANCH   7   8
ENDBRANCH   5   7
ENDBRANCH   2   3
TORSDOF 4
ENDMDL
MODEL      175
REMARK 921   NORMALIZED FREE ENERGY PREDICTED BY IDOCK:   -4.13 KCAL/MOL
REMARK 922        TOTAL FREE ENERGY PREDICTED BY IDOCK:   -5.30 KCAL/MOL
REMARK 923 INTER-LIGAND FREE ENERGY PREDICTED BY IDOCK:   -4.74 KCAL/MOL
REMARK 924 INTRA-LIGAND FREE ENERGY PREDICTED BY IDOCK:   -0.56 KCAL/MOL
REMARK 927      BINDING AFFINITY PREDICTED BY RF-SCORE:    0.00 PKD
ROOT
HETATM    1  C   UNL     1     -10.675  12.862  66.344  1.00  0.00    -0.286 C  
HETATM    2  C   UNL     1     -10.665  12.959  67.859  1.00  0.00    -0.235 C  
ENDROOT
BRANCH   2   3
HETATM    3  C   UNL     1     -11.500  11.868  68.500  1.00  0.00    -0.295 C  
HETATM    4  O   UNL     1     -12.155  11.049  67.864  1.00  0.00    -0.600 OA 
HETATM    5  N   UNL     1     -11.451  11.889  69.877  1.00  0.00    -0.495 N  
HETATM    6  H   UNL     1     -10.875  12.589  70.345  1.00  0.00     0.000 HD 
BRANCH   5   7
HETATM    7  C   UNL     1     -12.200  10.939  70.678  1.00  0.00    -0.376 C  
BRANCH   7   8
HETATM    8  C   UNL     1     -11.292   9.846  71.248  1.00  0.00    -0.404 C  
BRANCH   8   9
HETATM    9  C   UNL     1     -11.367   8.497  70.524  1.00  0.00    -0.235 C  
HETATM   10  C   UNL     1     -12.138   7.395  71.307  1.00  0.00    -0.359 C  
HETATM   11  C   UNL     1     -11.115   6.342  71.800  1.00  0.00    -0.321 C  
HETATM   12  C   UNL     1      -9.866   6.665  71.031  1.00  0.00    -0.196 A  
HETATM   13  C   UNL     1     -10.024   7.870  70.315  1.00  0.00    -0.189 A  
HETATM   14  C   UNL     1      -8.916   8.248  69.556  1.00  0.00    -0.150 A  
HETATM   15  C   UNL     1      -7.812   7.403  69.647  1.00  0.00    -0.117 A  
HETATM   16  O   UNL     1      -6.752   7.865  68.879  1.00  0.00    -0.047 OA 
HETATM   17  C   UNL     1      -7.667   6.234  70.369  1.00  0.00    -0.098 A  
HETATM   18  C   UNL     1      -8.758   5.834  71.100  1.00  0.00    -0.135 A  
HETATM   19  C   UNL     1      -7.212   9.089  68.248  1.00  0.00    -0.078 C  
HETATM   20  C   UNL     1      -8.656   9.385  68.669  1.00  0.00    -0.123 C  
ENDBRANCH   8   9
ENDBRANCH   7   8
ENDBRANCH   5   7
ENDBRANCH   2   3
TORSDOF 4
ENDMDL
MODEL      176
REMARK 921   NORMALIZED FREE ENERGY PREDICTED BY IDOCK:   -4.11 KCAL/MOL
REMARK 922        TOTAL FREE ENERGY PREDICTED BY IDOCK:   -5.28 KCAL/MOL
REMARK 923 INTER-LIGAND FREE ENERGY PREDICTED BY IDOCK:   -4.99 KCAL/MOL
REMARK 924 INTRA-LIGAND FREE ENERGY PREDICTED BY IDOCK:   -0.29 KCAL/MOL
REMARK 927      BINDING AFFINITY PREDICTED BY RF-SCORE:    0.00 PKD
ROOT
HETATM    1  C   UNL     1      -5.880  18.319  65.597  1.00  0.00    -0.254 C  
HETATM    2  C   UNL     1      -6.771  18.256  66.824  1.00  0.00    -0.217 C  
ENDROOT
BRANCH   2   3
HETATM    3  C   UNL     1      -7.245  16.844  67.106  1.00  0.00    -0.180 C  
HETATM    4  O   UNL     1      -6.489  15.896  67.291  1.00  0.00    -0.175 OA 
HETATM    5  N   UNL     1      -8.618  16.730  67.132  1.00  0.00    -0.190 N  
HETATM    6  H   UNL     1      -9.190  17.561  66.984  1.00  0.00     0.000 HD 
BRANCH   5   7
HETATM    7  C   UNL     1      -9.269  15.455  67.365  1.00  0.00    -0.197 C  
BRANCH   7   8
HETATM    8  C   UNL     1     -10.793  15.594  67.365  1.00  0.00    -0.315 C  
BRANCH   8   9
HETATM    9  C   UNL     1     -11.562  14.311  67.705  1.00  0.00    -0.383 C  
HETATM   10  C   UNL     1     -11.098  13.621  69.020  1.00  0.00    -0.295 C  
HETATM   11  C   UNL     1     -10.361  12.310  68.648  1.00  0.00    -0.204 C  
HETATM   12  C   UNL     1     -10.697  12.106  67.198  1.00  0.00    -0.267 A  
HETATM   13  C   UNL     1     -11.376  13.231  66.686  1.00  0.00    -0.353 A  
HETATM   14  C   UNL     1     -11.745  13.130  65.344  1.00  0.00    -0.383 A  
HETATM   15  C   UNL     1     -11.355  11.954  64.704  1.00  0.00    -0.293 A  
HETATM   16  O   UNL     1     -11.743  11.948  63.371  1.00  0.00    -0.447 OA 
HETATM   17  C   UNL     1     -10.673  10.868  65.217  1.00  0.00    -0.194 A  
HETATM   18  C   UNL     1     -10.328  10.941  66.544  1.00  0.00    -0.299 A  
HETATM   19  C   UNL     1     -12.433  13.204  63.143  1.00  0.00    -0.018 C  
HETATM   20  C   UNL     1     -12.461  14.029  64.435  1.00  0.00    -0.326 C  
ENDBRANCH   8   9
ENDBRANCH   7   8
ENDBRANCH   5   7
ENDBRANCH   2   3
TORSDOF 4
ENDMDL
MODEL      177
REMARK 921   NORMALIZED FREE ENERGY PREDICTED BY IDOCK:   -4.09 KCAL/MOL
REMARK 922        TOTAL FREE ENERGY PREDICTED BY IDOCK:   -5.24 KCAL/MOL
REMARK 923 INTER-LIGAND FREE ENERGY PREDICTED BY IDOCK:   -4.68 KCAL/MOL
REMARK 924 INTRA-LIGAND FREE ENERGY PREDICTED BY IDOCK:   -0.57 KCAL/MOL
REMARK 927      BINDING AFFINITY PREDICTED BY RF-SCORE:    0.00 PKD
ROOT
HETATM    1  C   UNL     1      -9.543   8.347  71.684  1.00  0.00    -0.288 C  
HETATM    2  C   UNL     1      -9.115   9.412  70.689  1.00  0.00    -0.292 C  
ENDROOT
BRANCH   2   3
HETATM    3  C   UNL     1      -8.769   8.815  69.339  1.00  0.00    -0.142 C  
HETATM    4  O   UNL     1      -7.735   8.194  69.114  1.00  0.00    -0.094 OA 
HETATM    5  N   UNL     1      -9.735   9.044  68.383  1.00  0.00    -0.153 N  
HETATM    6  H   UNL     1     -10.578   9.556  68.640  1.00  0.00     0.000 HD 
BRANCH   5   7
HETATM    7  C   UNL     1      -9.581   8.572  67.020  1.00  0.00    -0.188 C  
BRANCH   7   8
HETATM    8  C   UNL     1     -10.161   9.568  66.013  1.00  0.00    -0.319 C  
BRANCH   8   9
HETATM    9  C   UNL     1      -9.228  10.724  65.632  1.00  0.00    -0.226 C  
HETATM   10  C   UNL     1      -7.746  10.512  66.057  1.00  0.00    -0.147 C  
HETATM   11  C   UNL     1      -7.426  11.490  67.215  1.00  0.00    -0.139 C  
HETATM   12  C   UNL     1      -8.585  12.446  67.210  1.00  0.00    -0.185 A  
HETATM   13  C   UNL     1      -9.582  12.009  66.313  1.00  0.00    -0.243 A  
HETATM   14  C   UNL     1     -10.698  12.843  66.228  1.00  0.00    -0.292 A  
HETATM   15  C   UNL     1     -10.675  13.958  67.064  1.00  0.00    -0.283 A  
HETATM   16  O   UNL     1     -11.829  14.718  66.930  1.00  0.00    -0.354 OA 
HETATM   17  C   UNL     1      -9.696  14.363  67.951  1.00  0.00    -0.223 A  
HETATM   18  C   UNL     1      -8.581  13.566  68.026  1.00  0.00    -0.177 A  
HETATM   19  C   UNL     1     -12.645  14.045  65.935  1.00  0.00    -0.449 C  
HETATM   20  C   UNL     1     -11.928  12.786  65.434  1.00  0.00    -0.482 C  
ENDBRANCH   8   9
ENDBRANCH   7   8
ENDBRANCH   5   7
ENDBRANCH   2   3
TORSDOF 4
ENDMDL
MODEL      178
REMARK 921   NORMALIZED FREE ENERGY PREDICTED BY IDOCK:   -4.08 KCAL/MOL
REMARK 922        TOTAL FREE ENERGY PREDICTED BY IDOCK:   -5.24 KCAL/MOL
REMARK 923 INTER-LIGAND FREE ENERGY PREDICTED BY IDOCK:   -4.89 KCAL/MOL
REMARK 924 INTRA-LIGAND FREE ENERGY PREDICTED BY IDOCK:   -0.35 KCAL/MOL
REMARK 927      BINDING AFFINITY PREDICTED BY RF-SCORE:    0.00 PKD
ROOT
HETATM    1  C   UNL     1      -5.667  13.927  71.574  1.00  0.00    -0.211 C  
HETATM    2  C   UNL     1      -5.179  13.033  70.447  1.00  0.00    -0.114 C  
ENDROOT
BRANCH   2   3
HETATM    3  C   UNL     1      -6.316  12.583  69.552  1.00  0.00    -0.112 C  
HETATM    4  O   UNL     1      -6.666  11.414  69.430  1.00  0.00    -0.103 OA 
HETATM    5  N   UNL     1      -6.920  13.625  68.882  1.00  0.00    -0.109 N  
HETATM    6  H   UNL     1      -6.589  14.577  69.039  1.00  0.00     0.000 HD 
BRANCH   5   7
HETATM    7  C   UNL     1      -8.016  13.400  67.958  1.00  0.00    -0.148 C  
BRANCH   7   8
HETATM    8  C   UNL     1      -8.528  14.714  67.362  1.00  0.00    -0.219 C  
BRANCH   8   9
HETATM    9  C   UNL     1      -8.670  15.867  68.363  1.00  0.00    -0.183 C  
HETATM   10  C   UNL     1      -9.894  15.737  69.315  1.00  0.00    -0.265 C  
HETATM   11  C   UNL     1     -10.938  16.809  68.917  1.00  0.00    -0.259 C  
HETATM   12  C   UNL     1     -10.182  17.725  67.997  1.00  0.00    -0.377 A  
HETATM   13  C   UNL     1      -8.911  17.189  67.702  1.00  0.00    -0.226 A  
HETATM   14  C   UNL     1      -8.125  17.978  66.861  1.00  0.00    -0.255 A  
HETATM   15  C   UNL     1      -8.724  19.153  66.412  1.00  0.00    -0.328 A  
HETATM   16  O   UNL     1      -7.882  19.863  65.567  1.00  0.00    -0.362 OA 
HETATM   17  C   UNL     1      -9.979  19.656  66.697  1.00  0.00    -0.532 A  
HETATM   18  C   UNL     1     -10.754  18.903  67.544  1.00  0.00    -0.509 A  
HETATM   19  C   UNL     1      -6.657  19.091  65.473  1.00  0.00    -0.274 C  
HETATM   20  C   UNL     1      -6.770  17.821  66.324  1.00  0.00    -0.303 C  
ENDBRANCH   8   9
ENDBRANCH   7   8
ENDBRANCH   5   7
ENDBRANCH   2   3
TORSDOF 4
ENDMDL
MODEL      179
REMARK 921   NORMALIZED FREE ENERGY PREDICTED BY IDOCK:   -4.08 KCAL/MOL
REMARK 922        TOTAL FREE ENERGY PREDICTED BY IDOCK:   -5.23 KCAL/MOL
REMARK 923 INTER-LIGAND FREE ENERGY PREDICTED BY IDOCK:   -5.54 KCAL/MOL
REMARK 924 INTRA-LIGAND FREE ENERGY PREDICTED BY IDOCK:    0.30 KCAL/MOL
REMARK 927      BINDING AFFINITY PREDICTED BY RF-SCORE:    0.00 PKD
ROOT
HETATM    1  C   UNL     1     -14.306  13.757  72.255  1.00  0.00    -0.462 C  
HETATM    2  C   UNL     1     -13.071  14.641  72.240  1.00  0.00    -0.448 C  
ENDROOT
BRANCH   2   3
HETATM    3  C   UNL     1     -12.499  14.786  70.844  1.00  0.00    -0.328 C  
HETATM    4  O   UNL     1     -12.554  15.822  70.189  1.00  0.00    -0.347 OA 
HETATM    5  N   UNL     1     -11.909  13.631  70.378  1.00  0.00    -0.495 N  
HETATM    6  H   UNL     1     -11.884  12.807  70.979  1.00  0.00     0.000 HD 
BRANCH   5   7
HETATM    7  C   UNL     1     -11.321  13.559  69.054  1.00  0.00    -0.288 C  
BRANCH   7   8
HETATM    8  C   UNL     1     -10.637  12.211  68.816  1.00  0.00    -0.230 C  
BRANCH   8   9
HETATM    9  C   UNL     1     -11.505  10.981  69.110  1.00  0.00    -0.370 C  
HETATM   10  C   UNL     1     -11.969  10.870  70.591  1.00  0.00    -0.467 C  
HETATM   11  C   UNL     1     -11.213   9.690  71.252  1.00  0.00    -0.446 C  
HETATM   12  C   UNL     1     -10.601   8.958  70.090  1.00  0.00    -0.243 A  
HETATM   13  C   UNL     1     -10.780   9.689  68.897  1.00  0.00    -0.230 A  
HETATM   14  C   UNL     1     -10.255   9.081  67.756  1.00  0.00    -0.284 A  
HETATM   15  C   UNL     1      -9.606   7.867  67.971  1.00  0.00    -0.151 A  
HETATM   16  O   UNL     1      -9.098   7.345  66.789  1.00  0.00    -0.138 OA 
HETATM   17  C   UNL     1      -9.424   7.172  69.151  1.00  0.00    -0.147 A  
HETATM   18  C   UNL     1      -9.958   7.745  70.279  1.00  0.00    -0.189 A  
HETATM   19  C   UNL     1      -9.453   8.288  65.744  1.00  0.00     0.029 C  
HETATM   20  C   UNL     1     -10.231   9.466  66.342  1.00  0.00    -0.300 C  
ENDBRANCH   8   9
ENDBRANCH   7   8
ENDBRANCH   5   7
ENDBRANCH   2   3
TORSDOF 4
ENDMDL
MODEL      180
REMARK 921   NORMALIZED FREE ENERGY PREDICTED BY IDOCK:   -4.07 KCAL/MOL
REMARK 922        TOTAL FREE ENERGY PREDICTED BY IDOCK:   -5.23 KCAL/MOL
REMARK 923 INTER-LIGAND FREE ENERGY PREDICTED BY IDOCK:   -4.27 KCAL/MOL
REMARK 924 INTRA-LIGAND FREE ENERGY PREDICTED BY IDOCK:   -0.96 KCAL/MOL
REMARK 927      BINDING AFFINITY PREDICTED BY RF-SCORE:    0.00 PKD
ROOT
HETATM    1  C   UNL     1      -7.059   9.262  68.702  1.00  0.00    -0.070 C  
HETATM    2  C   UNL     1      -6.425   8.664  69.947  1.00  0.00    -0.034 C  
ENDROOT
BRANCH   2   3
HETATM    3  C   UNL     1      -7.406   7.813  70.726  1.00  0.00    -0.065 C  
HETATM    4  O   UNL     1      -7.451   6.589  70.658  1.00  0.00    -0.077 OA 
HETATM    5  N   UNL     1      -8.251   8.554  71.524  1.00  0.00    -0.143 N  
HETATM    6  H   UNL     1      -8.152   9.569  71.545  1.00  0.00     0.000 HD 
BRANCH   5   7
HETATM    7  C   UNL     1      -9.278   7.926  72.333  1.00  0.00    -0.181 C  
BRANCH   7   8
HETATM    8  C   UNL     1     -10.607   8.679  72.238  1.00  0.00    -0.375 C  
BRANCH   8   9
HETATM    9  C   UNL     1     -11.500   8.274  71.059  1.00  0.00    -0.303 C  
HETATM   10  C   UNL     1     -11.225   6.842  70.514  1.00  0.00    -0.370 C  
HETATM   11  C   UNL     1     -10.554   6.969  69.125  1.00  0.00    -0.235 C  
HETATM   12  C   UNL     1     -10.754   8.412  68.758  1.00  0.00    -0.086 A  
HETATM   13  C   UNL     1     -11.292   9.128  69.847  1.00  0.00    -0.047 A  
HETATM   14  C   UNL     1     -11.528  10.481  69.598  1.00  0.00    -0.349 A  
HETATM   15  C   UNL     1     -11.165  10.927  68.329  1.00  0.00    -0.286 A  
HETATM   16  O   UNL     1     -11.414  12.284  68.176  1.00  0.00    -0.270 OA 
HETATM   17  C   UNL     1     -10.621  10.215  67.277  1.00  0.00    -0.321 A  
HETATM   18  C   UNL     1     -10.408   8.877  67.499  1.00  0.00    -0.328 A  
HETATM   19  C   UNL     1     -11.981  12.737  69.433  1.00  0.00    -0.263 C  
HETATM   20  C   UNL     1     -12.080  11.565  70.416  1.00  0.00    -0.471 C  
ENDBRANCH   8   9
ENDBRANCH   7   8
ENDBRANCH   5   7
ENDBRANCH   2   3
TORSDOF 4
ENDMDL
MODEL      181
REMARK 921   NORMALIZED FREE ENERGY PREDICTED BY IDOCK:   -4.06 KCAL/MOL
REMARK 922        TOTAL FREE ENERGY PREDICTED BY IDOCK:   -5.22 KCAL/MOL
REMARK 923 INTER-LIGAND FREE ENERGY PREDICTED BY IDOCK:   -4.90 KCAL/MOL
REMARK 924 INTRA-LIGAND FREE ENERGY PREDICTED BY IDOCK:   -0.32 KCAL/MOL
REMARK 927      BINDING AFFINITY PREDICTED BY RF-SCORE:    0.00 PKD
ROOT
HETATM    1  C   UNL     1     -10.550  19.157  67.511  1.00  0.00    -0.567 C  
HETATM    2  C   UNL     1      -9.962  17.779  67.761  1.00  0.00    -0.322 C  
ENDROOT
BRANCH   2   3
HETATM    3  C   UNL     1     -10.473  16.759  66.763  1.00  0.00    -0.258 C  
HETATM    4  O   UNL     1     -10.495  16.942  65.551  1.00  0.00    -0.560 OA 
HETATM    5  N   UNL     1     -10.917  15.597  67.358  1.00  0.00    -0.312 N  
HETATM    6  H   UNL     1     -10.859  15.503  68.372  1.00  0.00     0.000 HD 
BRANCH   5   7
HETATM    7  C   UNL     1     -11.466  14.505  66.576  1.00  0.00    -0.362 C  
BRANCH   7   8
HETATM    8  C   UNL     1     -10.622  13.236  66.714  1.00  0.00    -0.276 C  
BRANCH   8   9
HETATM    9  C   UNL     1      -9.664  13.221  67.911  1.00  0.00    -0.224 C  
HETATM   10  C   UNL     1      -8.201  13.620  67.561  1.00  0.00    -0.189 C  
HETATM   11  C   UNL     1      -7.314  12.354  67.661  1.00  0.00    -0.132 C  
HETATM   12  C   UNL     1      -8.186  11.357  68.369  1.00  0.00    -0.151 A  
HETATM   13  C   UNL     1      -9.496  11.859  68.509  1.00  0.00    -0.151 A  
HETATM   14  C   UNL     1     -10.381  11.006  69.171  1.00  0.00    -0.210 A  
HETATM   15  C   UNL     1      -9.850   9.778  69.558  1.00  0.00    -0.214 A  
HETATM   16  O   UNL     1     -10.802   8.988  70.187  1.00  0.00    -0.229 OA 
HETATM   17  C   UNL     1      -8.566   9.293  69.397  1.00  0.00    -0.142 A  
HETATM   18  C   UNL     1      -7.677  10.132  68.772  1.00  0.00    -0.088 A  
HETATM   19  C   UNL     1     -12.027   9.766  70.209  1.00  0.00    -0.090 C  
HETATM   20  C   UNL     1     -11.794  11.127  69.541  1.00  0.00    -0.423 C  
ENDBRANCH   8   9
ENDBRANCH   7   8
ENDBRANCH   5   7
ENDBRANCH   2   3
TORSDOF 4
ENDMDL
MODEL      182
REMARK 921   NORMALIZED FREE ENERGY PREDICTED BY IDOCK:   -4.06 KCAL/MOL
REMARK 922        TOTAL FREE ENERGY PREDICTED BY IDOCK:   -5.22 KCAL/MOL
REMARK 923 INTER-LIGAND FREE ENERGY PREDICTED BY IDOCK:   -4.89 KCAL/MOL
REMARK 924 INTRA-LIGAND FREE ENERGY PREDICTED BY IDOCK:   -0.33 KCAL/MOL
REMARK 927      BINDING AFFINITY PREDICTED BY RF-SCORE:    0.00 PKD
ROOT
HETATM    1  C   UNL     1     -10.726  12.440  64.959  1.00  0.00    -0.329 C  
HETATM    2  C   UNL     1     -11.265  11.836  66.243  1.00  0.00    -0.370 C  
ENDROOT
BRANCH   2   3
HETATM    3  C   UNL     1     -10.387  10.709  66.749  1.00  0.00    -0.245 C  
HETATM    4  O   UNL     1      -9.216  10.557  66.417  1.00  0.00    -0.161 OA 
HETATM    5  N   UNL     1     -11.039   9.866  67.623  1.00  0.00    -0.441 N  
HETATM    6  H   UNL     1     -12.010  10.058  67.868  1.00  0.00     0.000 HD 
BRANCH   5   7
HETATM    7  C   UNL     1     -10.377   8.712  68.202  1.00  0.00    -0.216 C  
BRANCH   7   8
HETATM    8  C   UNL     1     -10.503   7.482  67.300  1.00  0.00    -0.391 C  
BRANCH   8   9
HETATM    9  C   UNL     1     -11.073   6.233  67.984  1.00  0.00    -0.365 C  
HETATM   10  C   UNL     1     -11.164   6.341  69.534  1.00  0.00    -0.500 C  
HETATM   11  C   UNL     1     -10.099   5.402  70.151  1.00  0.00    -0.322 C  
HETATM   12  C   UNL     1      -9.659   4.547  68.997  1.00  0.00    -0.245 A  
HETATM   13  C   UNL     1     -10.218   5.019  67.791  1.00  0.00    -0.156 A  
HETATM   14  C   UNL     1      -9.877   4.279  66.659  1.00  0.00    -0.236 A  
HETATM   15  C   UNL     1      -9.009   3.211  66.882  1.00  0.00    -0.160 A  
HETATM   16  O   UNL     1      -8.707   2.546  65.702  1.00  0.00    -0.109 OA 
HETATM   17  C   UNL     1      -8.455   2.772  68.070  1.00  0.00    -0.103 A  
HETATM   18  C   UNL     1      -8.803   3.475  69.196  1.00  0.00    -0.159 A  
HETATM   19  C   UNL     1      -9.437   3.231  64.651  1.00  0.00    -0.149 C  
HETATM   20  C   UNL     1     -10.236   4.397  65.243  1.00  0.00    -0.230 C  
ENDBRANCH   8   9
ENDBRANCH   7   8
ENDBRANCH   5   7
ENDBRANCH   2   3
TORSDOF 4
ENDMDL
MODEL      183
REMARK 921   NORMALIZED FREE ENERGY PREDICTED BY IDOCK:   -4.04 KCAL/MOL
REMARK 922        TOTAL FREE ENERGY PREDICTED BY IDOCK:   -5.18 KCAL/MOL
REMARK 923 INTER-LIGAND FREE ENERGY PREDICTED BY IDOCK:   -4.83 KCAL/MOL
REMARK 924 INTRA-LIGAND FREE ENERGY PREDICTED BY IDOCK:   -0.35 KCAL/MOL
REMARK 927      BINDING AFFINITY PREDICTED BY RF-SCORE:    0.00 PKD
ROOT
HETATM    1  C   UNL     1     -13.125  12.361  71.855  1.00  0.00    -0.471 C  
HETATM    2  C   UNL     1     -12.739  11.144  71.032  1.00  0.00    -0.476 C  
ENDROOT
BRANCH   2   3
HETATM    3  C   UNL     1     -12.872   9.860  71.827  1.00  0.00    -0.442 C  
HETATM    4  O   UNL     1     -13.910   9.501  72.372  1.00  0.00    -0.424 OA 
HETATM    5  N   UNL     1     -11.702   9.133  71.879  1.00  0.00    -0.371 N  
HETATM    6  H   UNL     1     -10.877   9.482  71.391  1.00  0.00     0.000 HD 
BRANCH   5   7
HETATM    7  C   UNL     1     -11.616   7.883  72.610  1.00  0.00    -0.377 C  
BRANCH   7   8
HETATM    8  C   UNL     1     -11.867   6.680  71.698  1.00  0.00    -0.383 C  
BRANCH   8   9
HETATM    9  C   UNL     1     -10.962   5.470  71.958  1.00  0.00    -0.276 C  
HETATM   10  C   UNL     1     -11.392   4.603  73.176  1.00  0.00    -0.355 C  
HETATM   11  C   UNL     1     -10.355   4.805  74.309  1.00  0.00    -0.317 C  
HETATM   12  C   UNL     1      -9.207   5.495  73.628  1.00  0.00    -0.133 A  
HETATM   13  C   UNL     1      -9.558   5.854  72.311  1.00  0.00    -0.165 A  
HETATM   14  C   UNL     1      -8.547   6.491  71.589  1.00  0.00    -0.128 A  
HETATM   15  C   UNL     1      -7.362   6.709  72.288  1.00  0.00    -0.089 A  
HETATM   16  O   UNL     1      -6.422   7.365  71.504  1.00  0.00    -0.040 OA 
HETATM   17  C   UNL     1      -7.040   6.366  73.587  1.00  0.00    -0.082 A  
HETATM   18  C   UNL     1      -8.015   5.715  74.300  1.00  0.00    -0.105 A  
HETATM   19  C   UNL     1      -7.049   7.577  70.212  1.00  0.00    -0.060 C  
HETATM   20  C   UNL     1      -8.472   7.007  70.220  1.00  0.00    -0.138 C  
ENDBRANCH   8   9
ENDBRANCH   7   8
ENDBRANCH   5   7
ENDBRANCH   2   3
TORSDOF 4
ENDMDL
MODEL      184
REMARK 921   NORMALIZED FREE ENERGY PREDICTED BY IDOCK:   -4.04 KCAL/MOL
REMARK 922        TOTAL FREE ENERGY PREDICTED BY IDOCK:   -5.18 KCAL/MOL
REMARK 923 INTER-LIGAND FREE ENERGY PREDICTED BY IDOCK:   -4.40 KCAL/MOL
REMARK 924 INTRA-LIGAND FREE ENERGY PREDICTED BY IDOCK:   -0.79 KCAL/MOL
REMARK 927      BINDING AFFINITY PREDICTED BY RF-SCORE:    0.00 PKD
ROOT
HETATM    1  C   UNL     1      -7.124   8.498  70.276  1.00  0.00    -0.043 C  
HETATM    2  C   UNL     1      -6.408   8.733  71.595  1.00  0.00    -0.073 C  
ENDROOT
BRANCH   2   3
HETATM    3  C   UNL     1      -7.233   8.261  72.776  1.00  0.00    -0.102 C  
HETATM    4  O   UNL     1      -7.316   8.871  73.836  1.00  0.00    -0.396 OA 
HETATM    5  N   UNL     1      -7.882   7.068  72.539  1.00  0.00    -0.093 N  
HETATM    6  H   UNL     1      -7.781   6.619  71.629  1.00  0.00     0.000 HD 
BRANCH   5   7
HETATM    7  C   UNL     1      -8.705   6.437  73.553  1.00  0.00    -0.123 C  
BRANCH   7   8
HETATM    8  C   UNL     1     -10.124   7.011  73.563  1.00  0.00    -0.348 C  
BRANCH   8   9
HETATM    9  C   UNL     1     -11.048   6.473  72.464  1.00  0.00    -0.294 C  
HETATM   10  C   UNL     1     -10.753   5.003  72.047  1.00  0.00    -0.205 C  
HETATM   11  C   UNL     1     -10.139   5.014  70.626  1.00  0.00    -0.313 C  
HETATM   12  C   UNL     1     -10.396   6.410  70.132  1.00  0.00    -0.245 A  
HETATM   13  C   UNL     1     -10.912   7.213  71.170  1.00  0.00    -0.272 A  
HETATM   14  C   UNL     1     -11.197   8.529  70.804  1.00  0.00    -0.289 A  
HETATM   15  C   UNL     1     -10.895   8.861  69.485  1.00  0.00    -0.153 A  
HETATM   16  O   UNL     1     -11.189  10.190  69.214  1.00  0.00    -0.227 OA 
HETATM   17  C   UNL     1     -10.371   8.065  68.483  1.00  0.00    -0.229 A  
HETATM   18  C   UNL     1     -10.111   6.760  68.822  1.00  0.00    -0.165 A  
HETATM   19  C   UNL     1     -11.721  10.747  70.444  1.00  0.00    -0.351 C  
HETATM   20  C   UNL     1     -11.748   9.672  71.537  1.00  0.00    -0.472 C  
ENDBRANCH   8   9
ENDBRANCH   7   8
ENDBRANCH   5   7
ENDBRANCH   2   3
TORSDOF 4
ENDMDL
MODEL      185
REMARK 921   NORMALIZED FREE ENERGY PREDICTED BY IDOCK:   -4.03 KCAL/MOL
REMARK 922        TOTAL FREE ENERGY PREDICTED BY IDOCK:   -5.17 KCAL/MOL
REMARK 923 INTER-LIGAND FREE ENERGY PREDICTED BY IDOCK:   -4.75 KCAL/MOL
REMARK 924 INTRA-LIGAND FREE ENERGY PREDICTED BY IDOCK:   -0.42 KCAL/MOL
REMARK 927      BINDING AFFINITY PREDICTED BY RF-SCORE:    0.00 PKD
ROOT
HETATM    1  C   UNL     1     -10.121   2.992  63.600  1.00  0.00    -0.170 C  
HETATM    2  C   UNL     1      -9.221   4.094  64.133  1.00  0.00    -0.149 C  
ENDROOT
BRANCH   2   3
HETATM    3  C   UNL     1      -9.703   4.618  65.470  1.00  0.00    -0.181 C  
HETATM    4  O   UNL     1     -10.887   4.721  65.776  1.00  0.00    -0.295 OA 
HETATM    5  N   UNL     1      -8.673   4.971  66.315  1.00  0.00    -0.115 N  
HETATM    6  H   UNL     1      -7.710   4.847  66.005  1.00  0.00     0.000 HD 
BRANCH   5   7
HETATM    7  C   UNL     1      -8.927   5.516  67.636  1.00  0.00    -0.108 C  
BRANCH   7   8
HETATM    8  C   UNL     1      -8.848   7.044  67.638  1.00  0.00    -0.119 C  
BRANCH   8   9
HETATM    9  C   UNL     1     -10.195   7.764  67.494  1.00  0.00    -0.301 C  
HETATM   10  C   UNL     1     -10.149   9.025  66.584  1.00  0.00    -0.355 C  
HETATM   11  C   UNL     1     -10.308  10.278  67.480  1.00  0.00    -0.276 C  
HETATM   12  C   UNL     1     -10.766   9.723  68.799  1.00  0.00    -0.243 A  
HETATM   13  C   UNL     1     -10.705   8.314  68.789  1.00  0.00    -0.076 A  
HETATM   14  C   UNL     1     -11.125   7.703  69.971  1.00  0.00    -0.201 A  
HETATM   15  C   UNL     1     -11.506   8.573  70.991  1.00  0.00    -0.273 A  
HETATM   16  O   UNL     1     -11.888   7.882  72.133  1.00  0.00    -0.300 OA 
HETATM   17  C   UNL     1     -11.543   9.954  70.990  1.00  0.00    -0.470 A  
HETATM   18  C   UNL     1     -11.158  10.569  69.825  1.00  0.00    -0.354 A  
HETATM   19  C   UNL     1     -11.747   6.472  71.820  1.00  0.00    -0.324 C  
HETATM   20  C   UNL     1     -11.241   6.302  70.383  1.00  0.00    -0.439 C  
ENDBRANCH   8   9
ENDBRANCH   7   8
ENDBRANCH   5   7
ENDBRANCH   2   3
TORSDOF 4
ENDMDL
MODEL      186
REMARK 921   NORMALIZED FREE ENERGY PREDICTED BY IDOCK:   -4.03 KCAL/MOL
REMARK 922        TOTAL FREE ENERGY PREDICTED BY IDOCK:   -5.17 KCAL/MOL
REMARK 923 INTER-LIGAND FREE ENERGY PREDICTED BY IDOCK:   -4.81 KCAL/MOL
REMARK 924 INTRA-LIGAND FREE ENERGY PREDICTED BY IDOCK:   -0.36 KCAL/MOL
REMARK 927      BINDING AFFINITY PREDICTED BY RF-SCORE:    0.00 PKD
ROOT
HETATM    1  C   UNL     1      -9.325  12.253  66.796  1.00  0.00    -0.218 C  
HETATM    2  C   UNL     1      -9.865  12.754  68.124  1.00  0.00    -0.226 C  
ENDROOT
BRANCH   2   3
HETATM    3  C   UNL     1     -11.141  12.038  68.520  1.00  0.00    -0.244 C  
HETATM    4  O   UNL     1     -12.106  11.903  67.775  1.00  0.00    -0.564 OA 
HETATM    5  N   UNL     1     -11.111  11.553  69.809  1.00  0.00    -0.467 N  
HETATM    6  H   UNL     1     -10.271  11.687  70.372  1.00  0.00     0.000 HD 
BRANCH   5   7
HETATM    7  C   UNL     1     -12.245  10.855  70.385  1.00  0.00    -0.365 C  
BRANCH   7   8
HETATM    8  C   UNL     1     -11.867   9.441  70.832  1.00  0.00    -0.365 C  
BRANCH   8   9
HETATM    9  C   UNL     1     -10.592   8.878  70.194  1.00  0.00    -0.243 C  
HETATM   10  C   UNL     1     -10.771   8.407  68.721  1.00  0.00    -0.086 C  
HETATM   11  C   UNL     1     -10.694   6.860  68.692  1.00  0.00    -0.256 C  
HETATM   12  C   UNL     1     -10.153   6.500  70.047  1.00  0.00    -0.203 A  
HETATM   13  C   UNL     1     -10.094   7.641  70.874  1.00  0.00    -0.194 A  
HETATM   14  C   UNL     1      -9.590   7.409  72.154  1.00  0.00    -0.177 A  
HETATM   15  C   UNL     1      -9.257   6.085  72.434  1.00  0.00    -0.142 A  
HETATM   16  O   UNL     1      -8.785   5.943  73.732  1.00  0.00    -0.124 OA 
HETATM   17  C   UNL     1      -9.338   4.974  71.617  1.00  0.00    -0.188 A  
HETATM   18  C   UNL     1      -9.807   5.192  70.345  1.00  0.00    -0.288 A  
HETATM   19  C   UNL     1      -8.814   7.269  74.322  1.00  0.00    -0.215 C  
HETATM   20  C   UNL     1      -9.343   8.284  73.303  1.00  0.00    -0.244 C  
ENDBRANCH   8   9
ENDBRANCH   7   8
ENDBRANCH   5   7
ENDBRANCH   2   3
TORSDOF 4
ENDMDL
MODEL      187
REMARK 921   NORMALIZED FREE ENERGY PREDICTED BY IDOCK:   -4.02 KCAL/MOL
REMARK 922        TOTAL FREE ENERGY PREDICTED BY IDOCK:   -5.16 KCAL/MOL
REMARK 923 INTER-LIGAND FREE ENERGY PREDICTED BY IDOCK:   -4.79 KCAL/MOL
REMARK 924 INTRA-LIGAND FREE ENERGY PREDICTED BY IDOCK:   -0.37 KCAL/MOL
REMARK 927      BINDING AFFINITY PREDICTED BY RF-SCORE:    0.00 PKD
ROOT
HETATM    1  C   UNL     1     -11.066  11.529  63.721  1.00  0.00    -0.471 C  
HETATM    2  C   UNL     1     -11.980  12.609  63.167  1.00  0.00    -0.359 C  
ENDROOT
BRANCH   2   3
HETATM    3  C   UNL     1     -11.888  13.891  63.969  1.00  0.00    -0.337 C  
HETATM    4  O   UNL     1     -12.598  14.871  63.771  1.00  0.00    -0.791 OA 
HETATM    5  N   UNL     1     -10.918  13.848  64.948  1.00  0.00    -0.364 N  
HETATM    6  H   UNL     1     -10.371  12.997  65.069  1.00  0.00     0.000 HD 
BRANCH   5   7
HETATM    7  C   UNL     1     -10.658  14.986  65.809  1.00  0.00    -0.339 C  
BRANCH   7   8
HETATM    8  C   UNL     1      -9.903  14.572  67.075  1.00  0.00    -0.249 C  
BRANCH   8   9
HETATM    9  C   UNL     1      -8.427  14.215  66.862  1.00  0.00    -0.117 C  
HETATM   10  C   UNL     1      -8.096  12.712  67.086  1.00  0.00    -0.141 C  
HETATM   11  C   UNL     1      -7.270  12.584  68.390  1.00  0.00    -0.111 C  
HETATM   12  C   UNL     1      -6.865  13.997  68.701  1.00  0.00    -0.103 A  
HETATM   13  C   UNL     1      -7.515  14.899  67.833  1.00  0.00    -0.153 A  
HETATM   14  C   UNL     1      -7.191  16.241  68.035  1.00  0.00    -0.141 A  
HETATM   15  C   UNL     1      -6.308  16.491  69.084  1.00  0.00    -0.185 A  
HETATM   16  O   UNL     1      -6.060  17.849  69.227  1.00  0.00    -0.218 OA 
HETATM   17  C   UNL     1      -5.694  15.595  69.938  1.00  0.00    -0.145 A  
HETATM   18  C   UNL     1      -5.982  14.269  69.733  1.00  0.00    -0.120 A  
HETATM   19  C   UNL     1      -6.833  18.514  68.195  1.00  0.00    -0.229 C  
HETATM   20  C   UNL     1      -7.606  17.479  67.370  1.00  0.00    -0.213 C  
ENDBRANCH   8   9
ENDBRANCH   7   8
ENDBRANCH   5   7
ENDBRANCH   2   3
TORSDOF 4
ENDMDL
MODEL      188
REMARK 921   NORMALIZED FREE ENERGY PREDICTED BY IDOCK:   -4.01 KCAL/MOL
REMARK 922        TOTAL FREE ENERGY PREDICTED BY IDOCK:   -5.16 KCAL/MOL
REMARK 923 INTER-LIGAND FREE ENERGY PREDICTED BY IDOCK:   -4.96 KCAL/MOL
REMARK 924 INTRA-LIGAND FREE ENERGY PREDICTED BY IDOCK:   -0.19 KCAL/MOL
REMARK 927      BINDING AFFINITY PREDICTED BY RF-SCORE:    0.00 PKD
ROOT
HETATM    1  C   UNL     1      -6.011  10.668  69.908  1.00  0.00    -0.076 C  
HETATM    2  C   UNL     1      -6.439  10.822  68.458  1.00  0.00    -0.054 C  
ENDROOT
BRANCH   2   3
HETATM    3  C   UNL     1      -7.654  11.717  68.321  1.00  0.00    -0.122 C  
HETATM    4  O   UNL     1      -7.591  12.931  68.159  1.00  0.00    -0.113 OA 
HETATM    5  N   UNL     1      -8.845  11.028  68.398  1.00  0.00    -0.145 N  
HETATM    6  H   UNL     1      -8.827  10.015  68.519  1.00  0.00     0.000 HD 
BRANCH   5   7
HETATM    7  C   UNL     1     -10.123  11.708  68.311  1.00  0.00    -0.202 C  
BRANCH   7   8
HETATM    8  C   UNL     1     -10.575  11.871  66.858  1.00  0.00    -0.264 C  
BRANCH   8   9
HETATM    9  C   UNL     1     -11.708  12.882  66.641  1.00  0.00    -0.452 C  
HETATM   10  C   UNL     1     -12.510  12.666  65.325  1.00  0.00    -0.483 C  
HETATM   11  C   UNL     1     -12.167  13.818  64.350  1.00  0.00    -0.440 C  
HETATM   12  C   UNL     1     -11.459  14.824  65.214  1.00  0.00    -0.352 A  
HETATM   13  C   UNL     1     -11.216  14.288  66.496  1.00  0.00    -0.333 A  
HETATM   14  C   UNL     1     -10.573  15.156  67.379  1.00  0.00    -0.271 A  
HETATM   15  C   UNL     1     -10.236  16.402  66.853  1.00  0.00    -0.290 A  
HETATM   16  O   UNL     1      -9.582  17.190  67.791  1.00  0.00    -0.249 OA 
HETATM   17  C   UNL     1     -10.466  16.905  65.587  1.00  0.00    -0.252 A  
HETATM   18  C   UNL     1     -11.122  16.072  64.715  1.00  0.00    -0.378 A  
HETATM   19  C   UNL     1      -9.500  16.395  69.003  1.00  0.00    -0.258 C  
HETATM   20  C   UNL     1     -10.152  15.026  68.777  1.00  0.00    -0.231 C  
ENDBRANCH   8   9
ENDBRANCH   7   8
ENDBRANCH   5   7
ENDBRANCH   2   3
TORSDOF 4
ENDMDL
MODEL      189
REMARK 921   NORMALIZED FREE ENERGY PREDICTED BY IDOCK:   -4.01 KCAL/MOL
REMARK 922        TOTAL FREE ENERGY PREDICTED BY IDOCK:   -5.15 KCAL/MOL
REMARK 923 INTER-LIGAND FREE ENERGY PREDICTED BY IDOCK:   -4.75 KCAL/MOL
REMARK 924 INTRA-LIGAND FREE ENERGY PREDICTED BY IDOCK:   -0.40 KCAL/MOL
REMARK 927      BINDING AFFINITY PREDICTED BY RF-SCORE:    0.00 PKD
ROOT
HETATM    1  C   UNL     1     -12.126  15.931  72.532  1.00  0.00    -0.611 C  
HETATM    2  C   UNL     1     -13.015  14.700  72.508  1.00  0.00    -0.492 C  
ENDROOT
BRANCH   2   3
HETATM    3  C   UNL     1     -12.808  13.879  71.251  1.00  0.00    -0.360 C  
HETATM    4  O   UNL     1     -12.851  12.654  71.222  1.00  0.00    -0.355 OA 
HETATM    5  N   UNL     1     -12.562  14.652  70.136  1.00  0.00    -0.502 N  
HETATM    6  H   UNL     1     -12.554  15.667  70.225  1.00  0.00     0.000 HD 
BRANCH   5   7
HETATM    7  C   UNL     1     -12.315  14.053  68.837  1.00  0.00    -0.071 C  
BRANCH   7   8
HETATM    8  C   UNL     1     -10.826  14.071  68.485  1.00  0.00    -0.268 C  
BRANCH   8   9
HETATM    9  C   UNL     1     -10.457  13.340  67.189  1.00  0.00    -0.248 C  
HETATM   10  C   UNL     1     -11.573  12.399  66.649  1.00  0.00    -0.447 C  
HETATM   11  C   UNL     1     -11.111  10.934  66.844  1.00  0.00    -0.236 C  
HETATM   12  C   UNL     1      -9.650  11.056  67.170  1.00  0.00    -0.189 A  
HETATM   13  C   UNL     1      -9.296  12.409  67.352  1.00  0.00    -0.181 A  
HETATM   14  C   UNL     1      -7.949  12.626  67.646  1.00  0.00    -0.169 A  
HETATM   15  C   UNL     1      -7.168  11.477  67.751  1.00  0.00    -0.094 A  
HETATM   16  O   UNL     1      -5.851  11.785  68.065  1.00  0.00    -0.043 OA 
HETATM   17  C   UNL     1      -7.535  10.155  67.587  1.00  0.00    -0.090 A  
HETATM   18  C   UNL     1      -8.851   9.928  67.271  1.00  0.00    -0.138 A  
HETATM   19  C   UNL     1      -5.784  13.231  68.163  1.00  0.00    -0.101 C  
HETATM   20  C   UNL     1      -7.164  13.840  67.888  1.00  0.00    -0.156 C  
ENDBRANCH   8   9
ENDBRANCH   7   8
ENDBRANCH   5   7
ENDBRANCH   2   3
TORSDOF 4
ENDMDL
MODEL      190
REMARK 921   NORMALIZED FREE ENERGY PREDICTED BY IDOCK:   -4.01 KCAL/MOL
REMARK 922        TOTAL FREE ENERGY PREDICTED BY IDOCK:   -5.15 KCAL/MOL
REMARK 923 INTER-LIGAND FREE ENERGY PREDICTED BY IDOCK:   -4.65 KCAL/MOL
REMARK 924 INTRA-LIGAND FREE ENERGY PREDICTED BY IDOCK:   -0.50 KCAL/MOL
REMARK 927      BINDING AFFINITY PREDICTED BY RF-SCORE:    0.00 PKD
ROOT
HETATM    1  C   UNL     1      -7.649  11.558  67.195  1.00  0.00    -0.149 C  
HETATM    2  C   UNL     1      -6.983  10.211  67.418  1.00  0.00    -0.082 C  
ENDROOT
BRANCH   2   3
HETATM    3  C   UNL     1      -7.720   9.381  68.450  1.00  0.00    -0.086 C  
HETATM    4  O   UNL     1      -7.669   8.157  68.502  1.00  0.00    -0.108 OA 
HETATM    5  N   UNL     1      -8.460  10.143  69.328  1.00  0.00    -0.152 N  
HETATM    6  H   UNL     1      -8.448  11.159  69.238  1.00  0.00     0.000 HD 
BRANCH   5   7
HETATM    7  C   UNL     1      -9.255   9.535  70.377  1.00  0.00    -0.253 C  
BRANCH   7   8
HETATM    8  C   UNL     1     -10.753   9.741  70.138  1.00  0.00    -0.339 C  
BRANCH   8   9
HETATM    9  C   UNL     1     -11.659   8.652  70.724  1.00  0.00    -0.273 C  
HETATM   10  C   UNL     1     -11.890   8.772  72.258  1.00  0.00    -0.403 C  
HETATM   11  C   UNL     1     -11.136   7.614  72.957  1.00  0.00    -0.437 C  
HETATM   12  C   UNL     1     -10.778   6.686  71.831  1.00  0.00    -0.251 A  
HETATM   13  C   UNL     1     -11.084   7.276  70.588  1.00  0.00    -0.287 A  
HETATM   14  C   UNL     1     -10.798   6.481  69.477  1.00  0.00    -0.360 A  
HETATM   15  C   UNL     1     -10.222   5.245  69.760  1.00  0.00    -0.294 A  
HETATM   16  O   UNL     1      -9.952   4.532  68.600  1.00  0.00    -0.132 OA 
HETATM   17  C   UNL     1      -9.912   4.687  70.986  1.00  0.00    -0.270 A  
HETATM   18  C   UNL     1     -10.212   5.447  72.089  1.00  0.00    -0.253 A  
HETATM   19  C   UNL     1     -10.391   5.368  67.498  1.00  0.00    -0.190 C  
HETATM   20  C   UNL     1     -10.967   6.683  68.036  1.00  0.00    -0.332 C  
ENDBRANCH   8   9
ENDBRANCH   7   8
ENDBRANCH   5   7
ENDBRANCH   2   3
TORSDOF 4
ENDMDL
MODEL      191
REMARK 921   NORMALIZED FREE ENERGY PREDICTED BY IDOCK:   -4.00 KCAL/MOL
REMARK 922        TOTAL FREE ENERGY PREDICTED BY IDOCK:   -5.14 KCAL/MOL
REMARK 923 INTER-LIGAND FREE ENERGY PREDICTED BY IDOCK:   -4.63 KCAL/MOL
REMARK 924 INTRA-LIGAND FREE ENERGY PREDICTED BY IDOCK:   -0.52 KCAL/MOL
REMARK 927      BINDING AFFINITY PREDICTED BY RF-SCORE:    0.00 PKD
ROOT
HETATM    1  C   UNL     1      -9.361   9.222  68.225  1.00  0.00    -0.141 C  
HETATM    2  C   UNL     1     -10.391   9.850  69.149  1.00  0.00    -0.225 C  
ENDROOT
BRANCH   2   3
HETATM    3  C   UNL     1     -11.318  10.790  68.404  1.00  0.00    -0.302 C  
HETATM    4  O   UNL     1     -12.395  11.176  68.845  1.00  0.00    -0.512 OA 
HETATM    5  N   UNL     1     -10.828  11.168  67.172  1.00  0.00    -0.259 N  
HETATM    6  H   UNL     1      -9.918  10.821  66.870  1.00  0.00     0.000 HD 
BRANCH   5   7
HETATM    7  C   UNL     1     -11.577  12.047  66.294  1.00  0.00    -0.310 C  
BRANCH   7   8
HETATM    8  C   UNL     1     -11.073  13.490  66.381  1.00  0.00    -0.311 C  
BRANCH   8   9
HETATM    9  C   UNL     1     -10.685  13.957  67.789  1.00  0.00    -0.252 C  
HETATM   10  C   UNL     1     -11.556  15.125  68.336  1.00  0.00    -0.356 C  
HETATM   11  C   UNL     1     -10.687  16.406  68.372  1.00  0.00    -0.327 C  
HETATM   12  C   UNL     1      -9.287  15.898  68.174  1.00  0.00    -0.198 A  
HETATM   13  C   UNL     1      -9.301  14.524  67.857  1.00  0.00    -0.201 A  
HETATM   14  C   UNL     1      -8.041  13.955  67.667  1.00  0.00    -0.183 A  
HETATM   15  C   UNL     1      -6.965  14.833  67.783  1.00  0.00    -0.174 A  
HETATM   16  O   UNL     1      -5.756  14.189  67.559  1.00  0.00    -0.345 OA 
HETATM   17  C   UNL     1      -6.970  16.183  68.078  1.00  0.00    -0.139 A  
HETATM   18  C   UNL     1      -8.201  16.751  68.293  1.00  0.00    -0.204 A  
HETATM   19  C   UNL     1      -6.080  12.801  67.286  1.00  0.00    -0.035 C  
HETATM   20  C   UNL     1      -7.598  12.595  67.349  1.00  0.00    -0.150 C  
ENDBRANCH   8   9
ENDBRANCH   7   8
ENDBRANCH   5   7
ENDBRANCH   2   3
TORSDOF 4
ENDMDL
MODEL      192
REMARK 921   NORMALIZED FREE ENERGY PREDICTED BY IDOCK:   -4.00 KCAL/MOL
REMARK 922        TOTAL FREE ENERGY PREDICTED BY IDOCK:   -5.14 KCAL/MOL
REMARK 923 INTER-LIGAND FREE ENERGY PREDICTED BY IDOCK:   -4.68 KCAL/MOL
REMARK 924 INTRA-LIGAND FREE ENERGY PREDICTED BY IDOCK:   -0.46 KCAL/MOL
REMARK 927      BINDING AFFINITY PREDICTED BY RF-SCORE:    0.00 PKD
ROOT
HETATM    1  C   UNL     1     -12.429  14.839  64.942  1.00  0.00    -0.189 C  
HETATM    2  C   UNL     1     -11.031  15.394  65.154  1.00  0.00    -0.430 C  
ENDROOT
BRANCH   2   3
HETATM    3  C   UNL     1     -10.438  14.940  66.472  1.00  0.00    -0.297 C  
HETATM    4  O   UNL     1      -9.420  15.419  66.963  1.00  0.00    -0.210 OA 
HETATM    5  N   UNL     1     -11.158  13.928  67.069  1.00  0.00    -0.295 N  
HETATM    6  H   UNL     1     -12.004  13.584  66.615  1.00  0.00     0.000 HD 
BRANCH   5   7
HETATM    7  C   UNL     1     -10.742  13.340  68.328  1.00  0.00    -0.252 C  
BRANCH   7   8
HETATM    8  C   UNL     1      -9.788  12.163  68.110  1.00  0.00    -0.207 C  
BRANCH   8   9
HETATM    9  C   UNL     1     -10.462  10.854  67.682  1.00  0.00    -0.244 C  
HETATM   10  C   UNL     1     -10.277   9.683  68.691  1.00  0.00    -0.209 C  
HETATM   11  C   UNL     1      -9.319   8.642  68.061  1.00  0.00    -0.147 C  
HETATM   12  C   UNL     1      -9.240   9.053  66.617  1.00  0.00    -0.211 A  
HETATM   13  C   UNL     1      -9.891  10.288  66.419  1.00  0.00    -0.272 A  
HETATM   14  C   UNL     1      -9.883  10.748  65.101  1.00  0.00    -0.333 A  
HETATM   15  C   UNL     1      -9.205   9.940  64.191  1.00  0.00    -0.262 A  
HETATM   16  O   UNL     1      -9.229  10.482  62.913  1.00  0.00    -0.238 OA 
HETATM   17  C   UNL     1      -8.556   8.739  64.406  1.00  0.00    -0.110 A  
HETATM   18  C   UNL     1      -8.579   8.260  65.692  1.00  0.00    -0.189 A  
HETATM   19  C   UNL     1      -9.979  11.721  63.012  1.00  0.00    -0.239 C  
HETATM   20  C   UNL     1     -10.440  11.941  64.457  1.00  0.00    -0.341 C  
ENDBRANCH   8   9
ENDBRANCH   7   8
ENDBRANCH   5   7
ENDBRANCH   2   3
TORSDOF 4
ENDMDL
MODEL      193
REMARK 921   NORMALIZED FREE ENERGY PREDICTED BY IDOCK:   -4.00 KCAL/MOL
REMARK 922        TOTAL FREE ENERGY PREDICTED BY IDOCK:   -5.14 KCAL/MOL
REMARK 923 INTER-LIGAND FREE ENERGY PREDICTED BY IDOCK:   -4.68 KCAL/MOL
REMARK 924 INTRA-LIGAND FREE ENERGY PREDICTED BY IDOCK:   -0.46 KCAL/MOL
REMARK 927      BINDING AFFINITY PREDICTED BY RF-SCORE:    0.00 PKD
ROOT
HETATM    1  C   UNL     1     -10.411  18.184  66.015  1.00  0.00    -0.360 C  
HETATM    2  C   UNL     1     -10.554  18.589  67.472  1.00  0.00    -0.461 C  
ENDROOT
BRANCH   2   3
HETATM    3  C   UNL     1      -9.928  17.572  68.404  1.00  0.00    -0.335 C  
HETATM    4  O   UNL     1     -10.487  17.127  69.401  1.00  0.00    -0.321 OA 
HETATM    5  N   UNL     1      -8.659  17.195  68.019  1.00  0.00    -0.221 N  
HETATM    6  H   UNL     1      -8.258  17.593  67.171  1.00  0.00     0.000 HD 
BRANCH   5   7
HETATM    7  C   UNL     1      -7.882  16.246  68.793  1.00  0.00    -0.216 C  
BRANCH   7   8
HETATM    8  C   UNL     1      -7.270  15.162  67.902  1.00  0.00    -0.158 C  
BRANCH   8   9
HETATM    9  C   UNL     1      -7.373  13.735  68.454  1.00  0.00    -0.117 C  
HETATM   10  C   UNL     1      -6.099  12.871  68.227  1.00  0.00    -0.082 C  
HETATM   11  C   UNL     1      -6.424  11.792  67.165  1.00  0.00    -0.146 C  
HETATM   12  C   UNL     1      -7.922  11.837  67.051  1.00  0.00    -0.164 A  
HETATM   13  C   UNL     1      -8.440  12.925  67.784  1.00  0.00    -0.185 A  
HETATM   14  C   UNL     1      -9.830  13.043  67.751  1.00  0.00    -0.224 A  
HETATM   15  C   UNL     1     -10.492  12.096  66.973  1.00  0.00    -0.220 A  
HETATM   16  O   UNL     1     -11.864  12.301  66.980  1.00  0.00    -0.519 OA 
HETATM   17  C   UNL     1      -9.966  11.045  66.245  1.00  0.00    -0.269 A  
HETATM   18  C   UNL     1      -8.602  10.900  66.290  1.00  0.00    -0.164 A  
HETATM   19  C   UNL     1     -12.098  13.457  67.825  1.00  0.00    -0.259 C  
HETATM   20  C   UNL     1     -10.766  13.988  68.367  1.00  0.00    -0.261 C  
ENDBRANCH   8   9
ENDBRANCH   7   8
ENDBRANCH   5   7
ENDBRANCH   2   3
TORSDOF 4
ENDMDL
MODEL      194
REMARK 921   NORMALIZED FREE ENERGY PREDICTED BY IDOCK:   -3.99 KCAL/MOL
REMARK 922        TOTAL FREE ENERGY PREDICTED BY IDOCK:   -5.13 KCAL/MOL
REMARK 923 INTER-LIGAND FREE ENERGY PREDICTED BY IDOCK:   -4.82 KCAL/MOL
REMARK 924 INTRA-LIGAND FREE ENERGY PREDICTED BY IDOCK:   -0.31 KCAL/MOL
REMARK 927      BINDING AFFINITY PREDICTED BY RF-SCORE:    0.00 PKD
ROOT
HETATM    1  C   UNL     1     -10.768   5.739  67.863  1.00  0.00    -0.295 C  
HETATM    2  C   UNL     1     -10.940   6.853  66.845  1.00  0.00    -0.328 C  
ENDROOT
BRANCH   2   3
HETATM    3  C   UNL     1     -10.228   8.121  67.271  1.00  0.00    -0.278 C  
HETATM    4  O   UNL     1      -9.010   8.263  67.235  1.00  0.00    -0.134 OA 
HETATM    5  N   UNL     1     -11.089   9.104  67.707  1.00  0.00    -0.474 N  
HETATM    6  H   UNL     1     -12.093   8.927  67.698  1.00  0.00     0.000 HD 
BRANCH   5   7
HETATM    7  C   UNL     1     -10.601  10.387  68.179  1.00  0.00    -0.211 C  
BRANCH   7   8
HETATM    8  C   UNL     1     -10.568  11.424  67.053  1.00  0.00    -0.286 C  
BRANCH   8   9
HETATM    9  C   UNL     1     -11.189  12.781  67.404  1.00  0.00    -0.337 C  
HETATM   10  C   UNL     1     -12.470  13.125  66.591  1.00  0.00    -0.031 C  
HETATM   11  C   UNL     1     -12.127  14.266  65.601  1.00  0.00    -0.399 C  
HETATM   12  C   UNL     1     -10.795  14.771  66.080  1.00  0.00    -0.318 A  
HETATM   13  C   UNL     1     -10.287  13.935  67.095  1.00  0.00    -0.265 A  
HETATM   14  C   UNL     1      -9.054  14.332  67.616  1.00  0.00    -0.192 A  
HETATM   15  C   UNL     1      -8.497  15.468  67.032  1.00  0.00    -0.235 A  
HETATM   16  O   UNL     1      -7.266  15.777  67.595  1.00  0.00    -0.135 OA 
HETATM   17  C   UNL     1      -9.002  16.267  66.024  1.00  0.00    -0.325 A  
HETATM   18  C   UNL     1     -10.226  15.904  65.520  1.00  0.00    -0.394 A  
HETATM   19  C   UNL     1      -7.021  14.772  68.613  1.00  0.00    -0.110 C  
HETATM   20  C   UNL     1      -8.192  13.783  68.666  1.00  0.00    -0.077 C  
ENDBRANCH   8   9
ENDBRANCH   7   8
ENDBRANCH   5   7
ENDBRANCH   2   3
TORSDOF 4
ENDMDL
MODEL      195
REMARK 921   NORMALIZED FREE ENERGY PREDICTED BY IDOCK:   -3.99 KCAL/MOL
REMARK 922        TOTAL FREE ENERGY PREDICTED BY IDOCK:   -5.13 KCAL/MOL
REMARK 923 INTER-LIGAND FREE ENERGY PREDICTED BY IDOCK:   -4.68 KCAL/MOL
REMARK 924 INTRA-LIGAND FREE ENERGY PREDICTED BY IDOCK:   -0.44 KCAL/MOL
REMARK 927      BINDING AFFINITY PREDICTED BY RF-SCORE:    0.00 PKD
ROOT
HETATM    1  C   UNL     1      -9.915  16.314  68.041  1.00  0.00    -0.240 C  
HETATM    2  C   UNL     1     -10.617  15.303  68.930  1.00  0.00    -0.242 C  
ENDROOT
BRANCH   2   3
HETATM    3  C   UNL     1     -11.397  14.286  68.121  1.00  0.00    -0.288 C  
HETATM    4  O   UNL     1     -12.285  14.582  67.329  1.00  0.00    -0.347 OA 
HETATM    5  N   UNL     1     -11.008  12.987  68.367  1.00  0.00    -0.251 N  
HETATM    6  H   UNL     1     -10.252  12.810  69.028  1.00  0.00     0.000 HD 
BRANCH   5   7
HETATM    7  C   UNL     1     -11.648  11.865  67.707  1.00  0.00    -0.323 C  
BRANCH   7   8
HETATM    8  C   UNL     1     -10.638  11.021  66.926  1.00  0.00    -0.307 C  
BRANCH   8   9
HETATM    9  C   UNL     1      -9.933  11.751  65.778  1.00  0.00    -0.269 C  
HETATM   10  C   UNL     1     -10.894  12.521  64.826  1.00  0.00    -0.332 C  
HETATM   11  C   UNL     1     -10.935  11.777  63.468  1.00  0.00    -0.499 C  
HETATM   12  C   UNL     1      -9.779  10.820  63.546  1.00  0.00    -0.387 A  
HETATM   13  C   UNL     1      -9.223  10.823  64.842  1.00  0.00    -0.243 A  
HETATM   14  C   UNL     1      -8.129   9.972  65.011  1.00  0.00    -0.145 A  
HETATM   15  C   UNL     1      -7.776   9.224  63.889  1.00  0.00    -0.117 A  
HETATM   16  O   UNL     1      -6.696   8.393  64.151  1.00  0.00    -0.070 OA 
HETATM   17  C   UNL     1      -8.344   9.221  62.629  1.00  0.00    -0.185 A  
HETATM   18  C   UNL     1      -9.404  10.072  62.441  1.00  0.00    -0.286 A  
HETATM   19  C   UNL     1      -6.329   8.629  65.536  1.00  0.00    -0.055 C  
HETATM   20  C   UNL     1      -7.258   9.680  66.153  1.00  0.00    -0.098 C  
ENDBRANCH   8   9
ENDBRANCH   7   8
ENDBRANCH   5   7
ENDBRANCH   2   3
TORSDOF 4
ENDMDL
MODEL      196
REMARK 921   NORMALIZED FREE ENERGY PREDICTED BY IDOCK:   -3.99 KCAL/MOL
REMARK 922        TOTAL FREE ENERGY PREDICTED BY IDOCK:   -5.13 KCAL/MOL
REMARK 923 INTER-LIGAND FREE ENERGY PREDICTED BY IDOCK:   -4.84 KCAL/MOL
REMARK 924 INTRA-LIGAND FREE ENERGY PREDICTED BY IDOCK:   -0.28 KCAL/MOL
REMARK 927      BINDING AFFINITY PREDICTED BY RF-SCORE:    0.00 PKD
ROOT
HETATM    1  C   UNL     1      -8.144  17.302  66.949  1.00  0.00    -0.258 C  
HETATM    2  C   UNL     1      -9.089  16.449  66.121  1.00  0.00    -0.362 C  
ENDROOT
BRANCH   2   3
HETATM    3  C   UNL     1      -9.876  15.482  66.982  1.00  0.00    -0.232 C  
HETATM    4  O   UNL     1     -11.069  15.609  67.234  1.00  0.00    -0.309 OA 
HETATM    5  N   UNL     1      -9.112  14.438  67.459  1.00  0.00    -0.187 N  
HETATM    6  H   UNL     1      -8.127  14.383  67.201  1.00  0.00     0.000 HD 
BRANCH   5   7
HETATM    7  C   UNL     1      -9.676  13.416  68.321  1.00  0.00    -0.226 C  
BRANCH   7   8
HETATM    8  C   UNL     1      -9.046  12.047  68.056  1.00  0.00    -0.188 C  
BRANCH   8   9
HETATM    9  C   UNL     1     -10.026  10.868  68.070  1.00  0.00    -0.188 C  
HETATM   10  C   UNL     1     -11.518  11.279  67.906  1.00  0.00    -0.360 C  
HETATM   11  C   UNL     1     -12.237  11.055  69.259  1.00  0.00    -0.280 C  
HETATM   12  C   UNL     1     -11.264  10.231  70.053  1.00  0.00    -0.376 A  
HETATM   13  C   UNL     1     -10.033  10.128  69.371  1.00  0.00    -0.247 A  
HETATM   14  C   UNL     1      -9.064   9.367  70.026  1.00  0.00    -0.244 A  
HETATM   15  C   UNL     1      -9.443   8.856  71.266  1.00  0.00    -0.272 A  
HETATM   16  O   UNL     1      -8.415   8.132  71.854  1.00  0.00    -0.123 OA 
HETATM   17  C   UNL     1     -10.650   8.981  71.929  1.00  0.00    -0.388 A  
HETATM   18  C   UNL     1     -11.621   9.705  71.284  1.00  0.00    -0.466 A  
HETATM   19  C   UNL     1      -7.302   8.179  70.924  1.00  0.00    -0.059 C  
HETATM   20  C   UNL     1      -7.690   8.993  69.683  1.00  0.00    -0.075 C  
ENDBRANCH   8   9
ENDBRANCH   7   8
ENDBRANCH   5   7
ENDBRANCH   2   3
TORSDOF 4
ENDMDL
MODEL      197
REMARK 921   NORMALIZED FREE ENERGY PREDICTED BY IDOCK:   -3.98 KCAL/MOL
REMARK 922        TOTAL FREE ENERGY PREDICTED BY IDOCK:   -5.11 KCAL/MOL
REMARK 923 INTER-LIGAND FREE ENERGY PREDICTED BY IDOCK:   -4.74 KCAL/MOL
REMARK 924 INTRA-LIGAND FREE ENERGY PREDICTED BY IDOCK:   -0.37 KCAL/MOL
REMARK 927      BINDING AFFINITY PREDICTED BY RF-SCORE:    0.00 PKD
ROOT
HETATM    1  C   UNL     1     -10.593  17.592  68.230  1.00  0.00    -0.342 C  
HETATM    2  C   UNL     1     -11.347  16.378  68.743  1.00  0.00    -0.277 C  
ENDROOT
BRANCH   2   3
HETATM    3  C   UNL     1     -10.832  15.093  68.126  1.00  0.00    -0.266 C  
HETATM    4  O   UNL     1     -10.276  14.206  68.765  1.00  0.00    -0.233 OA 
HETATM    5  N   UNL     1     -11.050  15.020  66.767  1.00  0.00    -0.328 N  
HETATM    6  H   UNL     1     -11.531  15.787  66.298  1.00  0.00     0.000 HD 
BRANCH   5   7
HETATM    7  C   UNL     1     -10.610  13.878  65.988  1.00  0.00    -0.293 C  
BRANCH   7   8
HETATM    8  C   UNL     1     -11.764  12.912  65.707  1.00  0.00    -0.437 C  
BRANCH   8   9
HETATM    9  C   UNL     1     -11.533  11.471  66.180  1.00  0.00    -0.105 C  
HETATM   10  C   UNL     1     -11.590  11.291  67.725  1.00  0.00    -0.307 C  
HETATM   11  C   UNL     1     -10.156  11.003  68.235  1.00  0.00    -0.191 C  
HETATM   12  C   UNL     1      -9.383  10.697  66.984  1.00  0.00    -0.175 A  
HETATM   13  C   UNL     1     -10.169  10.956  65.842  1.00  0.00    -0.314 A  
HETATM   14  C   UNL     1      -9.539  10.688  64.626  1.00  0.00    -0.334 A  
HETATM   15  C   UNL     1      -8.222  10.242  64.721  1.00  0.00    -0.163 A  
HETATM   16  O   UNL     1      -7.668  10.021  63.467  1.00  0.00    -0.139 OA 
HETATM   17  C   UNL     1      -7.459  10.010  65.850  1.00  0.00    -0.115 A  
HETATM   18  C   UNL     1      -8.075  10.244  67.054  1.00  0.00    -0.121 A  
HETATM   19  C   UNL     1      -8.704  10.343  62.503  1.00  0.00    -0.231 C  
HETATM   20  C   UNL     1      -9.976  10.793  63.231  1.00  0.00    -0.369 C  
ENDBRANCH   8   9
ENDBRANCH   7   8
ENDBRANCH   5   7
ENDBRANCH   2   3
TORSDOF 4
ENDMDL
MODEL      198
REMARK 921   NORMALIZED FREE ENERGY PREDICTED BY IDOCK:   -3.97 KCAL/MOL
REMARK 922        TOTAL FREE ENERGY PREDICTED BY IDOCK:   -5.10 KCAL/MOL
REMARK 923 INTER-LIGAND FREE ENERGY PREDICTED BY IDOCK:   -4.81 KCAL/MOL
REMARK 924 INTRA-LIGAND FREE ENERGY PREDICTED BY IDOCK:   -0.30 KCAL/MOL
REMARK 927      BINDING AFFINITY PREDICTED BY RF-SCORE:    0.00 PKD
ROOT
HETATM    1  C   UNL     1      -6.719  13.989  69.491  1.00  0.00    -0.091 C  
HETATM    2  C   UNL     1      -6.730  13.767  67.988  1.00  0.00    -0.140 C  
ENDROOT
BRANCH   2   3
HETATM    3  C   UNL     1      -8.141  13.705  67.438  1.00  0.00    -0.175 C  
HETATM    4  O   UNL     1      -8.668  14.617  66.809  1.00  0.00    -0.237 OA 
HETATM    5  N   UNL     1      -8.778  12.516  67.718  1.00  0.00    -0.168 N  
HETATM    6  H   UNL     1      -8.278  11.792  68.234  1.00  0.00     0.000 HD 
BRANCH   5   7
HETATM    7  C   UNL     1     -10.144  12.269  67.296  1.00  0.00    -0.204 C  
BRANCH   7   8
HETATM    8  C   UNL     1     -10.714  11.006  67.948  1.00  0.00    -0.263 C  
BRANCH   8   9
HETATM    9  C   UNL     1      -9.748   9.817  68.010  1.00  0.00    -0.165 C  
HETATM   10  C   UNL     1      -9.405   9.201  66.623  1.00  0.00    -0.228 C  
HETATM   11  C   UNL     1     -10.085   7.813  66.524  1.00  0.00    -0.224 C  
HETATM   12  C   UNL     1     -10.512   7.519  67.934  1.00  0.00    -0.266 A  
HETATM   13  C   UNL     1     -10.309   8.646  68.757  1.00  0.00    -0.228 A  
HETATM   14  C   UNL     1     -10.664   8.466  70.094  1.00  0.00    -0.238 A  
HETATM   15  C   UNL     1     -11.197   7.217  70.407  1.00  0.00    -0.287 A  
HETATM   16  O   UNL     1     -11.540   7.132  71.750  1.00  0.00    -0.261 OA 
HETATM   17  C   UNL     1     -11.405   6.126  69.584  1.00  0.00    -0.442 A  
HETATM   18  C   UNL     1     -11.036   6.281  68.271  1.00  0.00    -0.408 A  
HETATM   19  C   UNL     1     -11.199   8.415  72.338  1.00  0.00    -0.368 C  
HETATM   20  C   UNL     1     -10.607   9.340  71.269  1.00  0.00    -0.417 C  
ENDBRANCH   8   9
ENDBRANCH   7   8
ENDBRANCH   5   7
ENDBRANCH   2   3
TORSDOF 4
ENDMDL
MODEL      199
REMARK 921   NORMALIZED FREE ENERGY PREDICTED BY IDOCK:   -3.97 KCAL/MOL
REMARK 922        TOTAL FREE ENERGY PREDICTED BY IDOCK:   -5.10 KCAL/MOL
REMARK 923 INTER-LIGAND FREE ENERGY PREDICTED BY IDOCK:   -4.60 KCAL/MOL
REMARK 924 INTRA-LIGAND FREE ENERGY PREDICTED BY IDOCK:   -0.50 KCAL/MOL
REMARK 927      BINDING AFFINITY PREDICTED BY RF-SCORE:    0.00 PKD
ROOT
HETATM    1  C   UNL     1      -6.109  13.783  67.773  1.00  0.00    -0.140 C  
HETATM    2  C   UNL     1      -5.875  13.361  69.213  1.00  0.00    -0.087 C  
ENDROOT
BRANCH   2   3
HETATM    3  C   UNL     1      -6.478  12.003  69.509  1.00  0.00    -0.109 C  
HETATM    4  O   UNL     1      -6.264  11.372  70.539  1.00  0.00    -0.295 OA 
HETATM    5  N   UNL     1      -7.294  11.542  68.498  1.00  0.00    -0.097 N  
HETATM    6  H   UNL     1      -7.440  12.123  67.672  1.00  0.00     0.000 HD 
BRANCH   5   7
HETATM    7  C   UNL     1      -7.948  10.250  68.579  1.00  0.00    -0.107 C  
BRANCH   7   8
HETATM    8  C   UNL     1      -9.296  10.348  69.298  1.00  0.00    -0.202 C  
BRANCH   8   9
HETATM    9  C   UNL     1     -10.520  10.404  68.376  1.00  0.00    -0.216 C  
HETATM   10  C   UNL     1     -10.291   9.769  66.974  1.00  0.00    -0.305 C  
HETATM   11  C   UNL     1     -10.255  10.906  65.924  1.00  0.00    -0.314 C  
HETATM   12  C   UNL     1     -10.782  12.101  66.667  1.00  0.00    -0.281 A  
HETATM   13  C   UNL     1     -10.933  11.802  68.037  1.00  0.00    -0.274 A  
HETATM   14  C   UNL     1     -11.433  12.850  68.812  1.00  0.00    -0.345 A  
HETATM   15  C   UNL     1     -11.672  14.039  68.126  1.00  0.00    -0.352 A  
HETATM   16  O   UNL     1     -12.145  15.030  68.975  1.00  0.00    -0.281 OA 
HETATM   17  C   UNL     1     -11.501  14.320  66.784  1.00  0.00    -0.380 A  
HETATM   18  C   UNL     1     -11.035  13.291  66.004  1.00  0.00    -0.292 A  
HETATM   19  C   UNL     1     -12.220  14.432  70.295  1.00  0.00    -0.334 C  
HETATM   20  C   UNL     1     -11.756  12.972  70.236  1.00  0.00    -0.192 C  
ENDBRANCH   8   9
ENDBRANCH   7   8
ENDBRANCH   5   7
ENDBRANCH   2   3
TORSDOF 4
ENDMDL
MODEL      200
REMARK 921   NORMALIZED FREE ENERGY PREDICTED BY IDOCK:   -3.96 KCAL/MOL
REMARK 922        TOTAL FREE ENERGY PREDICTED BY IDOCK:   -5.09 KCAL/MOL
REMARK 923 INTER-LIGAND FREE ENERGY PREDICTED BY IDOCK:   -4.81 KCAL/MOL
REMARK 924 INTRA-LIGAND FREE ENERGY PREDICTED BY IDOCK:   -0.28 KCAL/MOL
REMARK 927      BINDING AFFINITY PREDICTED BY RF-SCORE:    0.00 PKD
ROOT
HETATM    1  C   UNL     1      -9.226  10.808  65.185  1.00  0.00    -0.239 C  
HETATM    2  C   UNL     1     -10.520  10.509  65.923  1.00  0.00    -0.224 C  
ENDROOT
BRANCH   2   3
HETATM    3  C   UNL     1     -10.282  10.255  67.398  1.00  0.00    -0.218 C  
HETATM    4  O   UNL     1      -9.782  11.076  68.159  1.00  0.00    -0.163 OA 
HETATM    5  N   UNL     1     -10.684   9.000  67.801  1.00  0.00    -0.441 N  
HETATM    6  H   UNL     1     -11.106   8.369  67.120  1.00  0.00     0.000 HD 
BRANCH   5   7
HETATM    7  C   UNL     1     -10.521   8.555  69.173  1.00  0.00    -0.205 C  
BRANCH   7   8
HETATM    8  C   UNL     1     -10.670   7.036  69.292  1.00  0.00    -0.245 C  
BRANCH   8   9
HETATM    9  C   UNL     1     -11.552   6.560  70.453  1.00  0.00    -0.470 C  
HETATM   10  C   UNL     1     -12.341   7.699  71.162  1.00  0.00    -0.293 C  
HETATM   11  C   UNL     1     -11.727   7.915  72.567  1.00  0.00    -0.423 C  
HETATM   12  C   UNL     1     -10.848   6.712  72.766  1.00  0.00    -0.283 A  
HETATM   13  C   UNL     1     -10.766   5.959  71.576  1.00  0.00    -0.313 A  
HETATM   14  C   UNL     1      -9.980   4.810  71.665  1.00  0.00    -0.257 A  
HETATM   15  C   UNL     1      -9.367   4.600  72.899  1.00  0.00    -0.127 A  
HETATM   16  O   UNL     1      -8.589   3.450  72.891  1.00  0.00    -0.080 OA 
HETATM   17  C   UNL     1      -9.444   5.359  74.051  1.00  0.00    -0.136 A  
HETATM   18  C   UNL     1     -10.236   6.478  73.987  1.00  0.00    -0.374 A  
HETATM   19  C   UNL     1      -8.718   2.882  71.562  1.00  0.00    -0.070 C  
HETATM   20  C   UNL     1      -9.641   3.756  70.705  1.00  0.00    -0.249 C  
ENDBRANCH   8   9
ENDBRANCH   7   8
ENDBRANCH   5   7
ENDBRANCH   2   3
TORSDOF 4
ENDMDL
MODEL      201
REMARK 921   NORMALIZED FREE ENERGY PREDICTED BY IDOCK:   -3.95 KCAL/MOL
REMARK 922        TOTAL FREE ENERGY PREDICTED BY IDOCK:   -5.08 KCAL/MOL
REMARK 923 INTER-LIGAND FREE ENERGY PREDICTED BY IDOCK:   -4.50 KCAL/MOL
REMARK 924 INTRA-LIGAND FREE ENERGY PREDICTED BY IDOCK:   -0.57 KCAL/MOL
REMARK 927      BINDING AFFINITY PREDICTED BY RF-SCORE:    0.00 PKD
ROOT
HETATM    1  C   UNL     1     -10.407  11.812  63.228  1.00  0.00    -0.446 C  
HETATM    2  C   UNL     1     -11.293  13.025  63.454  1.00  0.00    -0.208 C  
ENDROOT
BRANCH   2   3
HETATM    3  C   UNL     1     -12.052  12.933  64.762  1.00  0.00    -0.422 C  
HETATM    4  O   UNL     1     -13.242  12.649  64.842  1.00  0.00    -0.819 OA 
HETATM    5  N   UNL     1     -11.267  13.205  65.863  1.00  0.00    -0.286 N  
HETATM    6  H   UNL     1     -10.279  13.421  65.728  1.00  0.00     0.000 HD 
BRANCH   5   7
HETATM    7  C   UNL     1     -11.812  13.191  67.207  1.00  0.00    -0.367 C  
BRANCH   7   8
HETATM    8  C   UNL     1     -11.114  12.151  68.086  1.00  0.00    -0.295 C  
BRANCH   8   9
HETATM    9  C   UNL     1     -10.175  11.196  67.339  1.00  0.00    -0.221 C  
HETATM   10  C   UNL     1     -10.740   9.756  67.162  1.00  0.00    -0.273 C  
HETATM   11  C   UNL     1      -9.933   8.801  68.075  1.00  0.00    -0.220 C  
HETATM   12  C   UNL     1      -8.742   9.618  68.490  1.00  0.00    -0.120 A  
HETATM   13  C   UNL     1      -8.888  10.954  68.064  1.00  0.00    -0.135 A  
HETATM   14  C   UNL     1      -7.821  11.792  68.392  1.00  0.00    -0.141 A  
HETATM   15  C   UNL     1      -6.794  11.194  69.120  1.00  0.00    -0.102 A  
HETATM   16  O   UNL     1      -5.789  12.103  69.421  1.00  0.00    -0.072 OA 
HETATM   17  C   UNL     1      -6.675   9.885  69.546  1.00  0.00    -0.057 A  
HETATM   18  C   UNL     1      -7.705   9.043  69.207  1.00  0.00    -0.090 A  
HETATM   19  C   UNL     1      -6.198  13.369  68.840  1.00  0.00    -0.090 C  
HETATM   20  C   UNL     1      -7.552  13.210  68.139  1.00  0.00    -0.141 C  
ENDBRANCH   8   9
ENDBRANCH   7   8
ENDBRANCH   5   7
ENDBRANCH   2   3
TORSDOF 4
ENDMDL
MODEL      202
REMARK 921   NORMALIZED FREE ENERGY PREDICTED BY IDOCK:   -3.91 KCAL/MOL
REMARK 922        TOTAL FREE ENERGY PREDICTED BY IDOCK:   -5.03 KCAL/MOL
REMARK 923 INTER-LIGAND FREE ENERGY PREDICTED BY IDOCK:   -4.63 KCAL/MOL
REMARK 924 INTRA-LIGAND FREE ENERGY PREDICTED BY IDOCK:   -0.40 KCAL/MOL
REMARK 927      BINDING AFFINITY PREDICTED BY RF-SCORE:    0.00 PKD
ROOT
HETATM    1  C   UNL     1     -14.393   8.389  72.079  1.00  0.00    -0.555 C  
HETATM    2  C   UNL     1     -13.144   8.963  72.724  1.00  0.00    -0.210 C  
ENDROOT
BRANCH   2   3
HETATM    3  C   UNL     1     -12.266   9.677  71.717  1.00  0.00    -0.384 C  
HETATM    4  O   UNL     1     -12.659  10.587  70.994  1.00  0.00    -0.333 OA 
HETATM    5  N   UNL     1     -10.974   9.198  71.691  1.00  0.00    -0.358 N  
HETATM    6  H   UNL     1     -10.708   8.448  72.328  1.00  0.00     0.000 HD 
BRANCH   5   7
HETATM    7  C   UNL     1      -9.983   9.736  70.777  1.00  0.00    -0.081 C  
BRANCH   7   8
HETATM    8  C   UNL     1      -9.526   8.685  69.762  1.00  0.00    -0.166 C  
BRANCH   8   9
HETATM    9  C   UNL     1     -10.476   8.473  68.577  1.00  0.00    -0.205 C  
HETATM   10  C   UNL     1     -10.537   7.005  68.065  1.00  0.00    -0.260 C  
HETATM   11  C   UNL     1      -9.839   6.941  66.684  1.00  0.00    -0.217 C  
HETATM   12  C   UNL     1      -9.695   8.383  66.286  1.00  0.00    -0.278 A  
HETATM   13  C   UNL     1     -10.062   9.228  67.353  1.00  0.00    -0.280 A  
HETATM   14  C   UNL     1      -9.974  10.593  67.074  1.00  0.00    -0.243 A  
HETATM   15  C   UNL     1      -9.503  10.913  65.802  1.00  0.00    -0.211 A  
HETATM   16  O   UNL     1      -9.428  12.287  65.619  1.00  0.00    -0.186 OA 
HETATM   17  C   UNL     1      -9.129  10.071  64.773  1.00  0.00    -0.268 A  
HETATM   18  C   UNL     1      -9.237   8.725  65.024  1.00  0.00     0.045 A  
HETATM   19  C   UNL     1      -9.887  12.888  66.858  1.00  0.00    -0.235 C  
HETATM   20  C   UNL     1     -10.266  11.793  67.862  1.00  0.00    -0.203 C  
ENDBRANCH   8   9
ENDBRANCH   7   8
ENDBRANCH   5   7
ENDBRANCH   2   3
TORSDOF 4
ENDMDL
MODEL      203
REMARK 921   NORMALIZED FREE ENERGY PREDICTED BY IDOCK:   -3.91 KCAL/MOL
REMARK 922        TOTAL FREE ENERGY PREDICTED BY IDOCK:   -5.03 KCAL/MOL
REMARK 923 INTER-LIGAND FREE ENERGY PREDICTED BY IDOCK:   -4.72 KCAL/MOL
REMARK 924 INTRA-LIGAND FREE ENERGY PREDICTED BY IDOCK:   -0.31 KCAL/MOL
REMARK 927      BINDING AFFINITY PREDICTED BY RF-SCORE:    0.00 PKD
ROOT
HETATM    1  C   UNL     1     -11.795  13.059  63.594  1.00  0.00    -0.580 C  
HETATM    2  C   UNL     1     -11.041  11.740  63.587  1.00  0.00    -0.518 C  
ENDROOT
BRANCH   2   3
HETATM    3  C   UNL     1     -10.757  11.246  64.991  1.00  0.00    -0.256 C  
HETATM    4  O   UNL     1     -10.941  11.917  66.000  1.00  0.00    -0.288 OA 
HETATM    5  N   UNL     1     -10.266   9.958  65.021  1.00  0.00    -0.273 N  
HETATM    6  H   UNL     1     -10.149   9.449  64.145  1.00  0.00     0.000 HD 
BRANCH   5   7
HETATM    7  C   UNL     1      -9.910   9.310  66.270  1.00  0.00    -0.291 C  
BRANCH   7   8
HETATM    8  C   UNL     1      -8.559   8.599  66.169  1.00  0.00    -0.158 C  
BRANCH   8   9
HETATM    9  C   UNL     1      -8.519   7.193  66.778  1.00  0.00    -0.121 C  
HETATM   10  C   UNL     1      -9.274   6.116  65.945  1.00  0.00    -0.068 C  
HETATM   11  C   UNL     1     -10.554   5.712  66.717  1.00  0.00    -0.372 C  
HETATM   12  C   UNL     1     -10.347   6.292  68.088  1.00  0.00    -0.236 A  
HETATM   13  C   UNL     1      -9.200   7.112  68.109  1.00  0.00    -0.131 A  
HETATM   14  C   UNL     1      -8.915   7.688  69.348  1.00  0.00    -0.139 A  
HETATM   15  C   UNL     1      -9.824   7.397  70.364  1.00  0.00    -0.183 A  
HETATM   16  O   UNL     1      -9.476   8.026  71.552  1.00  0.00    -0.149 OA 
HETATM   17  C   UNL     1     -10.955   6.605  70.322  1.00  0.00    -0.355 A  
HETATM   18  C   UNL     1     -11.232   6.010  69.116  1.00  0.00    -0.337 A  
HETATM   19  C   UNL     1      -8.258   8.766  71.278  1.00  0.00    -0.167 C  
HETATM   20  C   UNL     1      -7.842   8.569  69.816  1.00  0.00    -0.094 C  
ENDBRANCH   8   9
ENDBRANCH   7   8
ENDBRANCH   5   7
ENDBRANCH   2   3
TORSDOF 4
ENDMDL
MODEL      204
REMARK 921   NORMALIZED FREE ENERGY PREDICTED BY IDOCK:   -3.89 KCAL/MOL
REMARK 922        TOTAL FREE ENERGY PREDICTED BY IDOCK:   -5.00 KCAL/MOL
REMARK 923 INTER-LIGAND FREE ENERGY PREDICTED BY IDOCK:   -4.78 KCAL/MOL
REMARK 924 INTRA-LIGAND FREE ENERGY PREDICTED BY IDOCK:   -0.22 KCAL/MOL
REMARK 927      BINDING AFFINITY PREDICTED BY RF-SCORE:    0.00 PKD
ROOT
HETATM    1  C   UNL     1      -6.997   9.803  68.180  1.00  0.00    -0.077 C  
HETATM    2  C   UNL     1      -7.656  10.893  67.352  1.00  0.00    -0.100 C  
ENDROOT
BRANCH   2   3
HETATM    3  C   UNL     1      -6.772  12.117  67.226  1.00  0.00    -0.144 C  
HETATM    4  O   UNL     1      -5.778  12.170  66.509  1.00  0.00    -0.246 OA 
HETATM    5  N   UNL     1      -7.197  13.173  68.004  1.00  0.00    -0.109 N  
HETATM    6  H   UNL     1      -8.040  13.068  68.568  1.00  0.00     0.000 HD 
BRANCH   5   7
HETATM    7  C   UNL     1      -6.473  14.429  68.040  1.00  0.00    -0.151 C  
BRANCH   7   8
HETATM    8  C   UNL     1      -7.347  15.595  67.575  1.00  0.00    -0.213 C  
BRANCH   8   9
HETATM    9  C   UNL     1      -8.215  16.232  68.667  1.00  0.00    -0.214 C  
HETATM   10  C   UNL     1      -9.575  15.514  68.900  1.00  0.00    -0.220 C  
HETATM   11  C   UNL     1     -10.707  16.431  68.371  1.00  0.00    -0.327 C  
HETATM   12  C   UNL     1     -10.030  17.755  68.161  1.00  0.00    -0.342 A  
HETATM   13  C   UNL     1      -8.636  17.631  68.338  1.00  0.00    -0.284 A  
HETATM   14  C   UNL     1      -7.918  18.817  68.177  1.00  0.00    -0.317 A  
HETATM   15  C   UNL     1      -8.678  19.932  67.831  1.00  0.00    -0.290 A  
HETATM   16  O   UNL     1      -7.883  21.059  67.670  1.00  0.00    -0.193 OA 
HETATM   17  C   UNL     1     -10.043  20.033  67.643  1.00  0.00    -0.562 A  
HETATM   18  C   UNL     1     -10.766  18.881  67.825  1.00  0.00    -0.426 A  
HETATM   19  C   UNL     1      -6.520  20.636  67.937  1.00  0.00    -0.312 C  
HETATM   20  C   UNL     1      -6.494  19.143  68.283  1.00  0.00    -0.254 C  
ENDBRANCH   8   9
ENDBRANCH   7   8
ENDBRANCH   5   7
ENDBRANCH   2   3
TORSDOF 4
ENDMDL
MODEL      205
REMARK 921   NORMALIZED FREE ENERGY PREDICTED BY IDOCK:   -3.88 KCAL/MOL
REMARK 922        TOTAL FREE ENERGY PREDICTED BY IDOCK:   -4.99 KCAL/MOL
REMARK 923 INTER-LIGAND FREE ENERGY PREDICTED BY IDOCK:   -4.53 KCAL/MOL
REMARK 924 INTRA-LIGAND FREE ENERGY PREDICTED BY IDOCK:   -0.46 KCAL/MOL
REMARK 927      BINDING AFFINITY PREDICTED BY RF-SCORE:    0.00 PKD
ROOT
HETATM    1  C   UNL     1     -13.158   7.729  71.249  1.00  0.00    -0.247 C  
HETATM    2  C   UNL     1     -12.075   6.793  71.755  1.00  0.00    -0.393 C  
ENDROOT
BRANCH   2   3
HETATM    3  C   UNL     1     -11.248   6.221  70.620  1.00  0.00    -0.337 C  
HETATM    4  O   UNL     1     -10.332   5.422  70.780  1.00  0.00    -0.228 OA 
HETATM    5  N   UNL     1     -11.630   6.694  69.383  1.00  0.00    -0.652 N  
HETATM    6  H   UNL     1     -12.410   7.347  69.318  1.00  0.00     0.000 HD 
BRANCH   5   7
HETATM    7  C   UNL     1     -10.947   6.283  68.170  1.00  0.00    -0.323 C  
BRANCH   7   8
HETATM    8  C   UNL     1     -10.904   7.415  67.140  1.00  0.00    -0.340 C  
BRANCH   8   9
HETATM    9  C   UNL     1      -9.497   7.888  66.755  1.00  0.00    -0.257 C  
HETATM   10  C   UNL     1      -8.355   6.945  67.233  1.00  0.00    -0.121 C  
HETATM   11  C   UNL     1      -7.581   7.655  68.371  1.00  0.00    -0.113 C  
HETATM   12  C   UNL     1      -8.059   9.078  68.300  1.00  0.00    -0.109 A  
HETATM   13  C   UNL     1      -9.127   9.194  67.386  1.00  0.00    -0.142 A  
HETATM   14  C   UNL     1      -9.633  10.487  67.240  1.00  0.00    -0.188 A  
HETATM   15  C   UNL     1      -9.035  11.456  68.043  1.00  0.00    -0.163 A  
HETATM   16  O   UNL     1      -9.612  12.704  67.849  1.00  0.00    -0.197 OA 
HETATM   17  C   UNL     1      -8.000  11.321  68.948  1.00  0.00    -0.104 A  
HETATM   18  C   UNL     1      -7.474  10.061  69.083  1.00  0.00    -0.092 A  
HETATM   19  C   UNL     1     -10.648  12.521  66.849  1.00  0.00    -0.236 C  
HETATM   20  C   UNL     1     -10.698  11.053  66.409  1.00  0.00    -0.286 C  
ENDBRANCH   8   9
ENDBRANCH   7   8
ENDBRANCH   5   7
ENDBRANCH   2   3
TORSDOF 4
ENDMDL
MODEL      206
REMARK 921   NORMALIZED FREE ENERGY PREDICTED BY IDOCK:   -3.86 KCAL/MOL
REMARK 922        TOTAL FREE ENERGY PREDICTED BY IDOCK:   -4.96 KCAL/MOL
REMARK 923 INTER-LIGAND FREE ENERGY PREDICTED BY IDOCK:   -4.46 KCAL/MOL
REMARK 924 INTRA-LIGAND FREE ENERGY PREDICTED BY IDOCK:   -0.50 KCAL/MOL
REMARK 927      BINDING AFFINITY PREDICTED BY RF-SCORE:    0.00 PKD
ROOT
HETATM    1  C   UNL     1     -11.384  11.732  63.350  1.00  0.00    -0.437 C  
HETATM    2  C   UNL     1     -12.142  13.044  63.451  1.00  0.00    -0.591 C  
ENDROOT
BRANCH   2   3
HETATM    3  C   UNL     1     -11.523  13.976  64.472  1.00  0.00    -0.370 C  
HETATM    4  O   UNL     1     -11.818  15.162  64.581  1.00  0.00    -0.402 OA 
HETATM    5  N   UNL     1     -10.586  13.356  65.271  1.00  0.00    -0.312 N  
HETATM    6  H   UNL     1     -10.397  12.363  65.138  1.00  0.00     0.000 HD 
BRANCH   5   7
HETATM    7  C   UNL     1      -9.863  14.083  66.298  1.00  0.00    -0.305 C  
BRANCH   7   8
HETATM    8  C   UNL     1     -10.109  13.489  67.686  1.00  0.00    -0.229 C  
BRANCH   8   9
HETATM    9  C   UNL     1      -8.937  12.688  68.266  1.00  0.00    -0.176 C  
HETATM   10  C   UNL     1      -7.598  13.479  68.337  1.00  0.00    -0.133 C  
HETATM   11  C   UNL     1      -6.630  12.897  67.278  1.00  0.00    -0.047 C  
HETATM   12  C   UNL     1      -7.282  11.608  66.863  1.00  0.00    -0.125 A  
HETATM   13  C   UNL     1      -8.569  11.501  67.430  1.00  0.00    -0.145 A  
HETATM   14  C   UNL     1      -9.252  10.326  67.112  1.00  0.00    -0.163 A  
HETATM   15  C   UNL     1      -8.578   9.457  66.257  1.00  0.00    -0.131 A  
HETATM   16  O   UNL     1      -9.337   8.328  65.978  1.00  0.00    -0.199 OA 
HETATM   17  C   UNL     1      -7.322   9.585  65.695  1.00  0.00    -0.094 A  
HETATM   18  C   UNL     1      -6.628  10.723  66.021  1.00  0.00    -0.113 A  
HETATM   19  C   UNL     1     -10.581   8.484  66.710  1.00  0.00    -0.157 C  
HETATM   20  C   UNL     1     -10.570   9.806  67.486  1.00  0.00    -0.335 C  
ENDBRANCH   8   9
ENDBRANCH   7   8
ENDBRANCH   5   7
ENDBRANCH   2   3
TORSDOF 4
ENDMDL
MODEL      207
REMARK 921   NORMALIZED FREE ENERGY PREDICTED BY IDOCK:   -3.84 KCAL/MOL
REMARK 922        TOTAL FREE ENERGY PREDICTED BY IDOCK:   -4.95 KCAL/MOL
REMARK 923 INTER-LIGAND FREE ENERGY PREDICTED BY IDOCK:   -5.26 KCAL/MOL
REMARK 924 INTRA-LIGAND FREE ENERGY PREDICTED BY IDOCK:    0.32 KCAL/MOL
REMARK 927      BINDING AFFINITY PREDICTED BY RF-SCORE:    0.00 PKD
ROOT
HETATM    1  C   UNL     1      -5.317  14.619  71.148  1.00  0.00    -0.147 C  
HETATM    2  C   UNL     1      -6.274  13.724  70.380  1.00  0.00    -0.078 C  
ENDROOT
BRANCH   2   3
HETATM    3  C   UNL     1      -6.837  14.419  69.157  1.00  0.00    -0.120 C  
HETATM    4  O   UNL     1      -6.144  14.949  68.295  1.00  0.00    -0.102 OA 
HETATM    5  N   UNL     1      -8.214  14.399  69.110  1.00  0.00    -0.349 N  
HETATM    6  H   UNL     1      -8.731  13.929  69.853  1.00  0.00     0.000 HD 
BRANCH   5   7
HETATM    7  C   UNL     1      -8.946  15.031  68.028  1.00  0.00    -0.173 C  
BRANCH   7   8
HETATM    8  C   UNL     1     -10.065  15.931  68.558  1.00  0.00    -0.217 C  
BRANCH   8   9
HETATM    9  C   UNL     1     -11.456  15.285  68.591  1.00  0.00    -0.350 C  
HETATM   10  C   UNL     1     -12.108  15.248  70.004  1.00  0.00    -0.386 C  
HETATM   11  C   UNL     1     -12.125  13.779  70.494  1.00  0.00    -0.416 C  
HETATM   12  C   UNL     1     -11.804  12.983  69.260  1.00  0.00    -0.370 A  
HETATM   13  C   UNL     1     -11.439  13.840  68.201  1.00  0.00    -0.348 A  
HETATM   14  C   UNL     1     -11.135  13.192  67.003  1.00  0.00    -0.305 A  
HETATM   15  C   UNL     1     -11.201  11.800  67.043  1.00  0.00    -0.322 A  
HETATM   16  O   UNL     1     -10.864  11.240  65.819  1.00  0.00    -0.261 OA 
HETATM   17  C   UNL     1     -11.544  10.974  68.097  1.00  0.00    -0.345 A  
HETATM   18  C   UNL     1     -11.872  11.599  69.274  1.00  0.00    -0.396 A  
HETATM   19  C   UNL     1     -10.566  12.349  64.932  1.00  0.00    -0.294 C  
HETATM   20  C   UNL     1     -10.736  13.677  65.679  1.00  0.00    -0.283 C  
ENDBRANCH   8   9
ENDBRANCH   7   8
ENDBRANCH   5   7
ENDBRANCH   2   3
TORSDOF 4
ENDMDL
MODEL      208
REMARK 921   NORMALIZED FREE ENERGY PREDICTED BY IDOCK:   -3.84 KCAL/MOL
REMARK 922        TOTAL FREE ENERGY PREDICTED BY IDOCK:   -4.94 KCAL/MOL
REMARK 923 INTER-LIGAND FREE ENERGY PREDICTED BY IDOCK:   -4.66 KCAL/MOL
REMARK 924 INTRA-LIGAND FREE ENERGY PREDICTED BY IDOCK:   -0.28 KCAL/MOL
REMARK 927      BINDING AFFINITY PREDICTED BY RF-SCORE:    0.00 PKD
ROOT
HETATM    1  C   UNL     1     -12.212  12.365  64.540  1.00  0.00    -0.509 C  
HETATM    2  C   UNL     1     -12.107  12.847  65.976  1.00  0.00    -0.484 C  
ENDROOT
BRANCH   2   3
HETATM    3  C   UNL     1     -11.095  12.044  66.768  1.00  0.00    -0.305 C  
HETATM    4  O   UNL     1      -9.917  12.364  66.892  1.00  0.00    -0.210 OA 
HETATM    5  N   UNL     1     -11.631  10.909  67.337  1.00  0.00    -0.094 N  
HETATM    6  H   UNL     1     -12.622  10.708  67.207  1.00  0.00     0.000 HD 
BRANCH   5   7
HETATM    7  C   UNL     1     -10.819   9.994  68.117  1.00  0.00    -0.255 C  
BRANCH   7   8
HETATM    8  C   UNL     1     -10.284   8.846  67.258  1.00  0.00    -0.326 C  
BRANCH   8   9
HETATM    9  C   UNL     1      -9.868   7.592  68.037  1.00  0.00    -0.188 C  
HETATM   10  C   UNL     1     -11.034   6.600  68.317  1.00  0.00    -0.321 C  
HETATM   11  C   UNL     1     -11.359   6.645  69.830  1.00  0.00    -0.422 C  
HETATM   12  C   UNL     1     -10.194   7.381  70.428  1.00  0.00    -0.201 A  
HETATM   13  C   UNL     1      -9.364   7.899  69.413  1.00  0.00    -0.152 A  
HETATM   14  C   UNL     1      -8.242   8.591  69.871  1.00  0.00    -0.121 A  
HETATM   15  C   UNL     1      -8.131   8.698  71.256  1.00  0.00    -0.147 A  
HETATM   16  O   UNL     1      -7.002   9.418  71.622  1.00  0.00    -0.316 OA 
HETATM   17  C   UNL     1      -8.965   8.199  72.239  1.00  0.00    -0.252 A  
HETATM   18  C   UNL     1     -10.058   7.493  71.803  1.00  0.00    -0.205 A  
HETATM   19  C   UNL     1      -6.341   9.793  70.385  1.00  0.00    -0.093 C  
HETATM   20  C   UNL     1      -7.133   9.260  69.185  1.00  0.00    -0.062 C  
ENDBRANCH   8   9
ENDBRANCH   7   8
ENDBRANCH   5   7
ENDBRANCH   2   3
TORSDOF 4
ENDMDL
MODEL      209
REMARK 921   NORMALIZED FREE ENERGY PREDICTED BY IDOCK:   -3.83 KCAL/MOL
REMARK 922        TOTAL FREE ENERGY PREDICTED BY IDOCK:   -4.92 KCAL/MOL
REMARK 923 INTER-LIGAND FREE ENERGY PREDICTED BY IDOCK:   -4.37 KCAL/MOL
REMARK 924 INTRA-LIGAND FREE ENERGY PREDICTED BY IDOCK:   -0.55 KCAL/MOL
REMARK 927      BINDING AFFINITY PREDICTED BY RF-SCORE:    0.00 PKD
ROOT
HETATM    1  C   UNL     1      -7.184   7.998  73.191  1.00  0.00    -0.144 C  
HETATM    2  C   UNL     1      -8.221   7.803  74.283  1.00  0.00    -0.286 C  
ENDROOT
BRANCH   2   3
HETATM    3  C   UNL     1      -9.527   7.267  73.730  1.00  0.00    -0.268 C  
HETATM    4  O   UNL     1     -10.289   6.544  74.363  1.00  0.00    -0.346 OA 
HETATM    5  N   UNL     1      -9.774   7.674  72.437  1.00  0.00    -0.167 N  
HETATM    6  H   UNL     1      -9.105   8.288  71.972  1.00  0.00     0.000 HD 
BRANCH   5   7
HETATM    7  C   UNL     1     -10.962   7.250  71.721  1.00  0.00    -0.227 C  
BRANCH   7   8
HETATM    8  C   UNL     1     -11.464   8.340  70.770  1.00  0.00    -0.268 C  
BRANCH   8   9
HETATM    9  C   UNL     1     -11.049   9.768  71.144  1.00  0.00    -0.414 C  
HETATM   10  C   UNL     1     -12.222  10.664  71.636  1.00  0.00    -0.243 C  
HETATM   11  C   UNL     1     -12.515  11.725  70.547  1.00  0.00    -0.317 C  
HETATM   12  C   UNL     1     -11.328  11.639  69.630  1.00  0.00    -0.308 A  
HETATM   13  C   UNL     1     -10.512  10.544  69.981  1.00  0.00    -0.163 A  
HETATM   14  C   UNL     1      -9.371  10.388  69.192  1.00  0.00    -0.211 A  
HETATM   15  C   UNL     1      -9.230  11.312  68.158  1.00  0.00    -0.170 A  
HETATM   16  O   UNL     1      -8.084  11.070  67.414  1.00  0.00    -0.118 OA 
HETATM   17  C   UNL     1     -10.050  12.370  67.816  1.00  0.00    -0.203 A  
HETATM   18  C   UNL     1     -11.162  12.552  68.601  1.00  0.00    -0.319 A  
HETATM   19  C   UNL     1      -7.444   9.915  68.016  1.00  0.00    -0.085 C  
HETATM   20  C   UNL     1      -8.268   9.424  69.212  1.00  0.00    -0.111 C  
ENDBRANCH   8   9
ENDBRANCH   7   8
ENDBRANCH   5   7
ENDBRANCH   2   3
TORSDOF 4
ENDMDL
MODEL      210
REMARK 921   NORMALIZED FREE ENERGY PREDICTED BY IDOCK:   -3.81 KCAL/MOL
REMARK 922        TOTAL FREE ENERGY PREDICTED BY IDOCK:   -4.90 KCAL/MOL
REMARK 923 INTER-LIGAND FREE ENERGY PREDICTED BY IDOCK:   -4.09 KCAL/MOL
REMARK 924 INTRA-LIGAND FREE ENERGY PREDICTED BY IDOCK:   -0.81 KCAL/MOL
REMARK 927      BINDING AFFINITY PREDICTED BY RF-SCORE:    0.00 PKD
ROOT
HETATM    1  C   UNL     1     -11.030  11.439  64.952  1.00  0.00    -0.284 C  
HETATM    2  C   UNL     1     -11.623  12.153  66.154  1.00  0.00    -0.418 C  
ENDROOT
BRANCH   2   3
HETATM    3  C   UNL     1     -11.013  11.671  67.455  1.00  0.00    -0.261 C  
HETATM    4  O   UNL     1     -10.289  12.361  68.164  1.00  0.00    -0.212 OA 
HETATM    5  N   UNL     1     -11.353  10.371  67.762  1.00  0.00    -0.426 N  
HETATM    6  H   UNL     1     -11.971   9.857  67.136  1.00  0.00     0.000 HD 
BRANCH   5   7
HETATM    7  C   UNL     1     -10.851   9.718  68.957  1.00  0.00    -0.199 C  
BRANCH   7   8
HETATM    8  C   UNL     1     -10.228   8.358  68.633  1.00  0.00    -0.220 C  
BRANCH   8   9
HETATM    9  C   UNL     1     -10.435   7.876  67.192  1.00  0.00    -0.414 C  
HETATM   10  C   UNL     1     -11.110   6.479  67.079  1.00  0.00    -0.411 C  
HETATM   11  C   UNL     1     -10.051   5.465  66.579  1.00  0.00    -0.250 C  
HETATM   12  C   UNL     1      -8.917   6.331  66.107  1.00  0.00    -0.164 A  
HETATM   13  C   UNL     1      -9.150   7.679  66.450  1.00  0.00    -0.214 A  
HETATM   14  C   UNL     1      -8.154   8.566  66.040  1.00  0.00    -0.110 A  
HETATM   15  C   UNL     1      -7.067   7.985  65.389  1.00  0.00    -0.060 A  
HETATM   16  O   UNL     1      -6.118   8.935  65.037  1.00  0.00    -0.059 OA 
HETATM   17  C   UNL     1      -6.846   6.657  65.077  1.00  0.00    -0.050 A  
HETATM   18  C   UNL     1      -7.830   5.776  65.450  1.00  0.00    -0.107 A  
HETATM   19  C   UNL     1      -6.636  10.214  65.488  1.00  0.00    -0.118 C  
HETATM   20  C   UNL     1      -7.998  10.018  66.164  1.00  0.00    -0.113 C  
ENDBRANCH   8   9
ENDBRANCH   7   8
ENDBRANCH   5   7
ENDBRANCH   2   3
TORSDOF 4
ENDMDL
MODEL      211
REMARK 921   NORMALIZED FREE ENERGY PREDICTED BY IDOCK:   -3.77 KCAL/MOL
REMARK 922        TOTAL FREE ENERGY PREDICTED BY IDOCK:   -4.86 KCAL/MOL
REMARK 923 INTER-LIGAND FREE ENERGY PREDICTED BY IDOCK:   -4.48 KCAL/MOL
REMARK 924 INTRA-LIGAND FREE ENERGY PREDICTED BY IDOCK:   -0.38 KCAL/MOL
REMARK 927      BINDING AFFINITY PREDICTED BY RF-SCORE:    0.00 PKD
ROOT
HETATM    1  C   UNL     1     -12.019  12.350  63.708  1.00  0.00    -0.600 C  
HETATM    2  C   UNL     1     -10.782  13.052  64.242  1.00  0.00    -0.430 C  
ENDROOT
BRANCH   2   3
HETATM    3  C   UNL     1     -10.369  12.514  65.597  1.00  0.00    -0.271 C  
HETATM    4  O   UNL     1      -9.220  12.554  66.025  1.00  0.00    -0.149 OA 
HETATM    5  N   UNL     1     -11.419  11.970  66.305  1.00  0.00    -0.360 N  
HETATM    6  H   UNL     1     -12.354  11.981  65.898  1.00  0.00     0.000 HD 
BRANCH   5   7
HETATM    7  C   UNL     1     -11.226  11.382  67.617  1.00  0.00    -0.283 C  
BRANCH   7   8
HETATM    8  C   UNL     1     -11.015   9.868  67.528  1.00  0.00    -0.239 C  
BRANCH   8   9
HETATM    9  C   UNL     1     -11.210   9.108  68.846  1.00  0.00     0.206 C  
HETATM   10  C   UNL     1     -10.883   9.943  70.118  1.00  0.00    -0.356 C  
HETATM   11  C   UNL     1      -9.578   9.390  70.742  1.00  0.00    -0.322 C  
HETATM   12  C   UNL     1      -9.368   8.080  70.037  1.00  0.00    -0.156 A  
HETATM   13  C   UNL     1     -10.293   7.932  68.984  1.00  0.00    -0.223 A  
HETATM   14  C   UNL     1     -10.186   6.734  68.275  1.00  0.00    -0.194 A  
HETATM   15  C   UNL     1      -9.162   5.885  68.689  1.00  0.00    -0.118 A  
HETATM   16  O   UNL     1      -9.114   4.732  67.919  1.00  0.00    -0.109 OA 
HETATM   17  C   UNL     1      -8.250   6.054  69.714  1.00  0.00    -0.118 A  
HETATM   18  C   UNL     1      -8.361   7.215  70.437  1.00  0.00    -0.128 A  
HETATM   19  C   UNL     1     -10.186   4.848  66.947  1.00  0.00    -0.211 C  
HETATM   20  C   UNL     1     -10.934   6.171  67.148  1.00  0.00    -0.420 C  
ENDBRANCH   8   9
ENDBRANCH   7   8
ENDBRANCH   5   7
ENDBRANCH   2   3
TORSDOF 4
ENDMDL
MODEL      212
REMARK 921   NORMALIZED FREE ENERGY PREDICTED BY IDOCK:   -3.77 KCAL/MOL
REMARK 922        TOTAL FREE ENERGY PREDICTED BY IDOCK:   -4.85 KCAL/MOL
REMARK 923 INTER-LIGAND FREE ENERGY PREDICTED BY IDOCK:   -4.10 KCAL/MOL
REMARK 924 INTRA-LIGAND FREE ENERGY PREDICTED BY IDOCK:   -0.75 KCAL/MOL
REMARK 927      BINDING AFFINITY PREDICTED BY RF-SCORE:    0.00 PKD
ROOT
HETATM    1  C   UNL     1     -13.684   9.511  72.168  1.00  0.00    -0.447 C  
HETATM    2  C   UNL     1     -13.579   8.051  71.761  1.00  0.00    -0.395 C  
ENDROOT
BRANCH   2   3
HETATM    3  C   UNL     1     -12.339   7.785  70.932  1.00  0.00    -0.102 C  
HETATM    4  O   UNL     1     -11.883   6.665  70.727  1.00  0.00    -0.371 OA 
HETATM    5  N   UNL     1     -11.768   8.935  70.429  1.00  0.00    -0.460 N  
HETATM    6  H   UNL     1     -12.205   9.835  70.626  1.00  0.00     0.000 HD 
BRANCH   5   7
HETATM    7  C   UNL     1     -10.560   8.894  69.627  1.00  0.00    -0.226 C  
BRANCH   7   8
HETATM    8  C   UNL     1      -9.413   9.653  70.300  1.00  0.00    -0.300 C  
BRANCH   8   9
HETATM    9  C   UNL     1      -8.121   8.847  70.481  1.00  0.00    -0.145 C  
HETATM   10  C   UNL     1      -7.388   8.512  69.150  1.00  0.00    -0.079 C  
HETATM   11  C   UNL     1      -7.533   6.993  68.883  1.00  0.00    -0.095 C  
HETATM   12  C   UNL     1      -8.037   6.444  70.188  1.00  0.00    -0.120 A  
HETATM   13  C   UNL     1      -8.354   7.493  71.075  1.00  0.00    -0.113 A  
HETATM   14  C   UNL     1      -8.820   7.081  72.324  1.00  0.00    -0.143 A  
HETATM   15  C   UNL     1      -8.936   5.702  72.494  1.00  0.00    -0.133 A  
HETATM   16  O   UNL     1      -9.424   5.384  73.753  1.00  0.00    -0.136 OA 
HETATM   17  C   UNL     1      -8.637   4.687  71.606  1.00  0.00    -0.125 A  
HETATM   18  C   UNL     1      -8.152   5.076  70.382  1.00  0.00    -0.085 A  
HETATM   19  C   UNL     1      -9.631   6.646  74.440  1.00  0.00    -0.278 C  
HETATM   20  C   UNL     1      -9.238   7.811  73.524  1.00  0.00    -0.350 C  
ENDBRANCH   8   9
ENDBRANCH   7   8
ENDBRANCH   5   7
ENDBRANCH   2   3
TORSDOF 4
ENDMDL
MODEL      213
REMARK 921   NORMALIZED FREE ENERGY PREDICTED BY IDOCK:   -3.77 KCAL/MOL
REMARK 922        TOTAL FREE ENERGY PREDICTED BY IDOCK:   -4.85 KCAL/MOL
REMARK 923 INTER-LIGAND FREE ENERGY PREDICTED BY IDOCK:   -4.33 KCAL/MOL
REMARK 924 INTRA-LIGAND FREE ENERGY PREDICTED BY IDOCK:   -0.53 KCAL/MOL
REMARK 927      BINDING AFFINITY PREDICTED BY RF-SCORE:    0.00 PKD
ROOT
HETATM    1  C   UNL     1      -7.206  10.104  68.608  1.00  0.00    -0.080 C  
HETATM    2  C   UNL     1      -7.830  11.485  68.508  1.00  0.00    -0.140 C  
ENDROOT
BRANCH   2   3
HETATM    3  C   UNL     1      -6.781  12.568  68.350  1.00  0.00    -0.081 C  
HETATM    4  O   UNL     1      -6.283  12.882  67.275  1.00  0.00    -0.251 OA 
HETATM    5  N   UNL     1      -6.439  13.166  69.544  1.00  0.00    -0.213 N  
HETATM    6  H   UNL     1      -6.901  12.867  70.402  1.00  0.00     0.000 HD 
BRANCH   5   7
HETATM    7  C   UNL     1      -5.435  14.212  69.608  1.00  0.00    -0.094 C  
BRANCH   7   8
HETATM    8  C   UNL     1      -6.068  15.584  69.849  1.00  0.00    -0.157 C  
BRANCH   8   9
HETATM    9  C   UNL     1      -6.233  16.452  68.596  1.00  0.00    -0.130 C  
HETATM   10  C   UNL     1      -5.225  17.634  68.502  1.00  0.00    -0.146 C  
HETATM   11  C   UNL     1      -6.000  18.955  68.729  1.00  0.00    -0.226 C  
HETATM   12  C   UNL     1      -7.443  18.550  68.618  1.00  0.00    -0.323 A  
HETATM   13  C   UNL     1      -7.557  17.147  68.535  1.00  0.00    -0.245 A  
HETATM   14  C   UNL     1      -8.865  16.673  68.414  1.00  0.00    -0.226 A  
HETATM   15  C   UNL     1      -9.858  17.650  68.430  1.00  0.00    -0.334 A  
HETATM   16  O   UNL     1     -11.124  17.091  68.327  1.00  0.00    -0.337 OA 
HETATM   17  C   UNL     1      -9.730  19.023  68.530  1.00  0.00    -0.458 A  
HETATM   18  C   UNL     1      -8.448  19.505  68.622  1.00  0.00    -0.364 A  
HETATM   19  C   UNL     1     -10.927  15.656  68.233  1.00  0.00    -0.315 C  
HETATM   20  C   UNL     1      -9.430  15.328  68.285  1.00  0.00    -0.205 C  
ENDBRANCH   8   9
ENDBRANCH   7   8
ENDBRANCH   5   7
ENDBRANCH   2   3
TORSDOF 4
ENDMDL
MODEL      214
REMARK 921   NORMALIZED FREE ENERGY PREDICTED BY IDOCK:   -3.72 KCAL/MOL
REMARK 922        TOTAL FREE ENERGY PREDICTED BY IDOCK:   -4.80 KCAL/MOL
REMARK 923 INTER-LIGAND FREE ENERGY PREDICTED BY IDOCK:   -4.05 KCAL/MOL
REMARK 924 INTRA-LIGAND FREE ENERGY PREDICTED BY IDOCK:   -0.74 KCAL/MOL
REMARK 927      BINDING AFFINITY PREDICTED BY RF-SCORE:    0.00 PKD
ROOT
HETATM    1  C   UNL     1     -11.666   8.325  71.717  1.00  0.00    -0.357 C  
HETATM    2  C   UNL     1     -12.198   9.709  71.386  1.00  0.00    -0.471 C  
ENDROOT
BRANCH   2   3
HETATM    3  C   UNL     1     -11.727  10.182  70.025  1.00  0.00    -0.223 C  
HETATM    4  O   UNL     1     -11.686  11.362  69.691  1.00  0.00    -0.285 OA 
HETATM    5  N   UNL     1     -11.349   9.150  69.194  1.00  0.00    -0.398 N  
HETATM    6  H   UNL     1     -11.394   8.191  69.539  1.00  0.00     0.000 HD 
BRANCH   5   7
HETATM    7  C   UNL     1     -10.889   9.394  67.840  1.00  0.00    -0.154 C  
BRANCH   7   8
HETATM    8  C   UNL     1      -9.373   9.216  67.722  1.00  0.00    -0.152 C  
BRANCH   8   9
HETATM    9  C   UNL     1      -8.898   7.763  67.604  1.00  0.00    -0.128 C  
HETATM   10  C   UNL     1      -9.792   6.872  66.695  1.00  0.00    -0.217 C  
HETATM   11  C   UNL     1     -10.556   5.870  67.595  1.00  0.00    -0.335 C  
HETATM   12  C   UNL     1      -9.859   5.972  68.922  1.00  0.00    -0.173 A  
HETATM   13  C   UNL     1      -8.928   7.031  68.910  1.00  0.00    -0.129 A  
HETATM   14  C   UNL     1      -8.217   7.198  70.100  1.00  0.00    -0.135 A  
HETATM   15  C   UNL     1      -8.559   6.321  71.127  1.00  0.00    -0.125 A  
HETATM   16  O   UNL     1      -7.820   6.571  72.276  1.00  0.00    -0.100 OA 
HETATM   17  C   UNL     1      -9.488   5.298  71.128  1.00  0.00    -0.206 A  
HETATM   18  C   UNL     1     -10.176   5.105  69.956  1.00  0.00    -0.354 A  
HETATM   19  C   UNL     1      -6.942   7.682  71.959  1.00  0.00    -0.064 C  
HETATM   20  C   UNL     1      -7.169   8.135  70.512  1.00  0.00    -0.048 C  
ENDBRANCH   8   9
ENDBRANCH   7   8
ENDBRANCH   5   7
ENDBRANCH   2   3
TORSDOF 4
ENDMDL
MODEL      215
REMARK 921   NORMALIZED FREE ENERGY PREDICTED BY IDOCK:   -3.71 KCAL/MOL
REMARK 922        TOTAL FREE ENERGY PREDICTED BY IDOCK:   -4.78 KCAL/MOL
REMARK 923 INTER-LIGAND FREE ENERGY PREDICTED BY IDOCK:   -4.14 KCAL/MOL
REMARK 924 INTRA-LIGAND FREE ENERGY PREDICTED BY IDOCK:   -0.64 KCAL/MOL
REMARK 927      BINDING AFFINITY PREDICTED BY RF-SCORE:    0.00 PKD
ROOT
HETATM    1  C   UNL     1      -9.420   6.043  73.148  1.00  0.00    -0.142 C  
HETATM    2  C   UNL     1      -9.340   7.516  72.785  1.00  0.00    -0.217 C  
ENDROOT
BRANCH   2   3
HETATM    3  C   UNL     1     -10.693   8.073  72.389  1.00  0.00    -0.320 C  
HETATM    4  O   UNL     1     -11.759   7.534  72.663  1.00  0.00    -0.295 OA 
HETATM    5  N   UNL     1     -10.605   9.254  71.683  1.00  0.00    -0.348 N  
HETATM    6  H   UNL     1      -9.687   9.658  71.500  1.00  0.00     0.000 HD 
BRANCH   5   7
HETATM    7  C   UNL     1     -11.788   9.936  71.194  1.00  0.00    -0.386 C  
BRANCH   7   8
HETATM    8  C   UNL     1     -11.659  10.291  69.711  1.00  0.00    -0.294 C  
BRANCH   8   9
HETATM    9  C   UNL     1     -10.220  10.381  69.188  1.00  0.00    -0.239 C  
HETATM   10  C   UNL     1      -9.851  11.761  68.572  1.00  0.00    -0.192 C  
HETATM   11  C   UNL     1      -9.711  11.588  67.039  1.00  0.00    -0.202 C  
HETATM   12  C   UNL     1      -9.669  10.099  66.846  1.00  0.00    -0.233 A  
HETATM   13  C   UNL     1      -9.948   9.436  68.059  1.00  0.00    -0.209 A  
HETATM   14  C   UNL     1      -9.919   8.043  67.984  1.00  0.00    -0.216 A  
HETATM   15  C   UNL     1      -9.657   7.518  66.720  1.00  0.00    -0.206 A  
HETATM   16  O   UNL     1      -9.668   6.130  66.733  1.00  0.00    -0.147 OA 
HETATM   17  C   UNL     1      -9.403   8.183  65.536  1.00  0.00     0.141 A  
HETATM   18  C   UNL     1      -9.401   9.554  65.600  1.00  0.00    -0.302 A  
HETATM   19  C   UNL     1      -9.952   5.739  68.101  1.00  0.00    -0.148 C  
HETATM   20  C   UNL     1     -10.126   6.985  68.977  1.00  0.00    -0.182 C  
ENDBRANCH   8   9
ENDBRANCH   7   8
ENDBRANCH   5   7
ENDBRANCH   2   3
TORSDOF 4
ENDMDL
MODEL      216
REMARK 921   NORMALIZED FREE ENERGY PREDICTED BY IDOCK:   -3.70 KCAL/MOL
REMARK 922        TOTAL FREE ENERGY PREDICTED BY IDOCK:   -4.77 KCAL/MOL
REMARK 923 INTER-LIGAND FREE ENERGY PREDICTED BY IDOCK:   -4.49 KCAL/MOL
REMARK 924 INTRA-LIGAND FREE ENERGY PREDICTED BY IDOCK:   -0.28 KCAL/MOL
REMARK 927      BINDING AFFINITY PREDICTED BY RF-SCORE:    0.00 PKD
ROOT
HETATM    1  C   UNL     1     -10.745  11.825  62.996  1.00  0.00    -0.172 C  
HETATM    2  C   UNL     1     -11.783  11.832  64.104  1.00  0.00    -0.376 C  
ENDROOT
BRANCH   2   3
HETATM    3  C   UNL     1     -11.868  13.181  64.790  1.00  0.00    -0.369 C  
HETATM    4  O   UNL     1     -12.591  14.095  64.409  1.00  0.00    -0.658 OA 
HETATM    5  N   UNL     1     -11.044  13.280  65.890  1.00  0.00    -0.284 N  
HETATM    6  H   UNL     1     -10.477  12.477  66.162  1.00  0.00     0.000 HD 
BRANCH   5   7
HETATM    7  C   UNL     1     -10.963  14.500  66.671  1.00  0.00    -0.321 C  
BRANCH   7   8
HETATM    8  C   UNL     1     -10.161  14.292  67.958  1.00  0.00    -0.226 C  
BRANCH   8   9
HETATM    9  C   UNL     1     -10.119  15.502  68.899  1.00  0.00    -0.214 C  
HETATM   10  C   UNL     1     -10.932  16.729  68.394  1.00  0.00    -0.325 C  
HETATM   11  C   UNL     1      -9.933  17.837  67.975  1.00  0.00    -0.333 C  
HETATM   12  C   UNL     1      -8.621  17.373  68.542  1.00  0.00    -0.270 A  
HETATM   13  C   UNL     1      -8.743  16.067  69.063  1.00  0.00    -0.245 A  
HETATM   14  C   UNL     1      -7.574  15.552  69.626  1.00  0.00    -0.144 A  
HETATM   15  C   UNL     1      -6.460  16.386  69.558  1.00  0.00    -0.210 A  
HETATM   16  O   UNL     1      -5.342  15.787  70.121  1.00  0.00    -0.128 OA 
HETATM   17  C   UNL     1      -6.354  17.657  69.027  1.00  0.00    -0.223 A  
HETATM   18  C   UNL     1      -7.502  18.188  68.493  1.00  0.00    -0.289 A  
HETATM   19  C   UNL     1      -5.771  14.482  70.587  1.00  0.00    -0.169 C  
HETATM   20  C   UNL     1      -7.260  14.279  70.281  1.00  0.00     0.464 C  
ENDBRANCH   8   9
ENDBRANCH   7   8
ENDBRANCH   5   7
ENDBRANCH   2   3
TORSDOF 4
ENDMDL
MODEL      217
REMARK 921   NORMALIZED FREE ENERGY PREDICTED BY IDOCK:   -3.70 KCAL/MOL
REMARK 922        TOTAL FREE ENERGY PREDICTED BY IDOCK:   -4.77 KCAL/MOL
REMARK 923 INTER-LIGAND FREE ENERGY PREDICTED BY IDOCK:   -4.53 KCAL/MOL
REMARK 924 INTRA-LIGAND FREE ENERGY PREDICTED BY IDOCK:   -0.24 KCAL/MOL
REMARK 927      BINDING AFFINITY PREDICTED BY RF-SCORE:    0.00 PKD
ROOT
HETATM    1  C   UNL     1     -10.263  13.103  66.248  1.00  0.00    -0.294 C  
HETATM    2  C   UNL     1     -10.399  13.211  67.757  1.00  0.00    -0.230 C  
ENDROOT
BRANCH   2   3
HETATM    3  C   UNL     1     -11.132  12.021  68.343  1.00  0.00    -0.245 C  
HETATM    4  O   UNL     1     -12.106  11.493  67.815  1.00  0.00    -0.626 OA 
HETATM    5  N   UNL     1     -10.595  11.590  69.536  1.00  0.00    -0.448 N  
HETATM    6  H   UNL     1      -9.775  12.065  69.914  1.00  0.00     0.000 HD 
BRANCH   5   7
HETATM    7  C   UNL     1     -11.168  10.476  70.268  1.00  0.00    -0.313 C  
BRANCH   7   8
HETATM    8  C   UNL     1     -10.792   9.134  69.635  1.00  0.00    -0.210 C  
BRANCH   8   9
HETATM    9  C   UNL     1      -9.426   8.579  70.055  1.00  0.00    -0.165 C  
HETATM   10  C   UNL     1      -8.341   8.644  68.941  1.00  0.00    -0.124 C  
HETATM   11  C   UNL     1      -8.055   7.201  68.454  1.00  0.00    -0.124 C  
HETATM   12  C   UNL     1      -8.708   6.334  69.494  1.00  0.00    -0.132 A  
HETATM   13  C   UNL     1      -9.465   7.120  70.387  1.00  0.00    -0.162 A  
HETATM   14  C   UNL     1     -10.101   6.402  71.402  1.00  0.00    -0.214 A  
HETATM   15  C   UNL     1      -9.923   5.021  71.358  1.00  0.00    -0.193 A  
HETATM   16  O   UNL     1     -10.605   4.387  72.387  1.00  0.00    -0.177 OA 
HETATM   17  C   UNL     1      -9.191   4.264  70.463  1.00  0.00    -0.192 A  
HETATM   18  C   UNL     1      -8.538   4.959  69.475  1.00  0.00    -0.101 A  
HETATM   19  C   UNL     1     -11.261   5.437  73.146  1.00  0.00    -0.297 C  
HETATM   20  C   UNL     1     -10.950   6.804  72.526  1.00  0.00    -0.281 C  
ENDBRANCH   8   9
ENDBRANCH   7   8
ENDBRANCH   5   7
ENDBRANCH   2   3
TORSDOF 4
ENDMDL
MODEL      218
REMARK 921   NORMALIZED FREE ENERGY PREDICTED BY IDOCK:   -3.70 KCAL/MOL
REMARK 922        TOTAL FREE ENERGY PREDICTED BY IDOCK:   -4.77 KCAL/MOL
REMARK 923 INTER-LIGAND FREE ENERGY PREDICTED BY IDOCK:   -4.20 KCAL/MOL
REMARK 924 INTRA-LIGAND FREE ENERGY PREDICTED BY IDOCK:   -0.56 KCAL/MOL
REMARK 927      BINDING AFFINITY PREDICTED BY RF-SCORE:    0.00 PKD
ROOT
HETATM    1  C   UNL     1     -11.049   6.116  67.414  1.00  0.00    -0.326 C  
HETATM    2  C   UNL     1     -10.653   7.407  66.719  1.00  0.00    -0.281 C  
ENDROOT
BRANCH   2   3
HETATM    3  C   UNL     1      -9.188   7.735  66.931  1.00  0.00    -0.152 C  
HETATM    4  O   UNL     1      -8.396   6.984  67.490  1.00  0.00    -0.118 OA 
HETATM    5  N   UNL     1      -8.833   8.970  66.431  1.00  0.00    -0.139 N  
HETATM    6  H   UNL     1      -9.539   9.540  65.965  1.00  0.00     0.000 HD 
BRANCH   5   7
HETATM    7  C   UNL     1      -7.480   9.478  66.554  1.00  0.00    -0.093 C  
BRANCH   7   8
HETATM    8  C   UNL     1      -7.469  10.963  66.926  1.00  0.00    -0.128 C  
BRANCH   8   9
HETATM    9  C   UNL     1      -7.749  11.263  68.403  1.00  0.00    -0.125 C  
HETATM   10  C   UNL     1      -7.457  10.073  69.362  1.00  0.00    -0.113 C  
HETATM   11  C   UNL     1      -8.808   9.527  69.886  1.00  0.00    -0.227 C  
HETATM   12  C   UNL     1      -9.800  10.587  69.501  1.00  0.00    -0.170 A  
HETATM   13  C   UNL     1      -9.191  11.557  68.678  1.00  0.00    -0.136 A  
HETATM   14  C   UNL     1     -10.033  12.596  68.278  1.00  0.00    -0.229 A  
HETATM   15  C   UNL     1     -11.351  12.500  68.719  1.00  0.00    -0.293 A  
HETATM   16  O   UNL     1     -12.120  13.560  68.258  1.00  0.00    -0.354 OA 
HETATM   17  C   UNL     1     -11.937  11.532  69.512  1.00  0.00    -0.402 A  
HETATM   18  C   UNL     1     -11.114  10.518  69.935  1.00  0.00    -0.371 A  
HETATM   19  C   UNL     1     -11.231  14.395  67.471  1.00  0.00    -0.315 C  
HETATM   20  C   UNL     1      -9.822  13.792  67.457  1.00  0.00    -0.230 C  
ENDBRANCH   8   9
ENDBRANCH   7   8
ENDBRANCH   5   7
ENDBRANCH   2   3
TORSDOF 4
ENDMDL
MODEL      219
REMARK 921   NORMALIZED FREE ENERGY PREDICTED BY IDOCK:   -3.69 KCAL/MOL
REMARK 922        TOTAL FREE ENERGY PREDICTED BY IDOCK:   -4.76 KCAL/MOL
REMARK 923 INTER-LIGAND FREE ENERGY PREDICTED BY IDOCK:   -4.23 KCAL/MOL
REMARK 924 INTRA-LIGAND FREE ENERGY PREDICTED BY IDOCK:   -0.52 KCAL/MOL
REMARK 927      BINDING AFFINITY PREDICTED BY RF-SCORE:    0.00 PKD
ROOT
HETATM    1  C   UNL     1      -5.294   4.693  68.984  1.00  0.00    -0.008 C  
HETATM    2  C   UNL     1      -5.561   4.528  67.498  1.00  0.00    -0.017 C  
ENDROOT
BRANCH   2   3
HETATM    3  C   UNL     1      -7.022   4.747  67.160  1.00  0.00    -0.061 C  
HETATM    4  O   UNL     1      -7.412   5.516  66.288  1.00  0.00    -0.084 OA 
HETATM    5  N   UNL     1      -7.875   3.993  67.937  1.00  0.00    -0.078 N  
HETATM    6  H   UNL     1      -7.485   3.362  68.636  1.00  0.00     0.000 HD 
BRANCH   5   7
HETATM    7  C   UNL     1      -9.315   4.077  67.783  1.00  0.00    -0.176 C  
BRANCH   7   8
HETATM    8  C   UNL     1      -9.942   4.984  68.845  1.00  0.00    -0.236 C  
BRANCH   8   9
HETATM    9  C   UNL     1     -10.969   5.990  68.313  1.00  0.00    -0.347 C  
HETATM   10  C   UNL     1     -10.745   6.407  66.831  1.00  0.00    -0.408 C  
HETATM   11  C   UNL     1     -10.255   7.876  66.807  1.00  0.00    -0.358 C  
HETATM   12  C   UNL     1     -10.520   8.368  68.201  1.00  0.00    -0.228 A  
HETATM   13  C   UNL     1     -10.927   7.304  69.031  1.00  0.00    -0.077 A  
HETATM   14  C   UNL     1     -11.211   7.666  70.349  1.00  0.00    -0.258 A  
HETATM   15  C   UNL     1     -11.016   9.011  70.654  1.00  0.00    -0.257 A  
HETATM   16  O   UNL     1     -11.301   9.277  71.986  1.00  0.00    -0.349 OA 
HETATM   17  C   UNL     1     -10.599  10.040  69.831  1.00  0.00    -0.324 A  
HETATM   18  C   UNL     1     -10.341   9.704  68.526  1.00  0.00    -0.231 A  
HETATM   19  C   UNL     1     -11.713   8.015  72.573  1.00  0.00    -0.387 C  
HETATM   20  C   UNL     1     -11.671   6.907  71.515  1.00  0.00    -0.351 C  
ENDBRANCH   8   9
ENDBRANCH   7   8
ENDBRANCH   5   7
ENDBRANCH   2   3
TORSDOF 4
ENDMDL
MODEL      220
REMARK 921   NORMALIZED FREE ENERGY PREDICTED BY IDOCK:   -3.69 KCAL/MOL
REMARK 922        TOTAL FREE ENERGY PREDICTED BY IDOCK:   -4.76 KCAL/MOL
REMARK 923 INTER-LIGAND FREE ENERGY PREDICTED BY IDOCK:   -3.95 KCAL/MOL
REMARK 924 INTRA-LIGAND FREE ENERGY PREDICTED BY IDOCK:   -0.81 KCAL/MOL
REMARK 927      BINDING AFFINITY PREDICTED BY RF-SCORE:    0.00 PKD
ROOT
HETATM    1  C   UNL     1     -10.557  11.086  68.637  1.00  0.00    -0.225 C  
HETATM    2  C   UNL     1     -11.105  10.832  70.031  1.00  0.00    -0.327 C  
ENDROOT
BRANCH   2   3
HETATM    3  C   UNL     1     -10.624   9.510  70.593  1.00  0.00    -0.308 C  
HETATM    4  O   UNL     1      -9.575   9.374  71.214  1.00  0.00    -0.241 OA 
HETATM    5  N   UNL     1     -11.487   8.467  70.334  1.00  0.00    -0.434 N  
HETATM    6  H   UNL     1     -12.351   8.650  69.824  1.00  0.00     0.000 HD 
BRANCH   5   7
HETATM    7  C   UNL     1     -11.196   7.114  70.770  1.00  0.00    -0.279 C  
BRANCH   7   8
HETATM    8  C   UNL     1     -11.347   6.110  69.625  1.00  0.00    -0.442 C  
BRANCH   8   9
HETATM    9  C   UNL     1     -10.034   5.500  69.120  1.00  0.00    -0.256 C  
HETATM   10  C   UNL     1      -9.336   4.555  70.140  1.00  0.00    -0.217 C  
HETATM   11  C   UNL     1      -8.057   5.258  70.659  1.00  0.00    -0.108 C  
HETATM   12  C   UNL     1      -7.867   6.408  69.711  1.00  0.00    -0.114 A  
HETATM   13  C   UNL     1      -8.978   6.526  68.850  1.00  0.00    -0.128 A  
HETATM   14  C   UNL     1      -8.888   7.563  67.919  1.00  0.00    -0.126 A  
HETATM   15  C   UNL     1      -7.738   8.344  68.005  1.00  0.00    -0.103 A  
HETATM   16  O   UNL     1      -7.742   9.360  67.059  1.00  0.00    -0.091 OA 
HETATM   17  C   UNL     1      -6.665   8.225  68.868  1.00  0.00    -0.053 A  
HETATM   18  C   UNL     1      -6.727   7.194  69.771  1.00  0.00    -0.048 A  
HETATM   19  C   UNL     1      -8.979   9.216  66.314  1.00  0.00    -0.158 C  
HETATM   20  C   UNL     1      -9.779   8.024  66.852  1.00  0.00    -0.291 C  
ENDBRANCH   8   9
ENDBRANCH   7   8
ENDBRANCH   5   7
ENDBRANCH   2   3
TORSDOF 4
ENDMDL
MODEL      221
REMARK 921   NORMALIZED FREE ENERGY PREDICTED BY IDOCK:   -3.67 KCAL/MOL
REMARK 922        TOTAL FREE ENERGY PREDICTED BY IDOCK:   -4.73 KCAL/MOL
REMARK 923 INTER-LIGAND FREE ENERGY PREDICTED BY IDOCK:   -4.34 KCAL/MOL
REMARK 924 INTRA-LIGAND FREE ENERGY PREDICTED BY IDOCK:   -0.39 KCAL/MOL
REMARK 927      BINDING AFFINITY PREDICTED BY RF-SCORE:    0.00 PKD
ROOT
HETATM    1  C   UNL     1      -8.259  20.556  67.446  1.00  0.00    -0.344 C  
HETATM    2  C   UNL     1      -7.616  19.444  66.634  1.00  0.00    -0.266 C  
ENDROOT
BRANCH   2   3
HETATM    3  C   UNL     1      -8.464  18.188  66.628  1.00  0.00    -0.264 C  
HETATM    4  O   UNL     1      -8.418  17.341  65.742  1.00  0.00    -0.532 OA 
HETATM    5  N   UNL     1      -9.298  18.093  67.721  1.00  0.00    -0.264 N  
HETATM    6  H   UNL     1      -9.276  18.827  68.429  1.00  0.00     0.000 HD 
BRANCH   5   7
HETATM    7  C   UNL     1     -10.206  16.974  67.888  1.00  0.00    -0.317 C  
BRANCH   7   8
HETATM    8  C   UNL     1     -10.180  16.440  69.322  1.00  0.00    -0.278 C  
BRANCH   8   9
HETATM    9  C   UNL     1      -9.111  15.375  69.598  1.00  0.00    -0.171 C  
HETATM   10  C   UNL     1      -7.653  15.855  69.344  1.00  0.00    -0.210 C  
HETATM   11  C   UNL     1      -7.117  15.138  68.080  1.00  0.00    -0.124 C  
HETATM   12  C   UNL     1      -8.118  14.045  67.834  1.00  0.00    -0.156 A  
HETATM   13  C   UNL     1      -9.225  14.185  68.696  1.00  0.00    -0.146 A  
HETATM   14  C   UNL     1     -10.206  13.204  68.551  1.00  0.00    -0.218 A  
HETATM   15  C   UNL     1      -9.964  12.258  67.556  1.00  0.00    -0.199 A  
HETATM   16  O   UNL     1     -10.998  11.336  67.468  1.00  0.00    -0.230 OA 
HETATM   17  C   UNL     1      -8.880  12.145  66.707  1.00  0.00    -0.198 A  
HETATM   18  C   UNL     1      -7.894  13.088  66.856  1.00  0.00     0.137 A  
HETATM   19  C   UNL     1     -11.967  11.715  68.480  1.00  0.00    -0.217 C  
HETATM   20  C   UNL     1     -11.480  12.958  69.233  1.00  0.00    -0.341 C  
ENDBRANCH   8   9
ENDBRANCH   7   8
ENDBRANCH   5   7
ENDBRANCH   2   3
TORSDOF 4
ENDMDL
MODEL      222
REMARK 921   NORMALIZED FREE ENERGY PREDICTED BY IDOCK:   -3.65 KCAL/MOL
REMARK 922        TOTAL FREE ENERGY PREDICTED BY IDOCK:   -4.71 KCAL/MOL
REMARK 923 INTER-LIGAND FREE ENERGY PREDICTED BY IDOCK:   -4.39 KCAL/MOL
REMARK 924 INTRA-LIGAND FREE ENERGY PREDICTED BY IDOCK:   -0.31 KCAL/MOL
REMARK 927      BINDING AFFINITY PREDICTED BY RF-SCORE:    0.00 PKD
ROOT
HETATM    1  C   UNL     1     -10.074  10.380  64.140  1.00  0.00    -0.262 C  
HETATM    2  C   UNL     1     -10.898  11.504  64.742  1.00  0.00    -0.360 C  
ENDROOT
BRANCH   2   3
HETATM    3  C   UNL     1     -10.321  11.984  66.058  1.00  0.00    -0.238 C  
HETATM    4  O   UNL     1      -9.473  12.866  66.149  1.00  0.00    -0.236 OA 
HETATM    5  N   UNL     1     -10.846  11.327  67.150  1.00  0.00    -0.256 N  
HETATM    6  H   UNL     1     -11.559  10.612  67.005  1.00  0.00     0.000 HD 
BRANCH   5   7
HETATM    7  C   UNL     1     -10.407  11.626  68.500  1.00  0.00    -0.212 C  
BRANCH   7   8
HETATM    8  C   UNL     1      -9.914  10.370  69.222  1.00  0.00    -0.246 C  
BRANCH   8   9
HETATM    9  C   UNL     1     -11.011   9.367  69.601  1.00  0.00    -0.216 C  
HETATM   10  C   UNL     1     -11.939   9.845  70.755  1.00  0.00    -0.410 C  
HETATM   11  C   UNL     1     -11.628   8.996  72.013  1.00  0.00    -0.413 C  
HETATM   12  C   UNL     1     -10.798   7.861  71.486  1.00  0.00    -0.268 A  
HETATM   13  C   UNL     1     -10.466   8.078  70.133  1.00  0.00    -0.225 A  
HETATM   14  C   UNL     1      -9.704   7.066  69.548  1.00  0.00    -0.160 A  
HETATM   15  C   UNL     1      -9.355   6.016  70.395  1.00  0.00    -0.160 A  
HETATM   16  O   UNL     1      -8.582   5.068  69.738  1.00  0.00    -0.086 OA 
HETATM   17  C   UNL     1      -9.674   5.827  71.726  1.00  0.00    -0.185 A  
HETATM   18  C   UNL     1     -10.446   6.801  72.308  1.00  0.00    -0.233 A  
HETATM   19  C   UNL     1      -8.430   5.542  68.375  1.00  0.00    -0.101 C  
HETATM   20  C   UNL     1      -9.166   6.875  68.198  1.00  0.00    -0.126 C  
ENDBRANCH   8   9
ENDBRANCH   7   8
ENDBRANCH   5   7
ENDBRANCH   2   3
TORSDOF 4
ENDMDL
MODEL      223
REMARK 921   NORMALIZED FREE ENERGY PREDICTED BY IDOCK:   -3.65 KCAL/MOL
REMARK 922        TOTAL FREE ENERGY PREDICTED BY IDOCK:   -4.70 KCAL/MOL
REMARK 923 INTER-LIGAND FREE ENERGY PREDICTED BY IDOCK:   -4.51 KCAL/MOL
REMARK 924 INTRA-LIGAND FREE ENERGY PREDICTED BY IDOCK:   -0.19 KCAL/MOL
REMARK 927      BINDING AFFINITY PREDICTED BY RF-SCORE:    0.00 PKD
ROOT
HETATM    1  C   UNL     1     -14.407   8.397  71.885  1.00  0.00    -0.561 C  
HETATM    2  C   UNL     1     -12.917   8.503  72.156  1.00  0.00    -0.403 C  
ENDROOT
BRANCH   2   3
HETATM    3  C   UNL     1     -12.258   9.552  71.284  1.00  0.00    -0.348 C  
HETATM    4  O   UNL     1     -12.418  10.759  71.431  1.00  0.00    -0.369 OA 
HETATM    5  N   UNL     1     -11.457   9.013  70.300  1.00  0.00    -0.430 N  
HETATM    6  H   UNL     1     -11.356   8.000  70.241  1.00  0.00     0.000 HD 
BRANCH   5   7
HETATM    7  C   UNL     1     -10.755   9.852  69.347  1.00  0.00    -0.232 C  
BRANCH   7   8
HETATM    8  C   UNL     1      -9.724   9.052  68.548  1.00  0.00    -0.171 C  
BRANCH   8   9
HETATM    9  C   UNL     1     -10.272   8.354  67.298  1.00  0.00    -0.349 C  
HETATM   10  C   UNL     1     -10.901   6.957  67.573  1.00  0.00    -0.363 C  
HETATM   11  C   UNL     1      -9.965   5.876  66.977  1.00  0.00    -0.195 C  
HETATM   12  C   UNL     1      -9.022   6.655  66.105  1.00  0.00    -0.157 A  
HETATM   13  C   UNL     1      -9.210   8.041  66.290  1.00  0.00    -0.237 A  
HETATM   14  C   UNL     1      -8.385   8.852  65.509  1.00  0.00    -0.142 A  
HETATM   15  C   UNL     1      -7.478   8.174  64.697  1.00  0.00    -0.096 A  
HETATM   16  O   UNL     1      -6.685   9.056  63.975  1.00  0.00    -0.086 OA 
HETATM   17  C   UNL     1      -7.293   6.814  64.542  1.00  0.00    -0.090 A  
HETATM   18  C   UNL     1      -8.117   6.003  65.283  1.00  0.00    -0.134 A  
HETATM   19  C   UNL     1      -7.119  10.390  64.347  1.00  0.00     0.007 C  
HETATM   20  C   UNL     1      -8.257  10.305  65.370  1.00  0.00    -0.156 C  
ENDBRANCH   8   9
ENDBRANCH   7   8
ENDBRANCH   5   7
ENDBRANCH   2   3
TORSDOF 4
ENDMDL
MODEL      224
REMARK 921   NORMALIZED FREE ENERGY PREDICTED BY IDOCK:   -3.64 KCAL/MOL
REMARK 922        TOTAL FREE ENERGY PREDICTED BY IDOCK:   -4.70 KCAL/MOL
REMARK 923 INTER-LIGAND FREE ENERGY PREDICTED BY IDOCK:   -4.21 KCAL/MOL
REMARK 924 INTRA-LIGAND FREE ENERGY PREDICTED BY IDOCK:   -0.49 KCAL/MOL
REMARK 927      BINDING AFFINITY PREDICTED BY RF-SCORE:    0.00 PKD
ROOT
HETATM    1  C   UNL     1      -7.514   8.945  65.030  1.00  0.00    -0.097 C  
HETATM    2  C   UNL     1      -8.506   7.943  65.596  1.00  0.00    -0.160 C  
ENDROOT
BRANCH   2   3
HETATM    3  C   UNL     1      -9.160   8.452  66.864  1.00  0.00    -0.148 C  
HETATM    4  O   UNL     1      -9.112   7.864  67.939  1.00  0.00    -0.132 OA 
HETATM    5  N   UNL     1      -9.822   9.648  66.688  1.00  0.00    -0.209 N  
HETATM    6  H   UNL     1      -9.811  10.093  65.770  1.00  0.00     0.000 HD 
BRANCH   5   7
HETATM    7  C   UNL     1     -10.532  10.290  67.778  1.00  0.00    -0.226 C  
BRANCH   7   8
HETATM    8  C   UNL     1     -10.306  11.804  67.781  1.00  0.00    -0.211 C  
BRANCH   8   9
HETATM    9  C   UNL     1      -8.976  12.263  67.170  1.00  0.00    -0.192 C  
HETATM   10  C   UNL     1      -7.754  12.118  68.122  1.00  0.00    -0.129 C  
HETATM   11  C   UNL     1      -7.302  13.535  68.553  1.00  0.00    -0.114 C  
HETATM   12  C   UNL     1      -8.030  14.449  67.609  1.00  0.00    -0.191 A  
HETATM   13  C   UNL     1      -8.959  13.722  66.836  1.00  0.00    -0.234 A  
HETATM   14  C   UNL     1      -9.678  14.486  65.915  1.00  0.00    -0.324 A  
HETATM   15  C   UNL     1      -9.399  15.851  65.924  1.00  0.00    -0.318 A  
HETATM   16  O   UNL     1     -10.172  16.534  64.996  1.00  0.00    -0.564 OA 
HETATM   17  C   UNL     1      -8.497  16.551  66.703  1.00  0.00    -0.299 A  
HETATM   18  C   UNL     1      -7.763  15.809  67.594  1.00  0.00    -0.174 A  
HETATM   19  C   UNL     1     -11.000  15.536  64.344  1.00  0.00    -0.043 C  
HETATM   20  C   UNL     1     -10.703  14.148  64.924  1.00  0.00    -0.444 C  
ENDBRANCH   8   9
ENDBRANCH   7   8
ENDBRANCH   5   7
ENDBRANCH   2   3
TORSDOF 4
ENDMDL
MODEL      225
REMARK 921   NORMALIZED FREE ENERGY PREDICTED BY IDOCK:   -3.62 KCAL/MOL
REMARK 922        TOTAL FREE ENERGY PREDICTED BY IDOCK:   -4.67 KCAL/MOL
REMARK 923 INTER-LIGAND FREE ENERGY PREDICTED BY IDOCK:   -4.32 KCAL/MOL
REMARK 924 INTRA-LIGAND FREE ENERGY PREDICTED BY IDOCK:   -0.34 KCAL/MOL
REMARK 927      BINDING AFFINITY PREDICTED BY RF-SCORE:    0.00 PKD
ROOT
HETATM    1  C   UNL     1      -9.921   9.178  69.248  1.00  0.00    -0.187 C  
HETATM    2  C   UNL     1     -10.450   9.079  67.827  1.00  0.00    -0.305 C  
ENDROOT
BRANCH   2   3
HETATM    3  C   UNL     1      -9.822  10.116  66.918  1.00  0.00    -0.195 C  
HETATM    4  O   UNL     1      -9.059   9.843  65.997  1.00  0.00    -0.146 OA 
HETATM    5  N   UNL     1     -10.194  11.406  67.232  1.00  0.00    -0.195 N  
HETATM    6  H   UNL     1     -10.843  11.563  68.003  1.00  0.00     0.000 HD 
BRANCH   5   7
HETATM    7  C   UNL     1      -9.683  12.545  66.493  1.00  0.00    -0.246 C  
BRANCH   7   8
HETATM    8  C   UNL     1      -8.952  13.528  67.411  1.00  0.00    -0.219 C  
BRANCH   8   9
HETATM    9  C   UNL     1      -9.766  14.763  67.817  1.00  0.00    -0.213 C  
HETATM   10  C   UNL     1     -10.966  15.072  66.876  1.00  0.00    -0.324 C  
HETATM   11  C   UNL     1     -10.637  16.353  66.070  1.00  0.00    -0.275 C  
HETATM   12  C   UNL     1      -9.444  16.928  66.779  1.00  0.00    -0.269 A  
HETATM   13  C   UNL     1      -8.972  16.031  67.759  1.00  0.00    -0.188 A  
HETATM   14  C   UNL     1      -7.868  16.484  68.484  1.00  0.00    -0.210 A  
HETATM   15  C   UNL     1      -7.379  17.733  68.107  1.00  0.00    -0.238 A  
HETATM   16  O   UNL     1      -6.272  18.095  68.863  1.00  0.00    -0.205 OA 
HETATM   17  C   UNL     1      -7.843  18.593  67.130  1.00  0.00    -0.241 A  
HETATM   18  C   UNL     1      -8.944  18.172  66.427  1.00  0.00    -0.256 A  
HETATM   19  C   UNL     1      -6.040  17.004  69.791  1.00  0.00    -0.227 C  
HETATM   20  C   UNL     1      -7.086  15.903  69.577  1.00  0.00    -0.184 C  
ENDBRANCH   8   9
ENDBRANCH   7   8
ENDBRANCH   5   7
ENDBRANCH   2   3
TORSDOF 4
ENDMDL
MODEL      226
REMARK 921   NORMALIZED FREE ENERGY PREDICTED BY IDOCK:   -3.61 KCAL/MOL
REMARK 922        TOTAL FREE ENERGY PREDICTED BY IDOCK:   -4.65 KCAL/MOL
REMARK 923 INTER-LIGAND FREE ENERGY PREDICTED BY IDOCK:   -4.22 KCAL/MOL
REMARK 924 INTRA-LIGAND FREE ENERGY PREDICTED BY IDOCK:   -0.43 KCAL/MOL
REMARK 927      BINDING AFFINITY PREDICTED BY RF-SCORE:    0.00 PKD
ROOT
HETATM    1  C   UNL     1      -6.289   7.628  70.708  1.00  0.00    -0.038 C  
HETATM    2  C   UNL     1      -6.139   6.708  71.907  1.00  0.00    -0.038 C  
ENDROOT
BRANCH   2   3
HETATM    3  C   UNL     1      -7.266   5.699  71.989  1.00  0.00    -0.088 C  
HETATM    4  O   UNL     1      -7.629   5.166  73.032  1.00  0.00    -0.093 OA 
HETATM    5  N   UNL     1      -7.846   5.436  70.766  1.00  0.00    -0.092 N  
HETATM    6  H   UNL     1      -7.505   5.925  69.939  1.00  0.00     0.000 HD 
BRANCH   5   7
HETATM    7  C   UNL     1      -8.929   4.481  70.629  1.00  0.00    -0.106 C  
BRANCH   7   8
HETATM    8  C   UNL     1     -10.293   5.145  70.833  1.00  0.00    -0.282 C  
BRANCH   8   9
HETATM    9  C   UNL     1     -10.793   5.976  69.646  1.00  0.00    -0.439 C  
HETATM   10  C   UNL     1      -9.818   6.008  68.434  1.00  0.00    -0.152 C  
HETATM   11  C   UNL     1      -9.205   7.426  68.338  1.00  0.00    -0.138 C  
HETATM   12  C   UNL     1     -10.062   8.253  69.255  1.00  0.00    -0.199 A  
HETATM   13  C   UNL     1     -10.951   7.428  69.974  1.00  0.00    -0.264 A  
HETATM   14  C   UNL     1     -11.802   8.109  70.847  1.00  0.00    -0.232 A  
HETATM   15  C   UNL     1     -11.621   9.489  70.902  1.00  0.00    -0.326 A  
HETATM   16  O   UNL     1     -12.491  10.080  71.808  1.00  0.00    -0.389 OA 
HETATM   17  C   UNL     1     -10.730  10.281  70.202  1.00  0.00    -0.334 A  
HETATM   18  C   UNL     1      -9.905   9.628  69.321  1.00  0.00    -0.195 A  
HETATM   19  C   UNL     1     -13.289   9.004  72.366  1.00  0.00    -0.460 C  
HETATM   20  C   UNL     1     -12.866   7.665  71.752  1.00  0.00    -0.357 C  
ENDBRANCH   8   9
ENDBRANCH   7   8
ENDBRANCH   5   7
ENDBRANCH   2   3
TORSDOF 4
ENDMDL
MODEL      227
REMARK 921   NORMALIZED FREE ENERGY PREDICTED BY IDOCK:   -3.59 KCAL/MOL
REMARK 922        TOTAL FREE ENERGY PREDICTED BY IDOCK:   -4.64 KCAL/MOL
REMARK 923 INTER-LIGAND FREE ENERGY PREDICTED BY IDOCK:   -4.64 KCAL/MOL
REMARK 924 INTRA-LIGAND FREE ENERGY PREDICTED BY IDOCK:    0.00 KCAL/MOL
REMARK 927      BINDING AFFINITY PREDICTED BY RF-SCORE:    0.00 PKD
ROOT
HETATM    1  C   UNL     1      -7.910  10.811  68.820  1.00  0.00    -0.129 C  
HETATM    2  C   UNL     1      -9.062  10.230  69.620  1.00  0.00    -0.149 C  
ENDROOT
BRANCH   2   3
HETATM    3  C   UNL     1     -10.383  10.878  69.259  1.00  0.00    -0.187 C  
HETATM    4  O   UNL     1     -11.454  10.280  69.242  1.00  0.00    -0.221 OA 
HETATM    5  N   UNL     1     -10.262  12.215  68.947  1.00  0.00    -0.413 N  
HETATM    6  H   UNL     1      -9.344  12.656  68.994  1.00  0.00     0.000 HD 
BRANCH   5   7
HETATM    7  C   UNL     1     -11.410  13.010  68.553  1.00  0.00    -0.288 C  
BRANCH   7   8
HETATM    8  C   UNL     1     -11.070  14.502  68.505  1.00  0.00    -0.271 C  
BRANCH   8   9
HETATM    9  C   UNL     1     -10.186  14.928  67.327  1.00  0.00    -0.241 C  
HETATM   10  C   UNL     1      -9.253  13.804  66.791  1.00  0.00    -0.255 C  
HETATM   11  C   UNL     1      -7.794  14.156  67.175  1.00  0.00    -0.063 C  
HETATM   12  C   UNL     1      -7.873  15.592  67.612  1.00  0.00    -0.174 A  
HETATM   13  C   UNL     1      -9.218  16.012  67.684  1.00  0.00    -0.205 A  
HETATM   14  C   UNL     1      -9.394  17.342  68.070  1.00  0.00    -0.276 A  
HETATM   15  C   UNL     1      -8.223  18.040  68.360  1.00  0.00    -0.298 A  
HETATM   16  O   UNL     1      -8.493  19.344  68.754  1.00  0.00    -0.366 OA 
HETATM   17  C   UNL     1      -6.913  17.607  68.300  1.00  0.00    -0.220 A  
HETATM   18  C   UNL     1      -6.722  16.309  67.897  1.00  0.00    -0.151 A  
HETATM   19  C   UNL     1      -9.936  19.491  68.708  1.00  0.00    -0.463 C  
HETATM   20  C   UNL     1     -10.583  18.178  68.254  1.00  0.00    -0.267 C  
ENDBRANCH   8   9
ENDBRANCH   7   8
ENDBRANCH   5   7
ENDBRANCH   2   3
TORSDOF 4
ENDMDL
MODEL      228
REMARK 921   NORMALIZED FREE ENERGY PREDICTED BY IDOCK:   -3.59 KCAL/MOL
REMARK 922        TOTAL FREE ENERGY PREDICTED BY IDOCK:   -4.64 KCAL/MOL
REMARK 923 INTER-LIGAND FREE ENERGY PREDICTED BY IDOCK:   -4.38 KCAL/MOL
REMARK 924 INTRA-LIGAND FREE ENERGY PREDICTED BY IDOCK:   -0.26 KCAL/MOL
REMARK 927      BINDING AFFINITY PREDICTED BY RF-SCORE:    0.00 PKD
ROOT
HETATM    1  C   UNL     1     -10.596  12.701  64.189  1.00  0.00    -0.434 C  
HETATM    2  C   UNL     1     -10.313  11.538  63.254  1.00  0.00    -0.435 C  
ENDROOT
BRANCH   2   3
HETATM    3  C   UNL     1      -9.683  10.368  63.983  1.00  0.00    -0.311 C  
HETATM    4  O   UNL     1      -9.067   9.468  63.423  1.00  0.00    -0.233 OA 
HETATM    5  N   UNL     1      -9.876  10.415  65.347  1.00  0.00    -0.263 N  
HETATM    6  H   UNL     1     -10.387  11.199  65.751  1.00  0.00     0.000 HD 
BRANCH   5   7
HETATM    7  C   UNL     1      -9.369   9.374  66.221  1.00  0.00    -0.198 C  
BRANCH   7   8
HETATM    8  C   UNL     1     -10.459   8.849  67.159  1.00  0.00    -0.344 C  
BRANCH   8   9
HETATM    9  C   UNL     1     -10.411   9.410  68.586  1.00  0.00    -0.236 C  
HETATM   10  C   UNL     1      -9.669  10.772  68.711  1.00  0.00    -0.197 C  
HETATM   11  C   UNL     1      -8.331  10.531  69.453  1.00  0.00    -0.117 C  
HETATM   12  C   UNL     1      -8.477   9.148  70.021  1.00  0.00    -0.164 A  
HETATM   13  C   UNL     1      -9.650   8.535  69.533  1.00  0.00    -0.170 A  
HETATM   14  C   UNL     1      -9.881   7.246  70.017  1.00  0.00    -0.175 A  
HETATM   15  C   UNL     1      -8.904   6.747  70.875  1.00  0.00    -0.146 A  
HETATM   16  O   UNL     1      -9.203   5.456  71.290  1.00  0.00    -0.143 OA 
HETATM   17  C   UNL     1      -7.749   7.355  71.330  1.00  0.00    -0.086 A  
HETATM   18  C   UNL     1      -7.523   8.633  70.884  1.00  0.00    -0.083 A  
HETATM   19  C   UNL     1     -10.461   5.107  70.656  1.00  0.00    -0.199 C  
HETATM   20  C   UNL     1     -10.956   6.275  69.795  1.00  0.00    -0.444 C  
ENDBRANCH   8   9
ENDBRANCH   7   8
ENDBRANCH   5   7
ENDBRANCH   2   3
TORSDOF 4
ENDMDL
MODEL      229
REMARK 921   NORMALIZED FREE ENERGY PREDICTED BY IDOCK:   -3.58 KCAL/MOL
REMARK 922        TOTAL FREE ENERGY PREDICTED BY IDOCK:   -4.62 KCAL/MOL
REMARK 923 INTER-LIGAND FREE ENERGY PREDICTED BY IDOCK:   -4.27 KCAL/MOL
REMARK 924 INTRA-LIGAND FREE ENERGY PREDICTED BY IDOCK:   -0.34 KCAL/MOL
REMARK 927      BINDING AFFINITY PREDICTED BY RF-SCORE:    0.00 PKD
ROOT
HETATM    1  C   UNL     1     -10.572  16.167  68.564  1.00  0.00    -0.284 C  
HETATM    2  C   UNL     1     -10.628  15.662  67.133  1.00  0.00    -0.308 C  
ENDROOT
BRANCH   2   3
HETATM    3  C   UNL     1     -10.947  14.182  67.070  1.00  0.00    -0.300 C  
HETATM    4  O   UNL     1     -12.074  13.735  66.882  1.00  0.00    -0.414 OA 
HETATM    5  N   UNL     1      -9.839  13.382  67.247  1.00  0.00    -0.229 N  
HETATM    6  H   UNL     1      -8.927  13.818  67.385  1.00  0.00     0.000 HD 
BRANCH   5   7
HETATM    7  C   UNL     1      -9.938  11.934  67.243  1.00  0.00    -0.186 C  
BRANCH   7   8
HETATM    8  C   UNL     1     -10.340  11.395  68.617  1.00  0.00    -0.219 C  
BRANCH   8   9
HETATM    9  C   UNL     1      -9.251  10.599  69.346  1.00  0.00    -0.073 C  
HETATM   10  C   UNL     1      -7.870  10.605  68.628  1.00  0.00    -0.121 C  
HETATM   11  C   UNL     1      -7.613   9.191  68.053  1.00  0.00    -0.085 C  
HETATM   12  C   UNL     1      -8.655   8.336  68.716  1.00  0.00    -0.133 A  
HETATM   13  C   UNL     1      -9.560   9.137  69.443  1.00  0.00    -0.165 A  
HETATM   14  C   UNL     1     -10.563   8.430  70.109  1.00  0.00    -0.235 A  
HETATM   15  C   UNL     1     -10.540   7.049  69.927  1.00  0.00    -0.229 A  
HETATM   16  O   UNL     1     -11.581   6.429  70.605  1.00  0.00    -0.356 OA 
HETATM   17  C   UNL     1      -9.655   6.280  69.195  1.00  0.00    -0.148 A  
HETATM   18  C   UNL     1      -8.648   6.960  68.557  1.00  0.00    -0.123 A  
HETATM   19  C   UNL     1     -12.318   7.487  71.272  1.00  0.00    -0.327 C  
HETATM   20  C   UNL     1     -11.672   8.845  70.971  1.00  0.00    -0.340 C  
ENDBRANCH   8   9
ENDBRANCH   7   8
ENDBRANCH   5   7
ENDBRANCH   2   3
TORSDOF 4
ENDMDL
MODEL      230
REMARK 921   NORMALIZED FREE ENERGY PREDICTED BY IDOCK:   -3.57 KCAL/MOL
REMARK 922        TOTAL FREE ENERGY PREDICTED BY IDOCK:   -4.61 KCAL/MOL
REMARK 923 INTER-LIGAND FREE ENERGY PREDICTED BY IDOCK:   -4.32 KCAL/MOL
REMARK 924 INTRA-LIGAND FREE ENERGY PREDICTED BY IDOCK:   -0.29 KCAL/MOL
REMARK 927      BINDING AFFINITY PREDICTED BY RF-SCORE:    0.00 PKD
ROOT
HETATM    1  C   UNL     1     -12.419  11.231  71.698  1.00  0.00    -0.251 C  
HETATM    2  C   UNL     1     -13.109   9.893  71.905  1.00  0.00    -0.559 C  
ENDROOT
BRANCH   2   3
HETATM    3  C   UNL     1     -12.118   8.747  71.934  1.00  0.00    -0.363 C  
HETATM    4  O   UNL     1     -11.784   8.160  72.958  1.00  0.00    -0.286 OA 
HETATM    5  N   UNL     1     -11.624   8.428  70.687  1.00  0.00    -0.410 N  
HETATM    6  H   UNL     1     -11.954   8.946  69.874  1.00  0.00     0.000 HD 
BRANCH   5   7
HETATM    7  C   UNL     1     -10.646   7.372  70.506  1.00  0.00    -0.224 C  
BRANCH   7   8
HETATM    8  C   UNL     1     -10.765   6.728  69.123  1.00  0.00    -0.287 C  
BRANCH   8   9
HETATM    9  C   UNL     1      -9.441   6.255  68.511  1.00  0.00    -0.123 C  
HETATM   10  C   UNL     1      -9.211   6.729  67.047  1.00  0.00    -0.152 C  
HETATM   11  C   UNL     1      -9.335   5.501  66.111  1.00  0.00    -0.169 C  
HETATM   12  C   UNL     1      -9.300   4.328  67.050  1.00  0.00    -0.184 A  
HETATM   13  C   UNL     1      -9.351   4.766  68.389  1.00  0.00    -0.177 A  
HETATM   14  C   UNL     1      -9.309   3.745  69.340  1.00  0.00    -0.245 A  
HETATM   15  C   UNL     1      -9.260   2.451  68.824  1.00  0.00    -0.163 A  
HETATM   16  O   UNL     1      -9.242   1.501  69.836  1.00  0.00    -0.082 OA 
HETATM   17  C   UNL     1      -9.228   2.038  67.506  1.00  0.00    -0.166 A  
HETATM   18  C   UNL     1      -9.242   3.033  66.560  1.00  0.00    -0.142 A  
HETATM   19  C   UNL     1      -9.278   2.238  71.086  1.00  0.00    -0.117 C  
HETATM   20  C   UNL     1      -9.320   3.744  70.805  1.00  0.00    -0.218 C  
ENDBRANCH   8   9
ENDBRANCH   7   8
ENDBRANCH   5   7
ENDBRANCH   2   3
TORSDOF 4
ENDMDL
MODEL      231
REMARK 921   NORMALIZED FREE ENERGY PREDICTED BY IDOCK:   -3.56 KCAL/MOL
REMARK 922        TOTAL FREE ENERGY PREDICTED BY IDOCK:   -4.60 KCAL/MOL
REMARK 923 INTER-LIGAND FREE ENERGY PREDICTED BY IDOCK:   -4.36 KCAL/MOL
REMARK 924 INTRA-LIGAND FREE ENERGY PREDICTED BY IDOCK:   -0.24 KCAL/MOL
REMARK 927      BINDING AFFINITY PREDICTED BY RF-SCORE:    0.00 PKD
ROOT
HETATM    1  C   UNL     1     -14.283   8.709  72.338  1.00  0.00    -0.443 C  
HETATM    2  C   UNL     1     -12.784   8.820  72.121  1.00  0.00    -0.461 C  
ENDROOT
BRANCH   2   3
HETATM    3  C   UNL     1     -12.437   9.906  71.123  1.00  0.00    -0.368 C  
HETATM    4  O   UNL     1     -12.885  11.046  71.173  1.00  0.00    -0.377 OA 
HETATM    5  N   UNL     1     -11.565   9.481  70.144  1.00  0.00    -0.424 N  
HETATM    6  H   UNL     1     -11.219   8.522  70.167  1.00  0.00     0.000 HD 
BRANCH   5   7
HETATM    7  C   UNL     1     -11.128  10.366  69.080  1.00  0.00    -0.246 C  
BRANCH   7   8
HETATM    8  C   UNL     1      -9.893   9.814  68.363  1.00  0.00    -0.168 C  
BRANCH   8   9
HETATM    9  C   UNL     1      -9.699  10.318  66.927  1.00  0.00    -0.229 C  
HETATM   10  C   UNL     1      -9.946   9.238  65.835  1.00  0.00    -0.289 C  
HETATM   11  C   UNL     1      -8.583   8.865  65.200  1.00  0.00    -0.208 C  
HETATM   12  C   UNL     1      -7.653   9.942  65.685  1.00  0.00    -0.119 A  
HETATM   13  C   UNL     1      -8.294  10.752  66.645  1.00  0.00    -0.141 A  
HETATM   14  C   UNL     1      -7.512  11.794  67.147  1.00  0.00    -0.149 A  
HETATM   15  C   UNL     1      -6.210  11.854  66.654  1.00  0.00     0.060 A  
HETATM   16  O   UNL     1      -5.500  12.903  67.220  1.00  0.00    -0.321 OA 
HETATM   17  C   UNL     1      -5.591  11.039  65.724  1.00  0.00    -0.105 A  
HETATM   18  C   UNL     1      -6.357  10.027  65.202  1.00  0.00    -0.114 A  
HETATM   19  C   UNL     1      -6.412  13.563  68.136  1.00  0.00    -0.123 C  
HETATM   20  C   UNL     1      -7.773  12.858  68.120  1.00  0.00    -0.138 C  
ENDBRANCH   8   9
ENDBRANCH   7   8
ENDBRANCH   5   7
ENDBRANCH   2   3
TORSDOF 4
ENDMDL
MODEL      232
REMARK 921   NORMALIZED FREE ENERGY PREDICTED BY IDOCK:   -3.51 KCAL/MOL
REMARK 922        TOTAL FREE ENERGY PREDICTED BY IDOCK:   -4.54 KCAL/MOL
REMARK 923 INTER-LIGAND FREE ENERGY PREDICTED BY IDOCK:   -4.38 KCAL/MOL
REMARK 924 INTRA-LIGAND FREE ENERGY PREDICTED BY IDOCK:   -0.16 KCAL/MOL
REMARK 927      BINDING AFFINITY PREDICTED BY RF-SCORE:    0.00 PKD
ROOT
HETATM    1  C   UNL     1      -8.314   6.175  66.395  1.00  0.00    -0.120 C  
HETATM    2  C   UNL     1      -7.921   7.559  65.908  1.00  0.00    -0.117 C  
ENDROOT
BRANCH   2   3
HETATM    3  C   UNL     1      -8.518   8.651  66.772  1.00  0.00    -0.115 C  
HETATM    4  O   UNL     1      -8.611   9.823  66.422  1.00  0.00    -0.123 OA 
HETATM    5  N   UNL     1      -8.947   8.194  68.000  1.00  0.00    -0.134 N  
HETATM    6  H   UNL     1      -8.854   7.204  68.223  1.00  0.00     0.000 HD 
BRANCH   5   7
HETATM    7  C   UNL     1      -9.529   9.090  68.982  1.00  0.00    -0.155 C  
BRANCH   7   8
HETATM    8  C   UNL     1      -8.496   9.532  70.021  1.00  0.00    -0.210 C  
BRANCH   8   9
HETATM    9  C   UNL     1      -8.762   9.043  71.450  1.00  0.00    -0.198 C  
HETATM   10  C   UNL     1      -7.862   7.854  71.895  1.00  0.00    -0.120 C  
HETATM   11  C   UNL     1      -8.742   6.583  71.987  1.00  0.00    -0.132 C  
HETATM   12  C   UNL     1     -10.147   7.112  71.924  1.00  0.00    -0.197 A  
HETATM   13  C   UNL     1     -10.143   8.491  71.631  1.00  0.00    -0.338 A  
HETATM   14  C   UNL     1     -11.407   9.079  71.565  1.00  0.00    -0.416 A  
HETATM   15  C   UNL     1     -12.480   8.212  71.762  1.00  0.00    -0.330 A  
HETATM   16  O   UNL     1     -13.695   8.874  71.659  1.00  0.00    -0.381 OA 
HETATM   17  C   UNL     1     -12.467   6.856  72.031  1.00  0.00    -0.285 A  
HETATM   18  C   UNL     1     -11.229   6.270  72.126  1.00  0.00    -0.326 A  
HETATM   19  C   UNL     1     -13.378  10.263  71.382  1.00  0.00    -0.304 C  
HETATM   20  C   UNL     1     -11.858  10.450  71.313  1.00  0.00    -0.381 C  
ENDBRANCH   8   9
ENDBRANCH   7   8
ENDBRANCH   5   7
ENDBRANCH   2   3
TORSDOF 4
ENDMDL
MODEL      233
REMARK 921   NORMALIZED FREE ENERGY PREDICTED BY IDOCK:   -3.51 KCAL/MOL
REMARK 922        TOTAL FREE ENERGY PREDICTED BY IDOCK:   -4.53 KCAL/MOL
REMARK 923 INTER-LIGAND FREE ENERGY PREDICTED BY IDOCK:   -4.18 KCAL/MOL
REMARK 924 INTRA-LIGAND FREE ENERGY PREDICTED BY IDOCK:   -0.35 KCAL/MOL
REMARK 927      BINDING AFFINITY PREDICTED BY RF-SCORE:    0.00 PKD
ROOT
HETATM    1  C   UNL     1      -5.932   6.991  63.446  1.00  0.00    -0.040 C  
HETATM    2  C   UNL     1      -6.558   6.422  64.708  1.00  0.00    -0.038 C  
ENDROOT
BRANCH   2   3
HETATM    3  C   UNL     1      -7.902   7.054  65.005  1.00  0.00    -0.125 C  
HETATM    4  O   UNL     1      -8.818   6.471  65.577  1.00  0.00    -0.109 OA 
HETATM    5  N   UNL     1      -7.997   8.356  64.564  1.00  0.00    -0.139 N  
HETATM    6  H   UNL     1      -7.193   8.787  64.108  1.00  0.00     0.000 HD 
BRANCH   5   7
HETATM    7  C   UNL     1      -9.213   9.129  64.734  1.00  0.00    -0.018 C  
BRANCH   7   8
HETATM    8  C   UNL     1      -9.258   9.810  66.104  1.00  0.00    -0.221 C  
BRANCH   8   9
HETATM    9  C   UNL     1      -8.712  11.243  66.134  1.00  0.00    -0.179 C  
HETATM   10  C   UNL     1      -7.763  11.537  67.332  1.00  0.00    -0.143 C  
HETATM   11  C   UNL     1      -8.495  12.485  68.313  1.00  0.00    -0.165 C  
HETATM   12  C   UNL     1      -9.680  12.973  67.527  1.00  0.00    -0.206 A  
HETATM   13  C   UNL     1      -9.784  12.274  66.307  1.00  0.00    -0.254 A  
HETATM   14  C   UNL     1     -10.850  12.667  65.497  1.00  0.00    -0.310 A  
HETATM   15  C   UNL     1     -11.670  13.661  66.030  1.00  0.00    -0.358 A  
HETATM   16  O   UNL     1     -12.714  13.974  65.170  1.00  0.00    -0.619 OA 
HETATM   17  C   UNL     1     -11.564  14.323  67.238  1.00  0.00    -0.401 A  
HETATM   18  C   UNL     1     -10.504  13.966  68.033  1.00  0.00    -0.243 A  
HETATM   19  C   UNL     1     -12.548  13.126  64.004  1.00  0.00    -0.169 C  
HETATM   20  C   UNL     1     -11.312  12.235  64.175  1.00  0.00    -0.442 C  
ENDBRANCH   8   9
ENDBRANCH   7   8
ENDBRANCH   5   7
ENDBRANCH   2   3
TORSDOF 4
ENDMDL
MODEL      234
REMARK 921   NORMALIZED FREE ENERGY PREDICTED BY IDOCK:   -3.51 KCAL/MOL
REMARK 922        TOTAL FREE ENERGY PREDICTED BY IDOCK:   -4.53 KCAL/MOL
REMARK 923 INTER-LIGAND FREE ENERGY PREDICTED BY IDOCK:   -4.25 KCAL/MOL
REMARK 924 INTRA-LIGAND FREE ENERGY PREDICTED BY IDOCK:   -0.28 KCAL/MOL
REMARK 927      BINDING AFFINITY PREDICTED BY RF-SCORE:    0.00 PKD
ROOT
HETATM    1  C   UNL     1     -12.334  12.521  70.750  1.00  0.00    -0.376 C  
HETATM    2  C   UNL     1     -12.165  11.168  70.081  1.00  0.00    -0.417 C  
ENDROOT
BRANCH   2   3
HETATM    3  C   UNL     1     -11.873  10.074  71.088  1.00  0.00    -0.393 C  
HETATM    4  O   UNL     1     -12.645   9.748  71.983  1.00  0.00    -0.380 OA 
HETATM    5  N   UNL     1     -10.644   9.479  70.897  1.00  0.00    -0.309 N  
HETATM    6  H   UNL     1     -10.055   9.788  70.124  1.00  0.00     0.000 HD 
BRANCH   5   7
HETATM    7  C   UNL     1     -10.168   8.423  71.771  1.00  0.00    -0.253 C  
BRANCH   7   8
HETATM    8  C   UNL     1     -10.210   7.059  71.078  1.00  0.00    -0.209 C  
BRANCH   8   9
HETATM    9  C   UNL     1      -8.947   6.206  71.249  1.00  0.00    -0.140 C  
HETATM   10  C   UNL     1      -7.905   6.374  70.105  1.00  0.00    -0.107 C  
HETATM   11  C   UNL     1      -7.889   5.073  69.266  1.00  0.00    -0.076 C  
HETATM   12  C   UNL     1      -8.646   4.088  70.110  1.00  0.00    -0.103 A  
HETATM   13  C   UNL     1      -9.227   4.735  71.221  1.00  0.00    -0.191 A  
HETATM   14  C   UNL     1      -9.943   3.897  72.077  1.00  0.00    -0.241 A  
HETATM   15  C   UNL     1     -10.008   2.561  71.688  1.00  0.00    -0.092 A  
HETATM   16  O   UNL     1     -10.755   1.806  72.582  1.00  0.00    -0.155 OA 
HETATM   17  C   UNL     1      -9.448   1.946  70.584  1.00  0.00    -0.179 A  
HETATM   18  C   UNL     1      -8.717   2.753  69.748  1.00  0.00    -0.130 A  
HETATM   19  C   UNL     1     -11.194   2.722  73.618  1.00  0.00    -0.212 C  
HETATM   20  C   UNL     1     -10.673   4.134  73.325  1.00  0.00    -0.292 C  
ENDBRANCH   8   9
ENDBRANCH   7   8
ENDBRANCH   5   7
ENDBRANCH   2   3
TORSDOF 4
ENDMDL
MODEL      235
REMARK 921   NORMALIZED FREE ENERGY PREDICTED BY IDOCK:   -3.50 KCAL/MOL
REMARK 922        TOTAL FREE ENERGY PREDICTED BY IDOCK:   -4.52 KCAL/MOL
REMARK 923 INTER-LIGAND FREE ENERGY PREDICTED BY IDOCK:   -4.25 KCAL/MOL
REMARK 924 INTRA-LIGAND FREE ENERGY PREDICTED BY IDOCK:   -0.28 KCAL/MOL
REMARK 927      BINDING AFFINITY PREDICTED BY RF-SCORE:    0.00 PKD
ROOT
HETATM    1  C   UNL     1     -11.097  15.260  68.979  1.00  0.00    -0.263 C  
HETATM    2  C   UNL     1     -10.275  14.115  68.414  1.00  0.00    -0.247 C  
ENDROOT
BRANCH   2   3
HETATM    3  C   UNL     1     -10.999  12.789  68.531  1.00  0.00    -0.258 C  
HETATM    4  O   UNL     1     -12.218  12.670  68.459  1.00  0.00    -0.178 OA 
HETATM    5  N   UNL     1     -10.147  11.724  68.730  1.00  0.00    -0.352 N  
HETATM    6  H   UNL     1      -9.142  11.890  68.766  1.00  0.00     0.000 HD 
BRANCH   5   7
HETATM    7  C   UNL     1     -10.648  10.371  68.889  1.00  0.00    -0.216 C  
BRANCH   7   8
HETATM    8  C   UNL     1     -10.191   9.756  70.214  1.00  0.00    -0.346 C  
BRANCH   8   9
HETATM    9  C   UNL     1     -10.979   8.519  70.661  1.00  0.00    -0.268 C  
HETATM   10  C   UNL     1     -11.683   8.676  72.040  1.00  0.00    -0.439 C  
HETATM   11  C   UNL     1     -10.948   7.780  73.067  1.00  0.00    -0.442 C  
HETATM   12  C   UNL     1     -10.078   6.897  72.218  1.00  0.00    -0.194 A  
HETATM   13  C   UNL     1     -10.112   7.317  70.873  1.00  0.00    -0.192 A  
HETATM   14  C   UNL     1      -9.342   6.547  70.000  1.00  0.00    -0.160 A  
HETATM   15  C   UNL     1      -8.631   5.505  70.592  1.00  0.00    -0.129 A  
HETATM   16  O   UNL     1      -7.879   4.807  69.657  1.00  0.00    -0.065 OA 
HETATM   17  C   UNL     1      -8.595   5.117  71.918  1.00  0.00    -0.131 A  
HETATM   18  C   UNL     1      -9.368   5.849  72.784  1.00  0.00    -0.147 A  
HETATM   19  C   UNL     1      -8.130   5.442  68.377  1.00  0.00    -0.091 C  
HETATM   20  C   UNL     1      -9.107   6.611  68.555  1.00  0.00    -0.128 C  
ENDBRANCH   8   9
ENDBRANCH   7   8
ENDBRANCH   5   7
ENDBRANCH   2   3
TORSDOF 4
ENDMDL
MODEL      236
REMARK 921   NORMALIZED FREE ENERGY PREDICTED BY IDOCK:   -3.50 KCAL/MOL
REMARK 922        TOTAL FREE ENERGY PREDICTED BY IDOCK:   -4.52 KCAL/MOL
REMARK 923 INTER-LIGAND FREE ENERGY PREDICTED BY IDOCK:   -4.22 KCAL/MOL
REMARK 924 INTRA-LIGAND FREE ENERGY PREDICTED BY IDOCK:   -0.30 KCAL/MOL
REMARK 927      BINDING AFFINITY PREDICTED BY RF-SCORE:    0.00 PKD
ROOT
HETATM    1  C   UNL     1      -8.158   6.173  66.338  1.00  0.00    -0.111 C  
HETATM    2  C   UNL     1      -9.242   6.912  67.103  1.00  0.00    -0.153 C  
ENDROOT
BRANCH   2   3
HETATM    3  C   UNL     1      -9.381   8.347  66.638  1.00  0.00    -0.191 C  
HETATM    4  O   UNL     1      -8.781   8.813  65.675  1.00  0.00    -0.163 OA 
HETATM    5  N   UNL     1     -10.252   9.084  67.411  1.00  0.00    -0.226 N  
HETATM    6  H   UNL     1     -10.730   8.632  68.191  1.00  0.00     0.000 HD 
BRANCH   5   7
HETATM    7  C   UNL     1     -10.506  10.487  67.143  1.00  0.00    -0.249 C  
BRANCH   7   8
HETATM    8  C   UNL     1     -11.524  11.071  68.126  1.00  0.00    -0.374 C  
BRANCH   8   9
HETATM    9  C   UNL     1     -10.919  11.712  69.381  1.00  0.00    -0.211 C  
HETATM   10  C   UNL     1     -11.639  11.324  70.704  1.00  0.00    -0.117 C  
HETATM   11  C   UNL     1     -12.404  12.566  71.225  1.00  0.00    -0.152 C  
HETATM   12  C   UNL     1     -11.855  13.698  70.404  1.00  0.00    -0.308 A  
HETATM   13  C   UNL     1     -11.019  13.206  69.381  1.00  0.00    -0.056 A  
HETATM   14  C   UNL     1     -10.448  14.188  68.570  1.00  0.00    -0.252 A  
HETATM   15  C   UNL     1     -10.818  15.498  68.868  1.00  0.00    -0.254 A  
HETATM   16  O   UNL     1     -10.222  16.404  68.001  1.00  0.00    -0.248 OA 
HETATM   17  C   UNL     1     -11.654  15.963  69.866  1.00  0.00    -0.337 A  
HETATM   18  C   UNL     1     -12.201  15.010  70.688  1.00  0.00    -0.381 A  
HETATM   19  C   UNL     1      -9.412  15.620  67.088  1.00  0.00    -0.217 C  
HETATM   20  C   UNL     1      -9.529  14.130  67.430  1.00  0.00    -0.220 C  
ENDBRANCH   8   9
ENDBRANCH   7   8
ENDBRANCH   5   7
ENDBRANCH   2   3
TORSDOF 4
ENDMDL
MODEL      237
REMARK 921   NORMALIZED FREE ENERGY PREDICTED BY IDOCK:   -3.48 KCAL/MOL
REMARK 922        TOTAL FREE ENERGY PREDICTED BY IDOCK:   -4.50 KCAL/MOL
REMARK 923 INTER-LIGAND FREE ENERGY PREDICTED BY IDOCK:   -4.16 KCAL/MOL
REMARK 924 INTRA-LIGAND FREE ENERGY PREDICTED BY IDOCK:   -0.34 KCAL/MOL
REMARK 927      BINDING AFFINITY PREDICTED BY RF-SCORE:    0.00 PKD
ROOT
HETATM    1  C   UNL     1     -13.343   7.546  71.296  1.00  0.00    -0.312 C  
HETATM    2  C   UNL     1     -12.177   6.732  71.832  1.00  0.00    -0.377 C  
ENDROOT
BRANCH   2   3
HETATM    3  C   UNL     1     -11.319   6.173  70.715  1.00  0.00    -0.295 C  
HETATM    4  O   UNL     1     -10.428   5.348  70.888  1.00  0.00    -0.239 OA 
HETATM    5  N   UNL     1     -11.638   6.690  69.478  1.00  0.00    -0.640 N  
HETATM    6  H   UNL     1     -12.400   7.364  69.401  1.00  0.00     0.000 HD 
BRANCH   5   7
HETATM    7  C   UNL     1     -10.916   6.298  68.282  1.00  0.00    -0.321 C  
BRANCH   7   8
HETATM    8  C   UNL     1     -11.077   7.332  67.165  1.00  0.00    -0.133 C  
BRANCH   8   9
HETATM    9  C   UNL     1      -9.866   8.248  66.950  1.00  0.00    -0.316 C  
HETATM   10  C   UNL     1     -10.235   9.718  66.598  1.00  0.00    -0.296 C  
HETATM   11  C   UNL     1      -9.872   9.970  65.114  1.00  0.00    -0.388 C  
HETATM   12  C   UNL     1      -9.020   8.788  64.745  1.00  0.00    -0.016 A  
HETATM   13  C   UNL     1      -9.020   7.837  65.786  1.00  0.00    -0.109 A  
HETATM   14  C   UNL     1      -8.241   6.704  65.543  1.00  0.00    -0.138 A  
HETATM   15  C   UNL     1      -7.615   6.667  64.299  1.00  0.00    -0.104 A  
HETATM   16  O   UNL     1      -6.882   5.499  64.133  1.00  0.00    -0.044 OA 
HETATM   17  C   UNL     1      -7.640   7.601  63.281  1.00  0.00    -0.119 A  
HETATM   18  C   UNL     1      -8.380   8.733  63.517  1.00  0.00    -0.147 A  
HETATM   19  C   UNL     1      -7.047   4.739  65.359  1.00  0.00    -0.064 C  
HETATM   20  C   UNL     1      -7.947   5.506  66.334  1.00  0.00    -0.105 C  
ENDBRANCH   8   9
ENDBRANCH   7   8
ENDBRANCH   5   7
ENDBRANCH   2   3
TORSDOF 4
ENDMDL
MODEL      238
REMARK 921   NORMALIZED FREE ENERGY PREDICTED BY IDOCK:   -3.48 KCAL/MOL
REMARK 922        TOTAL FREE ENERGY PREDICTED BY IDOCK:   -4.50 KCAL/MOL
REMARK 923 INTER-LIGAND FREE ENERGY PREDICTED BY IDOCK:   -4.16 KCAL/MOL
REMARK 924 INTRA-LIGAND FREE ENERGY PREDICTED BY IDOCK:   -0.34 KCAL/MOL
REMARK 927      BINDING AFFINITY PREDICTED BY RF-SCORE:    0.00 PKD
ROOT
HETATM    1  C   UNL     1     -11.496  11.560  68.026  1.00  0.00    -0.381 C  
HETATM    2  C   UNL     1     -11.829  11.202  69.463  1.00  0.00    -0.423 C  
ENDROOT
BRANCH   2   3
HETATM    3  C   UNL     1     -10.981  10.052  69.969  1.00  0.00    -0.300 C  
HETATM    4  O   UNL     1      -9.755  10.050  69.949  1.00  0.00    -0.227 OA 
HETATM    5  N   UNL     1     -11.729   9.001  70.455  1.00  0.00    -0.459 N  
HETATM    6  H   UNL     1     -12.746   9.073  70.455  1.00  0.00     0.000 HD 
BRANCH   5   7
HETATM    7  C   UNL     1     -11.103   7.796  70.964  1.00  0.00    -0.257 C  
BRANCH   7   8
HETATM    8  C   UNL     1     -11.576   6.554  70.206  1.00  0.00    -0.473 C  
BRANCH   8   9
HETATM    9  C   UNL     1     -10.868   5.249  70.592  1.00  0.00    -0.118 C  
HETATM   10  C   UNL     1     -10.494   5.150  72.099  1.00  0.00    -0.281 C  
HETATM   11  C   UNL     1      -8.955   5.266  72.228  1.00  0.00    -0.136 C  
HETATM   12  C   UNL     1      -8.461   5.096  70.819  1.00  0.00    -0.119 A  
HETATM   13  C   UNL     1      -9.544   5.080  69.916  1.00  0.00    -0.246 A  
HETATM   14  C   UNL     1      -9.185   4.912  68.577  1.00  0.00    -0.157 A  
HETATM   15  C   UNL     1      -7.816   4.822  68.332  1.00  0.00    -0.081 A  
HETATM   16  O   UNL     1      -7.550   4.678  66.978  1.00  0.00    -0.085 OA 
HETATM   17  C   UNL     1      -6.766   4.857  69.230  1.00  0.00    -0.048 A  
HETATM   18  C   UNL     1      -7.105   4.995  70.553  1.00  0.00    -0.053 A  
HETATM   19  C   UNL     1      -8.839   4.670  66.309  1.00  0.00    -0.113 C  
HETATM   20  C   UNL     1      -9.964   4.821  67.339  1.00  0.00    -0.204 C  
ENDBRANCH   8   9
ENDBRANCH   7   8
ENDBRANCH   5   7
ENDBRANCH   2   3
TORSDOF 4
ENDMDL
MODEL      239
REMARK 921   NORMALIZED FREE ENERGY PREDICTED BY IDOCK:   -3.48 KCAL/MOL
REMARK 922        TOTAL FREE ENERGY PREDICTED BY IDOCK:   -4.49 KCAL/MOL
REMARK 923 INTER-LIGAND FREE ENERGY PREDICTED BY IDOCK:   -4.04 KCAL/MOL
REMARK 924 INTRA-LIGAND FREE ENERGY PREDICTED BY IDOCK:   -0.45 KCAL/MOL
REMARK 927      BINDING AFFINITY PREDICTED BY RF-SCORE:    0.00 PKD
ROOT
HETATM    1  C   UNL     1      -6.367  10.146  67.196  1.00  0.00    -0.067 C  
HETATM    2  C   UNL     1      -7.064   9.413  66.063  1.00  0.00    -0.091 C  
ENDROOT
BRANCH   2   3
HETATM    3  C   UNL     1      -8.540   9.214  66.344  1.00  0.00    -0.125 C  
HETATM    4  O   UNL     1      -9.375  10.109  66.271  1.00  0.00    -0.161 OA 
HETATM    5  N   UNL     1      -8.852   7.918  66.694  1.00  0.00    -0.139 N  
HETATM    6  H   UNL     1      -8.112   7.217  66.722  1.00  0.00     0.000 HD 
BRANCH   5   7
HETATM    7  C   UNL     1     -10.210   7.527  67.024  1.00  0.00    -0.298 C  
BRANCH   7   8
HETATM    8  C   UNL     1     -10.235   6.412  68.072  1.00  0.00    -0.195 C  
BRANCH   8   9
HETATM    9  C   UNL     1      -9.335   6.648  69.291  1.00  0.00    -0.142 C  
HETATM   10  C   UNL     1      -8.651   5.362  69.837  1.00  0.00    -0.108 C  
HETATM   11  C   UNL     1      -9.300   5.002  71.196  1.00  0.00    -0.199 C  
HETATM   12  C   UNL     1     -10.084   6.232  71.558  1.00  0.00    -0.218 A  
HETATM   13  C   UNL     1     -10.088   7.148  70.485  1.00  0.00    -0.202 A  
HETATM   14  C   UNL     1     -10.783   8.333  70.732  1.00  0.00    -0.244 A  
HETATM   15  C   UNL     1     -11.396   8.418  71.980  1.00  0.00    -0.342 A  
HETATM   16  O   UNL     1     -12.079   9.617  72.131  1.00  0.00    -0.291 OA 
HETATM   17  C   UNL     1     -11.397   7.502  73.015  1.00  0.00    -0.313 A  
HETATM   18  C   UNL     1     -10.695   6.342  72.797  1.00  0.00    -0.267 A  
HETATM   19  C   UNL     1     -11.886  10.353  70.895  1.00  0.00    -0.377 C  
HETATM   20  C   UNL     1     -11.022   9.535  69.928  1.00  0.00    -0.263 C  
ENDBRANCH   8   9
ENDBRANCH   7   8
ENDBRANCH   5   7
ENDBRANCH   2   3
TORSDOF 4
ENDMDL
MODEL      240
REMARK 921   NORMALIZED FREE ENERGY PREDICTED BY IDOCK:   -3.47 KCAL/MOL
REMARK 922        TOTAL FREE ENERGY PREDICTED BY IDOCK:   -4.49 KCAL/MOL
REMARK 923 INTER-LIGAND FREE ENERGY PREDICTED BY IDOCK:   -3.83 KCAL/MOL
REMARK 924 INTRA-LIGAND FREE ENERGY PREDICTED BY IDOCK:   -0.67 KCAL/MOL
REMARK 927      BINDING AFFINITY PREDICTED BY RF-SCORE:    0.00 PKD
ROOT
HETATM    1  C   UNL     1      -8.287   5.028  69.584  1.00  0.00    -0.088 C  
HETATM    2  C   UNL     1      -9.746   4.804  69.943  1.00  0.00    -0.274 C  
ENDROOT
BRANCH   2   3
HETATM    3  C   UNL     1     -10.607   5.993  69.568  1.00  0.00    -0.296 C  
HETATM    4  O   UNL     1     -11.092   6.159  68.454  1.00  0.00    -0.330 OA 
HETATM    5  N   UNL     1     -10.792   6.877  70.610  1.00  0.00    -0.236 N  
HETATM    6  H   UNL     1     -10.372   6.672  71.517  1.00  0.00     0.000 HD 
BRANCH   5   7
HETATM    7  C   UNL     1     -11.569   8.091  70.447  1.00  0.00    -0.068 C  
BRANCH   7   8
HETATM    8  C   UNL     1     -10.877   9.292  71.097  1.00  0.00    -0.407 C  
BRANCH   8   9
HETATM    9  C   UNL     1     -10.473  10.410  70.129  1.00  0.00    -0.185 C  
HETATM   10  C   UNL     1     -11.642  11.355  69.724  1.00  0.00    -0.407 C  
HETATM   11  C   UNL     1     -11.997  11.082  68.242  1.00  0.00    -0.113 C  
HETATM   12  C   UNL     1     -10.847  10.257  67.740  1.00  0.00    -0.346 A  
HETATM   13  C   UNL     1      -9.998   9.895  68.806  1.00  0.00    -0.183 A  
HETATM   14  C   UNL     1      -8.887   9.135  68.436  1.00  0.00    -0.129 A  
HETATM   15  C   UNL     1      -8.804   8.818  67.082  1.00  0.00    -0.127 A  
HETATM   16  O   UNL     1      -7.684   8.045  66.808  1.00  0.00    -0.095 OA 
HETATM   17  C   UNL     1      -9.656   9.167  66.051  1.00  0.00    -0.342 A  
HETATM   18  C   UNL     1     -10.739   9.937  66.396  1.00  0.00    -0.034 A  
HETATM   19  C   UNL     1      -7.000   7.858  68.074  1.00  0.00    -0.073 C  
HETATM   20  C   UNL     1      -7.766   8.571  69.194  1.00  0.00    -0.091 C  
ENDBRANCH   8   9
ENDBRANCH   7   8
ENDBRANCH   5   7
ENDBRANCH   2   3
TORSDOF 4
ENDMDL
MODEL      241
REMARK 921   NORMALIZED FREE ENERGY PREDICTED BY IDOCK:   -3.44 KCAL/MOL
REMARK 922        TOTAL FREE ENERGY PREDICTED BY IDOCK:   -4.45 KCAL/MOL
REMARK 923 INTER-LIGAND FREE ENERGY PREDICTED BY IDOCK:   -3.88 KCAL/MOL
REMARK 924 INTRA-LIGAND FREE ENERGY PREDICTED BY IDOCK:   -0.57 KCAL/MOL
REMARK 927      BINDING AFFINITY PREDICTED BY RF-SCORE:    0.00 PKD
ROOT
HETATM    1  C   UNL     1      -6.310  10.564  68.937  1.00  0.00    -0.047 C  
HETATM    2  C   UNL     1      -6.477  10.248  70.413  1.00  0.00    -0.131 C  
ENDROOT
BRANCH   2   3
HETATM    3  C   UNL     1      -7.239   8.956  70.630  1.00  0.00    -0.075 C  
HETATM    4  O   UNL     1      -7.181   8.296  71.662  1.00  0.00    -0.073 OA 
HETATM    5  N   UNL     1      -8.007   8.593  69.544  1.00  0.00    -0.095 N  
HETATM    6  H   UNL     1      -8.021   9.194  68.721  1.00  0.00     0.000 HD 
BRANCH   5   7
HETATM    7  C   UNL     1      -8.795   7.375  69.545  1.00  0.00    -0.137 C  
BRANCH   7   8
HETATM    8  C   UNL     1     -10.287   7.671  69.374  1.00  0.00    -0.214 C  
BRANCH   8   9
HETATM    9  C   UNL     1     -10.733   7.939  67.931  1.00  0.00    -0.147 C  
HETATM   10  C   UNL     1     -10.014   7.058  66.868  1.00  0.00    -0.283 C  
HETATM   11  C   UNL     1      -9.055   7.962  66.055  1.00  0.00    -0.181 C  
HETATM   12  C   UNL     1      -9.473   9.357  66.424  1.00  0.00    -0.259 A  
HETATM   13  C   UNL     1     -10.418   9.328  67.470  1.00  0.00    -0.338 A  
HETATM   14  C   UNL     1     -10.880  10.581  67.876  1.00  0.00    -0.333 A  
HETATM   15  C   UNL     1     -10.312  11.669  67.215  1.00  0.00    -0.204 A  
HETATM   16  O   UNL     1     -10.811  12.872  67.695  1.00  0.00    -0.225 OA 
HETATM   17  C   UNL     1      -9.372  11.681  66.203  1.00  0.00    -0.237 A  
HETATM   18  C   UNL     1      -8.929  10.454  65.775  1.00  0.00    -0.189 A  
HETATM   19  C   UNL     1     -11.768  12.531  68.732  1.00  0.00    -0.327 C  
HETATM   20  C   UNL     1     -11.850  11.008  68.887  1.00  0.00    -0.378 C  
ENDBRANCH   8   9
ENDBRANCH   7   8
ENDBRANCH   5   7
ENDBRANCH   2   3
TORSDOF 4
ENDMDL
MODEL      242
REMARK 921   NORMALIZED FREE ENERGY PREDICTED BY IDOCK:   -3.44 KCAL/MOL
REMARK 922        TOTAL FREE ENERGY PREDICTED BY IDOCK:   -4.45 KCAL/MOL
REMARK 923 INTER-LIGAND FREE ENERGY PREDICTED BY IDOCK:   -4.12 KCAL/MOL
REMARK 924 INTRA-LIGAND FREE ENERGY PREDICTED BY IDOCK:   -0.33 KCAL/MOL
REMARK 927      BINDING AFFINITY PREDICTED BY RF-SCORE:    0.00 PKD
ROOT
HETATM    1  C   UNL     1      -8.120   3.854  65.588  1.00  0.00    -0.097 C  
HETATM    2  C   UNL     1      -9.208   4.876  65.307  1.00  0.00    -0.144 C  
ENDROOT
BRANCH   2   3
HETATM    3  C   UNL     1      -9.667   5.573  66.572  1.00  0.00    -0.162 C  
HETATM    4  O   UNL     1     -10.843   5.789  66.843  1.00  0.00    -0.295 OA 
HETATM    5  N   UNL     1      -8.624   5.944  67.393  1.00  0.00    -0.107 N  
HETATM    6  H   UNL     1      -7.668   5.722  67.115  1.00  0.00     0.000 HD 
BRANCH   5   7
HETATM    7  C   UNL     1      -8.853   6.645  68.643  1.00  0.00    -0.122 C  
BRANCH   7   8
HETATM    8  C   UNL     1      -7.853   7.786  68.839  1.00  0.00    -0.122 C  
BRANCH   8   9
HETATM    9  C   UNL     1      -7.785   8.352  70.262  1.00  0.00    -0.080 C  
HETATM   10  C   UNL     1      -7.079   7.417  71.286  1.00  0.00    -0.063 C  
HETATM   11  C   UNL     1      -8.150   6.856  72.254  1.00  0.00    -0.093 C  
HETATM   12  C   UNL     1      -9.357   7.712  71.990  1.00  0.00    -0.182 A  
HETATM   13  C   UNL     1      -9.135   8.549  70.878  1.00  0.00    -0.208 A  
HETATM   14  C   UNL     1     -10.199   9.395  70.562  1.00  0.00    -0.332 A  
HETATM   15  C   UNL     1     -11.329   9.260  71.366  1.00  0.00    -0.364 A  
HETATM   16  O   UNL     1     -12.342  10.121  70.968  1.00  0.00    -0.316 OA 
HETATM   17  C   UNL     1     -11.537   8.419  72.443  1.00  0.00    -0.450 A  
HETATM   18  C   UNL     1     -10.489   7.601  72.782  1.00  0.00    -0.368 A  
HETATM   19  C   UNL     1     -11.823  10.864  69.834  1.00  0.00    -0.349 C  
HETATM   20  C   UNL     1     -10.390  10.414  69.526  1.00  0.00    -0.264 C  
ENDBRANCH   8   9
ENDBRANCH   7   8
ENDBRANCH   5   7
ENDBRANCH   2   3
TORSDOF 4
ENDMDL
MODEL      243
REMARK 921   NORMALIZED FREE ENERGY PREDICTED BY IDOCK:   -3.43 KCAL/MOL
REMARK 922        TOTAL FREE ENERGY PREDICTED BY IDOCK:   -4.44 KCAL/MOL
REMARK 923 INTER-LIGAND FREE ENERGY PREDICTED BY IDOCK:   -4.09 KCAL/MOL
REMARK 924 INTRA-LIGAND FREE ENERGY PREDICTED BY IDOCK:   -0.36 KCAL/MOL
REMARK 927      BINDING AFFINITY PREDICTED BY RF-SCORE:    0.00 PKD
ROOT
HETATM    1  C   UNL     1     -11.549  12.442  65.654  1.00  0.00    -0.441 C  
HETATM    2  C   UNL     1     -10.451  11.447  65.985  1.00  0.00    -0.305 C  
ENDROOT
BRANCH   2   3
HETATM    3  C   UNL     1     -10.448  11.078  67.454  1.00  0.00    -0.218 C  
HETATM    4  O   UNL     1     -11.429  11.176  68.183  1.00  0.00    -0.284 OA 
HETATM    5  N   UNL     1      -9.225  10.619  67.894  1.00  0.00    -0.147 N  
HETATM    6  H   UNL     1      -8.452  10.549  67.232  1.00  0.00     0.000 HD 
BRANCH   5   7
HETATM    7  C   UNL     1      -9.010  10.235  69.276  1.00  0.00    -0.179 C  
BRANCH   7   8
HETATM    8  C   UNL     1      -7.733   9.407  69.437  1.00  0.00    -0.085 C  
BRANCH   8   9
HETATM    9  C   UNL     1      -7.915   7.894  69.266  1.00  0.00    -0.117 C  
HETATM   10  C   UNL     1      -8.012   7.428  67.784  1.00  0.00    -0.118 C  
HETATM   11  C   UNL     1      -9.469   6.982  67.509  1.00  0.00    -0.144 C  
HETATM   12  C   UNL     1     -10.081   6.882  68.878  1.00  0.00    -0.174 A  
HETATM   13  C   UNL     1      -9.197   7.389  69.852  1.00  0.00    -0.144 A  
HETATM   14  C   UNL     1      -9.672   7.326  71.162  1.00  0.00    -0.171 A  
HETATM   15  C   UNL     1     -10.958   6.809  71.307  1.00  0.00    -0.249 A  
HETATM   16  O   UNL     1     -11.358   6.804  72.636  1.00  0.00    -0.259 OA 
HETATM   17  C   UNL     1     -11.820   6.333  70.338  1.00  0.00    -0.177 A  
HETATM   18  C   UNL     1     -11.355   6.363  69.047  1.00  0.00    -0.332 A  
HETATM   19  C   UNL     1     -10.248   7.351  73.396  1.00  0.00    -0.351 C  
HETATM   20  C   UNL     1      -9.095   7.713  72.453  1.00  0.00    -0.191 C  
ENDBRANCH   8   9
ENDBRANCH   7   8
ENDBRANCH   5   7
ENDBRANCH   2   3
TORSDOF 4
ENDMDL
MODEL      244
REMARK 921   NORMALIZED FREE ENERGY PREDICTED BY IDOCK:   -3.43 KCAL/MOL
REMARK 922        TOTAL FREE ENERGY PREDICTED BY IDOCK:   -4.43 KCAL/MOL
REMARK 923 INTER-LIGAND FREE ENERGY PREDICTED BY IDOCK:   -3.77 KCAL/MOL
REMARK 924 INTRA-LIGAND FREE ENERGY PREDICTED BY IDOCK:   -0.66 KCAL/MOL
REMARK 927      BINDING AFFINITY PREDICTED BY RF-SCORE:    0.00 PKD
ROOT
HETATM    1  C   UNL     1     -11.259  11.963  64.104  1.00  0.00    -0.446 C  
HETATM    2  C   UNL     1     -11.512  13.457  64.202  1.00  0.00    -0.421 C  
ENDROOT
BRANCH   2   3
HETATM    3  C   UNL     1     -10.534  14.134  65.140  1.00  0.00    -0.402 C  
HETATM    4  O   UNL     1     -10.088  15.263  64.961  1.00  0.00    -0.328 OA 
HETATM    5  N   UNL     1     -10.192  13.351  66.222  1.00  0.00    -0.291 N  
HETATM    6  H   UNL     1     -10.611  12.426  66.318  1.00  0.00     0.000 HD 
BRANCH   5   7
HETATM    7  C   UNL     1      -9.251  13.811  67.225  1.00  0.00    -0.239 C  
BRANCH   7   8
HETATM    8  C   UNL     1      -8.706  12.649  68.059  1.00  0.00    -0.190 C  
BRANCH   8   9
HETATM    9  C   UNL     1      -9.621  11.420  68.134  1.00  0.00    -0.190 C  
HETATM   10  C   UNL     1     -10.167  11.119  69.560  1.00  0.00     0.045 C  
HETATM   11  C   UNL     1      -9.479   9.835  70.084  1.00  0.00    -0.277 C  
HETATM   12  C   UNL     1      -8.826   9.251  68.863  1.00  0.00    -0.135 A  
HETATM   13  C   UNL     1      -8.920  10.146  67.778  1.00  0.00    -0.129 A  
HETATM   14  C   UNL     1      -8.352   9.685  66.589  1.00  0.00    -0.123 A  
HETATM   15  C   UNL     1      -7.747   8.432  66.663  1.00  0.00    -0.090 A  
HETATM   16  O   UNL     1      -7.192   8.063  65.446  1.00  0.00    -0.062 OA 
HETATM   17  C   UNL     1      -7.648   7.574  67.742  1.00  0.00    -0.106 A  
HETATM   18  C   UNL     1      -8.226   8.003  68.911  1.00  0.00    -0.125 A  
HETATM   19  C   UNL     1      -7.465   9.154  64.527  1.00  0.00    -0.101 C  
HETATM   20  C   UNL     1      -8.242  10.262  65.247  1.00  0.00    -0.161 C  
ENDBRANCH   8   9
ENDBRANCH   7   8
ENDBRANCH   5   7
ENDBRANCH   2   3
TORSDOF 4
ENDMDL
MODEL      245
REMARK 921   NORMALIZED FREE ENERGY PREDICTED BY IDOCK:   -3.42 KCAL/MOL
REMARK 922        TOTAL FREE ENERGY PREDICTED BY IDOCK:   -4.43 KCAL/MOL
REMARK 923 INTER-LIGAND FREE ENERGY PREDICTED BY IDOCK:   -4.02 KCAL/MOL
REMARK 924 INTRA-LIGAND FREE ENERGY PREDICTED BY IDOCK:   -0.41 KCAL/MOL
REMARK 927      BINDING AFFINITY PREDICTED BY RF-SCORE:    0.00 PKD
ROOT
HETATM    1  C   UNL     1     -12.136  13.583  64.262  1.00  0.00    -0.482 C  
HETATM    2  C   UNL     1     -12.424  13.567  65.753  1.00  0.00    -0.514 C  
ENDROOT
BRANCH   2   3
HETATM    3  C   UNL     1     -11.829  12.348  66.429  1.00  0.00    -0.354 C  
HETATM    4  O   UNL     1     -12.269  11.861  67.465  1.00  0.00    -0.510 OA 
HETATM    5  N   UNL     1     -10.736  11.840  65.761  1.00  0.00    -0.273 N  
HETATM    6  H   UNL     1     -10.429  12.285  64.897  1.00  0.00     0.000 HD 
BRANCH   5   7
HETATM    7  C   UNL     1     -10.010  10.686  66.260  1.00  0.00    -0.222 C  
BRANCH   7   8
HETATM    8  C   UNL     1      -8.605  11.067  66.730  1.00  0.00    -0.152 C  
BRANCH   8   9
HETATM    9  C   UNL     1      -8.556  12.117  67.847  1.00  0.00    -0.167 C  
HETATM   10  C   UNL     1      -8.210  13.553  67.356  1.00  0.00    -0.187 C  
HETATM   11  C   UNL     1      -6.784  13.905  67.848  1.00  0.00    -0.165 C  
HETATM   12  C   UNL     1      -6.478  12.839  68.862  1.00  0.00    -0.091 A  
HETATM   13  C   UNL     1      -7.483  11.849  68.855  1.00  0.00    -0.060 A  
HETATM   14  C   UNL     1      -7.293  10.818  69.777  1.00  0.00    -0.072 A  
HETATM   15  C   UNL     1      -6.128  10.902  70.536  1.00  0.00    -0.102 A  
HETATM   16  O   UNL     1      -6.010   9.829  71.408  1.00  0.00    -0.175 OA 
HETATM   17  C   UNL     1      -5.143  11.872  70.517  1.00  0.00    -0.109 A  
HETATM   18  C   UNL     1      -5.329  12.906  69.634  1.00  0.00    -0.083 A  
HETATM   19  C   UNL     1      -7.185   9.004  71.197  1.00  0.00    -0.097 C  
HETATM   20  C   UNL     1      -8.076   9.627  70.116  1.00  0.00    -0.205 C  
ENDBRANCH   8   9
ENDBRANCH   7   8
ENDBRANCH   5   7
ENDBRANCH   2   3
TORSDOF 4
ENDMDL
MODEL      246
REMARK 921   NORMALIZED FREE ENERGY PREDICTED BY IDOCK:   -3.41 KCAL/MOL
REMARK 922        TOTAL FREE ENERGY PREDICTED BY IDOCK:   -4.41 KCAL/MOL
REMARK 923 INTER-LIGAND FREE ENERGY PREDICTED BY IDOCK:   -4.93 KCAL/MOL
REMARK 924 INTRA-LIGAND FREE ENERGY PREDICTED BY IDOCK:    0.52 KCAL/MOL
REMARK 927      BINDING AFFINITY PREDICTED BY RF-SCORE:    0.00 PKD
ROOT
HETATM    1  C   UNL     1      -9.104   8.447  71.006  1.00  0.00    -0.201 C  
HETATM    2  C   UNL     1      -9.266   9.832  70.406  1.00  0.00    -0.169 C  
ENDROOT
BRANCH   2   3
HETATM    3  C   UNL     1      -9.122   9.814  68.897  1.00  0.00    -0.148 C  
HETATM    4  O   UNL     1      -8.869   8.804  68.249  1.00  0.00    -0.140 OA 
HETATM    5  N   UNL     1      -9.302  11.054  68.322  1.00  0.00    -0.166 N  
HETATM    6  H   UNL     1      -9.525  11.851  68.917  1.00  0.00     0.000 HD 
BRANCH   5   7
HETATM    7  C   UNL     1      -9.183  11.250  66.890  1.00  0.00    -0.175 C  
BRANCH   7   8
HETATM    8  C   UNL     1     -10.477  10.879  66.162  1.00  0.00    -0.290 C  
BRANCH   8   9
HETATM    9  C   UNL     1     -11.575  11.948  66.205  1.00  0.00    -0.317 C  
HETATM   10  C   UNL     1     -11.356  13.127  65.213  1.00  0.00    -0.321 C  
HETATM   11  C   UNL     1     -10.993  14.391  66.030  1.00  0.00    -0.316 C  
HETATM   12  C   UNL     1     -11.328  14.015  67.445  1.00  0.00    -0.350 A  
HETATM   13  C   UNL     1     -11.660  12.647  67.527  1.00  0.00    -0.418 A  
HETATM   14  C   UNL     1     -12.002  12.203  68.805  1.00  0.00    -0.292 A  
HETATM   15  C   UNL     1     -11.928  13.165  69.811  1.00  0.00    -0.314 A  
HETATM   16  O   UNL     1     -12.263  12.634  71.049  1.00  0.00    -0.304 OA 
HETATM   17  C   UNL     1     -11.583  14.500  69.716  1.00  0.00    -0.345 A  
HETATM   18  C   UNL     1     -11.270  14.957  68.460  1.00  0.00    -0.292 A  
HETATM   19  C   UNL     1     -12.577  11.236  70.819  1.00  0.00    -0.332 C  
HETATM   20  C   UNL     1     -12.419  10.901  69.331  1.00  0.00    -0.037 C  
ENDBRANCH   8   9
ENDBRANCH   7   8
ENDBRANCH   5   7
ENDBRANCH   2   3
TORSDOF 4
ENDMDL
MODEL      247
REMARK 921   NORMALIZED FREE ENERGY PREDICTED BY IDOCK:   -3.40 KCAL/MOL
REMARK 922        TOTAL FREE ENERGY PREDICTED BY IDOCK:   -4.40 KCAL/MOL
REMARK 923 INTER-LIGAND FREE ENERGY PREDICTED BY IDOCK:   -4.32 KCAL/MOL
REMARK 924 INTRA-LIGAND FREE ENERGY PREDICTED BY IDOCK:   -0.08 KCAL/MOL
REMARK 927      BINDING AFFINITY PREDICTED BY RF-SCORE:    0.00 PKD
ROOT
HETATM    1  C   UNL     1     -10.314  11.136  65.686  1.00  0.00    -0.311 C  
HETATM    2  C   UNL     1      -9.440  11.806  66.732  1.00  0.00    -0.202 C  
ENDROOT
BRANCH   2   3
HETATM    3  C   UNL     1     -10.004  11.642  68.128  1.00  0.00    -0.195 C  
HETATM    4  O   UNL     1     -10.819  12.410  68.629  1.00  0.00    -0.227 OA 
HETATM    5  N   UNL     1      -9.507  10.537  68.785  1.00  0.00    -0.172 N  
HETATM    6  H   UNL     1      -8.842   9.930  68.306  1.00  0.00     0.000 HD 
BRANCH   5   7
HETATM    7  C   UNL     1      -9.907  10.217  70.143  1.00  0.00    -0.053 C  
BRANCH   7   8
HETATM    8  C   UNL     1      -9.110   9.035  70.700  1.00  0.00    -0.280 C  
BRANCH   8   9
HETATM    9  C   UNL     1      -9.436   8.658  72.150  1.00  0.00    -0.373 C  
HETATM   10  C   UNL     1      -8.312   7.858  72.869  1.00  0.00    -0.205 C  
HETATM   11  C   UNL     1      -8.798   6.400  73.061  1.00  0.00    -0.129 C  
HETATM   12  C   UNL     1     -10.270   6.468  72.767  1.00  0.00    -0.206 A  
HETATM   13  C   UNL     1     -10.614   7.741  72.265  1.00  0.00    -0.315 A  
HETATM   14  C   UNL     1     -11.969   7.907  71.973  1.00  0.00    -0.364 A  
HETATM   15  C   UNL     1     -12.767   6.785  72.185  1.00  0.00    -0.093 A  
HETATM   16  O   UNL     1     -14.092   7.032  71.849  1.00  0.00    -0.326 OA 
HETATM   17  C   UNL     1     -12.410   5.538  72.661  1.00  0.00     0.196 A  
HETATM   18  C   UNL     1     -11.086   5.368  72.978  1.00  0.00    -0.368 A  
HETATM   19  C   UNL     1     -14.145   8.410  71.396  1.00  0.00    -0.294 C  
HETATM   20  C   UNL     1     -12.748   9.038  71.463  1.00  0.00    -0.399 C  
ENDBRANCH   8   9
ENDBRANCH   7   8
ENDBRANCH   5   7
ENDBRANCH   2   3
TORSDOF 4
ENDMDL
MODEL      248
REMARK 921   NORMALIZED FREE ENERGY PREDICTED BY IDOCK:   -3.39 KCAL/MOL
REMARK 922        TOTAL FREE ENERGY PREDICTED BY IDOCK:   -4.38 KCAL/MOL
REMARK 923 INTER-LIGAND FREE ENERGY PREDICTED BY IDOCK:   -3.80 KCAL/MOL
REMARK 924 INTRA-LIGAND FREE ENERGY PREDICTED BY IDOCK:   -0.58 KCAL/MOL
REMARK 927      BINDING AFFINITY PREDICTED BY RF-SCORE:    0.00 PKD
ROOT
HETATM    1  C   UNL     1      -6.637  10.539  69.143  1.00  0.00    -0.057 C  
HETATM    2  C   UNL     1      -7.062   9.115  68.829  1.00  0.00    -0.073 C  
ENDROOT
BRANCH   2   3
HETATM    3  C   UNL     1      -8.568   8.952  68.879  1.00  0.00    -0.135 C  
HETATM    4  O   UNL     1      -9.329   9.789  69.354  1.00  0.00    -0.176 OA 
HETATM    5  N   UNL     1      -9.001   7.761  68.337  1.00  0.00    -0.133 N  
HETATM    6  H   UNL     1      -8.317   7.114  67.946  1.00  0.00     0.000 HD 
BRANCH   5   7
HETATM    7  C   UNL     1     -10.407   7.406  68.310  1.00  0.00    -0.194 C  
BRANCH   7   8
HETATM    8  C   UNL     1     -10.626   5.945  68.711  1.00  0.00    -0.340 C  
BRANCH   8   9
HETATM    9  C   UNL     1      -9.455   5.296  69.459  1.00  0.00    -0.192 C  
HETATM   10  C   UNL     1      -9.049   3.896  68.915  1.00  0.00    -0.196 C  
HETATM   11  C   UNL     1      -9.463   2.829  69.959  1.00  0.00    -0.168 C  
HETATM   12  C   UNL     1      -9.781   3.631  71.189  1.00  0.00    -0.245 A  
HETATM   13  C   UNL     1      -9.764   5.011  70.896  1.00  0.00    -0.256 A  
HETATM   14  C   UNL     1     -10.036   5.843  71.983  1.00  0.00    -0.204 A  
HETATM   15  C   UNL     1     -10.317   5.187  73.181  1.00  0.00    -0.195 A  
HETATM   16  O   UNL     1     -10.595   6.088  74.200  1.00  0.00    -0.260 OA 
HETATM   17  C   UNL     1     -10.346   3.832  73.447  1.00  0.00    -0.238 A  
HETATM   18  C   UNL     1     -10.055   3.002  72.393  1.00  0.00    -0.229 A  
HETATM   19  C   UNL     1     -10.478   7.411  73.615  1.00  0.00    -0.299 C  
HETATM   20  C   UNL     1     -10.103   7.299  72.133  1.00  0.00    -0.207 C  
ENDBRANCH   8   9
ENDBRANCH   7   8
ENDBRANCH   5   7
ENDBRANCH   2   3
TORSDOF 4
ENDMDL
MODEL      249
REMARK 921   NORMALIZED FREE ENERGY PREDICTED BY IDOCK:   -3.38 KCAL/MOL
REMARK 922        TOTAL FREE ENERGY PREDICTED BY IDOCK:   -4.37 KCAL/MOL
REMARK 923 INTER-LIGAND FREE ENERGY PREDICTED BY IDOCK:   -4.05 KCAL/MOL
REMARK 924 INTRA-LIGAND FREE ENERGY PREDICTED BY IDOCK:   -0.32 KCAL/MOL
REMARK 927      BINDING AFFINITY PREDICTED BY RF-SCORE:    0.00 PKD
ROOT
HETATM    1  C   UNL     1      -7.405  11.554  66.760  1.00  0.00    -0.111 C  
HETATM    2  C   UNL     1      -8.313  12.019  67.885  1.00  0.00    -0.155 C  
ENDROOT
BRANCH   2   3
HETATM    3  C   UNL     1      -9.428  11.029  68.156  1.00  0.00    -0.172 C  
HETATM    4  O   UNL     1      -9.768  10.153  67.368  1.00  0.00    -0.154 OA 
HETATM    5  N   UNL     1     -10.027  11.212  69.384  1.00  0.00    -0.428 N  
HETATM    6  H   UNL     1      -9.686  11.951  69.999  1.00  0.00     0.000 HD 
BRANCH   5   7
HETATM    7  C   UNL     1     -11.131  10.379  69.822  1.00  0.00    -0.295 C  
BRANCH   7   8
HETATM    8  C   UNL     1     -10.787   9.621  71.106  1.00  0.00    -0.404 C  
BRANCH   8   9
HETATM    9  C   UNL     1     -10.457   8.136  70.913  1.00  0.00    -0.229 C  
HETATM   10  C   UNL     1     -11.706   7.218  70.775  1.00  0.00    -0.333 C  
HETATM   11  C   UNL     1     -11.825   6.360  72.059  1.00  0.00    -0.382 C  
HETATM   12  C   UNL     1     -10.500   6.547  72.743  1.00  0.00    -0.240 A  
HETATM   13  C   UNL     1      -9.742   7.539  72.086  1.00  0.00    -0.204 A  
HETATM   14  C   UNL     1      -8.483   7.776  72.641  1.00  0.00    -0.182 A  
HETATM   15  C   UNL     1      -8.181   7.028  73.777  1.00  0.00    -0.127 A  
HETATM   16  O   UNL     1      -6.924   7.342  74.274  1.00  0.00    -0.093 OA 
HETATM   17  C   UNL     1      -8.945   6.072  74.420  1.00  0.00    -0.134 A  
HETATM   18  C   UNL     1     -10.174   5.809  73.869  1.00  0.00    -0.259 A  
HETATM   19  C   UNL     1      -6.381   8.358  73.391  1.00  0.00    -0.111 C  
HETATM   20  C   UNL     1      -7.388   8.680  72.280  1.00  0.00    -0.038 C  
ENDBRANCH   8   9
ENDBRANCH   7   8
ENDBRANCH   5   7
ENDBRANCH   2   3
TORSDOF 4
ENDMDL
MODEL      250
REMARK 921   NORMALIZED FREE ENERGY PREDICTED BY IDOCK:   -3.37 KCAL/MOL
REMARK 922        TOTAL FREE ENERGY PREDICTED BY IDOCK:   -4.36 KCAL/MOL
REMARK 923 INTER-LIGAND FREE ENERGY PREDICTED BY IDOCK:   -4.18 KCAL/MOL
REMARK 924 INTRA-LIGAND FREE ENERGY PREDICTED BY IDOCK:   -0.19 KCAL/MOL
REMARK 927      BINDING AFFINITY PREDICTED BY RF-SCORE:    0.00 PKD
ROOT
HETATM    1  C   UNL     1     -12.659  12.676  71.064  1.00  0.00    -0.354 C  
HETATM    2  C   UNL     1     -12.352  13.021  69.617  1.00  0.00    -0.104 C  
ENDROOT
BRANCH   2   3
HETATM    3  C   UNL     1     -11.624  11.895  68.911  1.00  0.00    -0.311 C  
HETATM    4  O   UNL     1     -12.064  11.311  67.926  1.00  0.00    -0.634 OA 
HETATM    5  N   UNL     1     -10.411  11.589  69.490  1.00  0.00    -0.419 N  
HETATM    6  H   UNL     1     -10.097  12.123  70.300  1.00  0.00     0.000 HD 
BRANCH   5   7
HETATM    7  C   UNL     1      -9.571  10.524  68.975  1.00  0.00    -0.202 C  
BRANCH   7   8
HETATM    8  C   UNL     1      -9.173  10.777  67.518  1.00  0.00    -0.150 C  
BRANCH   8   9
HETATM    9  C   UNL     1      -7.969  11.707  67.327  1.00  0.00    -0.157 C  
HETATM   10  C   UNL     1      -6.696  11.269  68.106  1.00  0.00    -0.058 C  
HETATM   11  C   UNL     1      -6.465  12.270  69.266  1.00  0.00    -0.109 C  
HETATM   12  C   UNL     1      -7.380  13.416  68.940  1.00  0.00    -0.033 A  
HETATM   13  C   UNL     1      -8.211  13.090  67.849  1.00  0.00    -0.166 A  
HETATM   14  C   UNL     1      -9.090  14.102  67.461  1.00  0.00    -0.195 A  
HETATM   15  C   UNL     1      -9.042  15.263  68.230  1.00  0.00    -0.181 A  
HETATM   16  O   UNL     1      -9.962  16.204  67.789  1.00  0.00    -0.231 OA 
HETATM   17  C   UNL     1      -8.233  15.560  69.311  1.00  0.00    -0.255 A  
HETATM   18  C   UNL     1      -7.344  14.584  69.686  1.00  0.00    -0.011 A  
HETATM   19  C   UNL     1     -10.643  15.606  66.655  1.00  0.00    -0.307 C  
HETATM   20  C   UNL     1     -10.092  14.199  66.396  1.00  0.00    -0.299 C  
ENDBRANCH   8   9
ENDBRANCH   7   8
ENDBRANCH   5   7
ENDBRANCH   2   3
TORSDOF 4
ENDMDL
MODEL      251
REMARK 921   NORMALIZED FREE ENERGY PREDICTED BY IDOCK:   -3.37 KCAL/MOL
REMARK 922        TOTAL FREE ENERGY PREDICTED BY IDOCK:   -4.36 KCAL/MOL
REMARK 923 INTER-LIGAND FREE ENERGY PREDICTED BY IDOCK:   -3.75 KCAL/MOL
REMARK 924 INTRA-LIGAND FREE ENERGY PREDICTED BY IDOCK:   -0.61 KCAL/MOL
REMARK 927      BINDING AFFINITY PREDICTED BY RF-SCORE:    0.00 PKD
ROOT
HETATM    1  C   UNL     1      -6.000   6.450  65.790  1.00  0.00    -0.029 C  
HETATM    2  C   UNL     1      -7.081   5.756  64.980  1.00  0.00    -0.064 C  
ENDROOT
BRANCH   2   3
HETATM    3  C   UNL     1      -8.300   5.438  65.822  1.00  0.00    -0.126 C  
HETATM    4  O   UNL     1      -9.326   4.937  65.374  1.00  0.00    -0.157 OA 
HETATM    5  N   UNL     1      -8.141   5.771  67.150  1.00  0.00    -0.102 N  
HETATM    6  H   UNL     1      -7.256   6.171  67.460  1.00  0.00     0.000 HD 
BRANCH   5   7
HETATM    7  C   UNL     1      -9.203   5.565  68.117  1.00  0.00    -0.109 C  
BRANCH   7   8
HETATM    8  C   UNL     1     -10.048   6.828  68.300  1.00  0.00    -0.173 C  
BRANCH   8   9
HETATM    9  C   UNL     1      -9.261   8.082  68.700  1.00  0.00    -0.143 C  
HETATM   10  C   UNL     1      -9.277   8.384  70.227  1.00  0.00    -0.154 C  
HETATM   11  C   UNL     1     -10.148   9.641  70.466  1.00  0.00    -0.338 C  
HETATM   12  C   UNL     1     -10.334  10.218  69.091  1.00  0.00    -0.241 A  
HETATM   13  C   UNL     1      -9.826   9.338  68.114  1.00  0.00    -0.185 A  
HETATM   14  C   UNL     1      -9.941   9.794  66.800  1.00  0.00    -0.278 A  
HETATM   15  C   UNL     1     -10.571  11.028  66.649  1.00  0.00    -0.262 A  
HETATM   16  O   UNL     1     -10.661  11.393  65.313  1.00  0.00    -0.287 OA 
HETATM   17  C   UNL     1     -11.081  11.871  67.618  1.00  0.00    -0.314 A  
HETATM   18  C   UNL     1     -10.950  11.448  68.917  1.00  0.00    -0.276 A  
HETATM   19  C   UNL     1     -10.041  10.321  64.556  1.00  0.00    -0.216 C  
HETATM   20  C   UNL     1      -9.541   9.229  65.508  1.00  0.00    -0.291 C  
ENDBRANCH   8   9
ENDBRANCH   7   8
ENDBRANCH   5   7
ENDBRANCH   2   3
TORSDOF 4
ENDMDL
MODEL      252
REMARK 921   NORMALIZED FREE ENERGY PREDICTED BY IDOCK:   -3.37 KCAL/MOL
REMARK 922        TOTAL FREE ENERGY PREDICTED BY IDOCK:   -4.36 KCAL/MOL
REMARK 923 INTER-LIGAND FREE ENERGY PREDICTED BY IDOCK:   -3.89 KCAL/MOL
REMARK 924 INTRA-LIGAND FREE ENERGY PREDICTED BY IDOCK:   -0.46 KCAL/MOL
REMARK 927      BINDING AFFINITY PREDICTED BY RF-SCORE:    0.00 PKD
ROOT
HETATM    1  C   UNL     1     -11.760  14.575  64.449  1.00  0.00    -0.381 C  
HETATM    2  C   UNL     1     -11.937  13.136  64.901  1.00  0.00    -0.431 C  
ENDROOT
BRANCH   2   3
HETATM    3  C   UNL     1     -11.423  12.920  66.310  1.00  0.00    -0.348 C  
HETATM    4  O   UNL     1     -12.120  13.027  67.314  1.00  0.00    -0.348 OA 
HETATM    5  N   UNL     1     -10.085  12.590  66.353  1.00  0.00    -0.238 N  
HETATM    6  H   UNL     1      -9.566  12.504  65.479  1.00  0.00     0.000 HD 
BRANCH   5   7
HETATM    7  C   UNL     1      -9.398  12.365  67.611  1.00  0.00    -0.188 C  
BRANCH   7   8
HETATM    8  C   UNL     1      -9.199  10.872  67.882  1.00  0.00    -0.152 C  
BRANCH   8   9
HETATM    9  C   UNL     1      -9.973   9.934  66.948  1.00  0.00    -0.268 C  
HETATM   10  C   UNL     1     -10.876   8.904  67.685  1.00  0.00    -0.112 C  
HETATM   11  C   UNL     1     -10.248   7.498  67.519  1.00  0.00    -0.288 C  
HETATM   12  C   UNL     1      -9.216   7.689  66.443  1.00  0.00    -0.223 A  
HETATM   13  C   UNL     1      -9.079   9.056  66.128  1.00  0.00    -0.246 A  
HETATM   14  C   UNL     1      -8.149   9.335  65.125  1.00  0.00    -0.124 A  
HETATM   15  C   UNL     1      -7.472   8.228  64.615  1.00  0.00    -0.099 A  
HETATM   16  O   UNL     1      -6.555   8.598  63.641  1.00  0.00    -0.086 OA 
HETATM   17  C   UNL     1      -7.607   6.894  64.948  1.00  0.00    -0.106 A  
HETATM   18  C   UNL     1      -8.537   6.603  65.914  1.00  0.00    -0.153 A  
HETATM   19  C   UNL     1      -6.654  10.041  63.516  1.00  0.00    -0.132 C  
HETATM   20  C   UNL     1      -7.710  10.579  64.488  1.00  0.00     0.031 C  
ENDBRANCH   8   9
ENDBRANCH   7   8
ENDBRANCH   5   7
ENDBRANCH   2   3
TORSDOF 4
ENDMDL
MODEL      253
REMARK 921   NORMALIZED FREE ENERGY PREDICTED BY IDOCK:   -3.36 KCAL/MOL
REMARK 922        TOTAL FREE ENERGY PREDICTED BY IDOCK:   -4.35 KCAL/MOL
REMARK 923 INTER-LIGAND FREE ENERGY PREDICTED BY IDOCK:   -4.01 KCAL/MOL
REMARK 924 INTRA-LIGAND FREE ENERGY PREDICTED BY IDOCK:   -0.33 KCAL/MOL
REMARK 927      BINDING AFFINITY PREDICTED BY RF-SCORE:    0.00 PKD
ROOT
HETATM    1  C   UNL     1      -5.128   9.761  70.013  1.00  0.00    -0.033 C  
HETATM    2  C   UNL     1      -6.312  10.710  70.074  1.00  0.00    -0.126 C  
ENDROOT
BRANCH   2   3
HETATM    3  C   UNL     1      -6.333  11.662  68.895  1.00  0.00    -0.062 C  
HETATM    4  O   UNL     1      -5.378  11.842  68.147  1.00  0.00    -0.043 OA 
HETATM    5  N   UNL     1      -7.540  12.311  68.746  1.00  0.00    -0.253 N  
HETATM    6  H   UNL     1      -8.299  12.105  69.394  1.00  0.00     0.000 HD 
BRANCH   5   7
HETATM    7  C   UNL     1      -7.755  13.281  67.688  1.00  0.00    -0.171 C  
BRANCH   7   8
HETATM    8  C   UNL     1      -8.716  12.747  66.623  1.00  0.00    -0.065 C  
BRANCH   8   9
HETATM    9  C   UNL     1     -10.199  13.033  66.887  1.00  0.00    -0.244 C  
HETATM   10  C   UNL     1     -11.132  11.805  66.679  1.00  0.00    -0.364 C  
HETATM   11  C   UNL     1     -11.978  12.045  65.405  1.00  0.00    -0.184 C  
HETATM   12  C   UNL     1     -11.769  13.502  65.102  1.00  0.00    -0.341 A  
HETATM   13  C   UNL     1     -10.776  14.043  65.945  1.00  0.00    -0.293 A  
HETATM   14  C   UNL     1     -10.520  15.401  65.748  1.00  0.00    -0.371 A  
HETATM   15  C   UNL     1     -11.253  16.006  64.728  1.00  0.00    -0.339 A  
HETATM   16  O   UNL     1     -10.919  17.346  64.588  1.00  0.00    -0.959 OA 
HETATM   17  C   UNL     1     -12.210  15.455  63.898  1.00  0.00     0.188 A  
HETATM   18  C   UNL     1     -12.492  14.127  64.098  1.00  0.00    -0.267 A  
HETATM   19  C   UNL     1      -9.907  17.620  65.592  1.00  0.00     0.222 C  
HETATM   20  C   UNL     1      -9.608  16.348  66.394  1.00  0.00    -0.313 C  
ENDBRANCH   8   9
ENDBRANCH   7   8
ENDBRANCH   5   7
ENDBRANCH   2   3
TORSDOF 4
ENDMDL
MODEL      254
REMARK 921   NORMALIZED FREE ENERGY PREDICTED BY IDOCK:   -3.35 KCAL/MOL
REMARK 922        TOTAL FREE ENERGY PREDICTED BY IDOCK:   -4.33 KCAL/MOL
REMARK 923 INTER-LIGAND FREE ENERGY PREDICTED BY IDOCK:   -3.94 KCAL/MOL
REMARK 924 INTRA-LIGAND FREE ENERGY PREDICTED BY IDOCK:   -0.39 KCAL/MOL
REMARK 927      BINDING AFFINITY PREDICTED BY RF-SCORE:    0.00 PKD
ROOT
HETATM    1  C   UNL     1     -10.329  11.625  63.700  1.00  0.00    -0.466 C  
HETATM    2  C   UNL     1     -10.255  12.443  64.978  1.00  0.00    -0.306 C  
ENDROOT
BRANCH   2   3
HETATM    3  C   UNL     1     -10.951  11.750  66.132  1.00  0.00    -0.307 C  
HETATM    4  O   UNL     1     -12.065  12.058  66.541  1.00  0.00    -0.617 OA 
HETATM    5  N   UNL     1     -10.201  10.732  66.683  1.00  0.00    -0.225 N  
HETATM    6  H   UNL     1      -9.286  10.518  66.286  1.00  0.00     0.000 HD 
BRANCH   5   7
HETATM    7  C   UNL     1     -10.682   9.960  67.813  1.00  0.00    -0.277 C  
BRANCH   7   8
HETATM    8  C   UNL     1     -10.642   8.458  67.525  1.00  0.00    -0.285 C  
BRANCH   8   9
HETATM    9  C   UNL     1     -10.140   7.588  68.684  1.00  0.00    -0.194 C  
HETATM   10  C   UNL     1     -11.001   7.691  69.976  1.00  0.00    -0.237 C  
HETATM   11  C   UNL     1     -10.183   8.455  71.047  1.00  0.00    -0.245 C  
HETATM   12  C   UNL     1      -8.789   8.480  70.486  1.00  0.00    -0.168 A  
HETATM   13  C   UNL     1      -8.779   7.985  69.166  1.00  0.00    -0.137 A  
HETATM   14  C   UNL     1      -7.522   7.956  68.562  1.00  0.00    -0.096 A  
HETATM   15  C   UNL     1      -6.475   8.452  69.337  1.00  0.00    -0.038 A  
HETATM   16  O   UNL     1      -5.269   8.406  68.652  1.00  0.00    -0.031 OA 
HETATM   17  C   UNL     1      -6.505   8.952  70.625  1.00  0.00    -0.048 A  
HETATM   18  C   UNL     1      -7.732   8.961  71.242  1.00  0.00    -0.145 A  
HETATM   19  C   UNL     1      -5.562   7.834  67.351  1.00  0.00    -0.036 C  
HETATM   20  C   UNL     1      -7.058   7.515  67.244  1.00  0.00    -0.085 C  
ENDBRANCH   8   9
ENDBRANCH   7   8
ENDBRANCH   5   7
ENDBRANCH   2   3
TORSDOF 4
ENDMDL
MODEL      255
REMARK 921   NORMALIZED FREE ENERGY PREDICTED BY IDOCK:   -3.33 KCAL/MOL
REMARK 922        TOTAL FREE ENERGY PREDICTED BY IDOCK:   -4.31 KCAL/MOL
REMARK 923 INTER-LIGAND FREE ENERGY PREDICTED BY IDOCK:   -3.86 KCAL/MOL
REMARK 924 INTRA-LIGAND FREE ENERGY PREDICTED BY IDOCK:   -0.45 KCAL/MOL
REMARK 927      BINDING AFFINITY PREDICTED BY RF-SCORE:    0.00 PKD
ROOT
HETATM    1  C   UNL     1     -14.393   8.420  72.124  1.00  0.00    -0.520 C  
HETATM    2  C   UNL     1     -13.133   9.144  72.565  1.00  0.00    -0.445 C  
ENDROOT
BRANCH   2   3
HETATM    3  C   UNL     1     -12.465   9.867  71.413  1.00  0.00    -0.398 C  
HETATM    4  O   UNL     1     -13.062  10.595  70.627  1.00  0.00    -0.318 OA 
HETATM    5  N   UNL     1     -11.111   9.623  71.334  1.00  0.00    -0.365 N  
HETATM    6  H   UNL     1     -10.673   9.018  72.028  1.00  0.00     0.000 HD 
BRANCH   5   7
HETATM    7  C   UNL     1     -10.294  10.205  70.286  1.00  0.00    -0.174 C  
BRANCH   7   8
HETATM    8  C   UNL     1      -8.829   9.782  70.415  1.00  0.00    -0.125 C  
BRANCH   8   9
HETATM    9  C   UNL     1      -8.602   8.430  71.102  1.00  0.00    -0.187 C  
HETATM   10  C   UNL     1      -7.299   8.356  71.949  1.00  0.00    -0.118 C  
HETATM   11  C   UNL     1      -6.298   7.424  71.222  1.00  0.00    -0.036 C  
HETATM   12  C   UNL     1      -7.136   6.735  70.182  1.00  0.00    -0.071 A  
HETATM   13  C   UNL     1      -8.425   7.304  70.132  1.00  0.00    -0.138 A  
HETATM   14  C   UNL     1      -9.285   6.719  69.201  1.00  0.00    -0.137 A  
HETATM   15  C   UNL     1      -8.732   5.692  68.439  1.00  0.00    -0.109 A  
HETATM   16  O   UNL     1      -9.648   5.184  67.528  1.00  0.00    -0.127 OA 
HETATM   17  C   UNL     1      -7.458   5.158  68.489  1.00  0.00    -0.074 A  
HETATM   18  C   UNL     1      -6.609   5.705  69.419  1.00  0.00    -0.054 A  
HETATM   19  C   UNL     1     -10.874   5.936  67.723  1.00  0.00    -0.235 C  
HETATM   20  C   UNL     1     -10.681   6.974  68.835  1.00  0.00    -0.227 C  
ENDBRANCH   8   9
ENDBRANCH   7   8
ENDBRANCH   5   7
ENDBRANCH   2   3
TORSDOF 4
ENDMDL
MODEL      256
REMARK 921   NORMALIZED FREE ENERGY PREDICTED BY IDOCK:   -3.33 KCAL/MOL
REMARK 922        TOTAL FREE ENERGY PREDICTED BY IDOCK:   -4.31 KCAL/MOL
REMARK 923 INTER-LIGAND FREE ENERGY PREDICTED BY IDOCK:   -3.99 KCAL/MOL
REMARK 924 INTRA-LIGAND FREE ENERGY PREDICTED BY IDOCK:   -0.31 KCAL/MOL
REMARK 927      BINDING AFFINITY PREDICTED BY RF-SCORE:    0.00 PKD
ROOT
HETATM    1  C   UNL     1      -7.317   2.516  66.951  1.00  0.00    -0.061 C  
HETATM    2  C   UNL     1      -8.104   2.342  65.664  1.00  0.00    -0.084 C  
ENDROOT
BRANCH   2   3
HETATM    3  C   UNL     1      -8.991   3.538  65.379  1.00  0.00    -0.139 C  
HETATM    4  O   UNL     1      -9.137   4.028  64.265  1.00  0.00    -0.130 OA 
HETATM    5  N   UNL     1      -9.620   4.024  66.505  1.00  0.00    -0.201 N  
HETATM    6  H   UNL     1      -9.466   3.561  67.401  1.00  0.00     0.000 HD 
BRANCH   5   7
HETATM    7  C   UNL     1     -10.495   5.180  66.447  1.00  0.00    -0.303 C  
BRANCH   7   8
HETATM    8  C   UNL     1     -10.748   5.764  67.839  1.00  0.00    -0.295 C  
BRANCH   8   9
HETATM    9  C   UNL     1     -10.691   7.294  67.920  1.00  0.00    -0.239 C  
HETATM   10  C   UNL     1      -9.537   7.933  67.095  1.00  0.00    -0.222 C  
HETATM   11  C   UNL     1      -8.480   8.487  68.082  1.00  0.00    -0.134 C  
HETATM   12  C   UNL     1      -9.179   8.460  69.412  1.00  0.00    -0.154 A  
HETATM   13  C   UNL     1     -10.419   7.796  69.304  1.00  0.00    -0.221 A  
HETATM   14  C   UNL     1     -11.152   7.732  70.490  1.00  0.00    -0.265 A  
HETATM   15  C   UNL     1     -10.536   8.297  71.604  1.00  0.00    -0.242 A  
HETATM   16  O   UNL     1     -11.324   8.170  72.740  1.00  0.00    -0.397 OA 
HETATM   17  C   UNL     1      -9.310   8.929  71.696  1.00  0.00    -0.328 A  
HETATM   18  C   UNL     1      -8.590   9.024  70.532  1.00  0.00    -0.229 A  
HETATM   19  C   UNL     1     -12.530   7.480  72.323  1.00  0.00    -0.115 C  
HETATM   20  C   UNL     1     -12.463   7.167  70.823  1.00  0.00    -0.232 C  
ENDBRANCH   8   9
ENDBRANCH   7   8
ENDBRANCH   5   7
ENDBRANCH   2   3
TORSDOF 4
ENDMDL
MODEL      257
REMARK 921   NORMALIZED FREE ENERGY PREDICTED BY IDOCK:   -3.31 KCAL/MOL
REMARK 922        TOTAL FREE ENERGY PREDICTED BY IDOCK:   -4.29 KCAL/MOL
REMARK 923 INTER-LIGAND FREE ENERGY PREDICTED BY IDOCK:   -3.97 KCAL/MOL
REMARK 924 INTRA-LIGAND FREE ENERGY PREDICTED BY IDOCK:   -0.33 KCAL/MOL
REMARK 927      BINDING AFFINITY PREDICTED BY RF-SCORE:    0.00 PKD
ROOT
HETATM    1  C   UNL     1      -6.482   8.786  69.789  1.00  0.00    -0.038 C  
HETATM    2  C   UNL     1      -6.778  10.088  70.512  1.00  0.00    -0.118 C  
ENDROOT
BRANCH   2   3
HETATM    3  C   UNL     1      -6.457  11.295  69.653  1.00  0.00    -0.132 C  
HETATM    4  O   UNL     1      -5.796  12.252  70.043  1.00  0.00    -0.124 OA 
HETATM    5  N   UNL     1      -6.985  11.211  68.383  1.00  0.00    -0.069 N  
HETATM    6  H   UNL     1      -7.513  10.380  68.117  1.00  0.00     0.000 HD 
BRANCH   5   7
HETATM    7  C   UNL     1      -6.807  12.276  67.414  1.00  0.00    -0.145 C  
BRANCH   7   8
HETATM    8  C   UNL     1      -7.618  13.518  67.791  1.00  0.00    -0.163 C  
BRANCH   8   9
HETATM    9  C   UNL     1      -8.947  13.677  67.042  1.00  0.00    -0.244 C  
HETATM   10  C   UNL     1      -9.124  15.057  66.345  1.00  0.00    -0.312 C  
HETATM   11  C   UNL     1     -10.206  15.855  67.114  1.00  0.00    -0.278 C  
HETATM   12  C   UNL     1     -10.850  14.829  68.002  1.00  0.00    -0.261 A  
HETATM   13  C   UNL     1     -10.139  13.612  67.945  1.00  0.00    -0.244 A  
HETATM   14  C   UNL     1     -10.670  12.587  68.730  1.00  0.00    -0.235 A  
HETATM   15  C   UNL     1     -11.796  12.930  69.476  1.00  0.00    -0.320 A  
HETATM   16  O   UNL     1     -12.244  11.861  70.241  1.00  0.00    -0.309 OA 
HETATM   17  C   UNL     1     -12.471  14.134  69.534  1.00  0.00    -0.165 A  
HETATM   18  C   UNL     1     -11.975  15.143  68.747  1.00  0.00    -0.280 A  
HETATM   19  C   UNL     1     -11.345  10.756  69.960  1.00  0.00    -0.319 C  
HETATM   20  C   UNL     1     -10.276  11.194  68.952  1.00  0.00    -0.209 C  
ENDBRANCH   8   9
ENDBRANCH   7   8
ENDBRANCH   5   7
ENDBRANCH   2   3
TORSDOF 4
ENDMDL
MODEL      258
REMARK 921   NORMALIZED FREE ENERGY PREDICTED BY IDOCK:   -3.31 KCAL/MOL
REMARK 922        TOTAL FREE ENERGY PREDICTED BY IDOCK:   -4.28 KCAL/MOL
REMARK 923 INTER-LIGAND FREE ENERGY PREDICTED BY IDOCK:   -3.80 KCAL/MOL
REMARK 924 INTRA-LIGAND FREE ENERGY PREDICTED BY IDOCK:   -0.48 KCAL/MOL
REMARK 927      BINDING AFFINITY PREDICTED BY RF-SCORE:    0.00 PKD
ROOT
HETATM    1  C   UNL     1     -12.245  14.393  64.387  1.00  0.00    -0.481 C  
HETATM    2  C   UNL     1     -12.201  13.624  65.696  1.00  0.00    -0.490 C  
ENDROOT
BRANCH   2   3
HETATM    3  C   UNL     1     -11.451  12.315  65.556  1.00  0.00    -0.361 C  
HETATM    4  O   UNL     1     -11.332  11.497  66.462  1.00  0.00    -0.330 OA 
HETATM    5  N   UNL     1     -10.910  12.133  64.301  1.00  0.00    -0.314 N  
HETATM    6  H   UNL     1     -11.058  12.846  63.587  1.00  0.00     0.000 HD 
BRANCH   5   7
HETATM    7  C   UNL     1     -10.135  10.952  63.971  1.00  0.00    -0.358 C  
BRANCH   7   8
HETATM    8  C   UNL     1      -8.740  11.003  64.598  1.00  0.00     0.045 C  
BRANCH   8   9
HETATM    9  C   UNL     1      -8.308   9.723  65.325  1.00  0.00    -0.146 C  
HETATM   10  C   UNL     1      -9.387   8.602  65.336  1.00  0.00    -0.022 C  
HETATM   11  C   UNL     1      -9.932   8.465  66.779  1.00  0.00    -0.354 C  
HETATM   12  C   UNL     1      -8.953   9.246  67.610  1.00  0.00    -0.126 A  
HETATM   13  C   UNL     1      -8.045   9.939  66.783  1.00  0.00    -0.117 A  
HETATM   14  C   UNL     1      -7.084  10.685  67.466  1.00  0.00    -0.089 A  
HETATM   15  C   UNL     1      -7.189  10.664  68.856  1.00  0.00    -0.090 A  
HETATM   16  O   UNL     1      -6.210  11.447  69.451  1.00  0.00    -0.070 OA 
HETATM   17  C   UNL     1      -8.097   9.993  69.652  1.00  0.00    -0.180 A  
HETATM   18  C   UNL     1      -9.032   9.233  68.994  1.00  0.00    -0.140 A  
HETATM   19  C   UNL     1      -5.421  12.005  68.368  1.00  0.00    -0.053 C  
HETATM   20  C   UNL     1      -5.967  11.521  67.019  1.00  0.00    -0.125 C  
ENDBRANCH   8   9
ENDBRANCH   7   8
ENDBRANCH   5   7
ENDBRANCH   2   3
TORSDOF 4
ENDMDL
MODEL      259
REMARK 921   NORMALIZED FREE ENERGY PREDICTED BY IDOCK:   -3.30 KCAL/MOL
REMARK 922        TOTAL FREE ENERGY PREDICTED BY IDOCK:   -4.27 KCAL/MOL
REMARK 923 INTER-LIGAND FREE ENERGY PREDICTED BY IDOCK:   -3.67 KCAL/MOL
REMARK 924 INTRA-LIGAND FREE ENERGY PREDICTED BY IDOCK:   -0.60 KCAL/MOL
REMARK 927      BINDING AFFINITY PREDICTED BY RF-SCORE:    0.00 PKD
ROOT
HETATM    1  C   UNL     1     -12.695   7.967  71.493  1.00  0.00    -0.325 C  
HETATM    2  C   UNL     1     -13.221   9.347  71.847  1.00  0.00    -0.507 C  
ENDROOT
BRANCH   2   3
HETATM    3  C   UNL     1     -12.507  10.438  71.074  1.00  0.00    -0.388 C  
HETATM    4  O   UNL     1     -12.414  11.598  71.461  1.00  0.00    -0.253 OA 
HETATM    5  N   UNL     1     -11.970   9.995  69.885  1.00  0.00    -0.467 N  
HETATM    6  H   UNL     1     -12.071   9.013  69.628  1.00  0.00     0.000 HD 
BRANCH   5   7
HETATM    7  C   UNL     1     -11.265  10.892  68.988  1.00  0.00    -0.266 C  
BRANCH   7   8
HETATM    8  C   UNL     1      -9.750  10.700  69.078  1.00  0.00    -0.214 C  
BRANCH   8   9
HETATM    9  C   UNL     1      -9.299   9.316  69.561  1.00  0.00    -0.177 C  
HETATM   10  C   UNL     1      -8.605   9.322  70.954  1.00  0.00    -0.220 C  
HETATM   11  C   UNL     1      -7.098   9.027  70.749  1.00  0.00    -0.092 C  
HETATM   12  C   UNL     1      -7.016   8.539  69.330  1.00  0.00    -0.054 A  
HETATM   13  C   UNL     1      -8.257   8.699  68.680  1.00  0.00    -0.121 A  
HETATM   14  C   UNL     1      -8.285   8.259  67.356  1.00  0.00    -0.121 A  
HETATM   15  C   UNL     1      -7.078   7.765  66.866  1.00  0.00    -0.081 A  
HETATM   16  O   UNL     1      -7.191   7.371  65.539  1.00  0.00    -0.063 OA 
HETATM   17  C   UNL     1      -5.864   7.631  67.512  1.00  0.00    -0.036 A  
HETATM   18  C   UNL     1      -5.829   8.035  68.823  1.00  0.00    -0.035 A  
HETATM   19  C   UNL     1      -8.567   7.627  65.155  1.00  0.00     0.023 C  
HETATM   20  C   UNL     1      -9.340   8.220  66.339  1.00  0.00    -0.274 C  
ENDBRANCH   8   9
ENDBRANCH   7   8
ENDBRANCH   5   7
ENDBRANCH   2   3
TORSDOF 4
ENDMDL
MODEL      260
REMARK 921   NORMALIZED FREE ENERGY PREDICTED BY IDOCK:   -3.29 KCAL/MOL
REMARK 922        TOTAL FREE ENERGY PREDICTED BY IDOCK:   -4.26 KCAL/MOL
REMARK 923 INTER-LIGAND FREE ENERGY PREDICTED BY IDOCK:   -3.96 KCAL/MOL
REMARK 924 INTRA-LIGAND FREE ENERGY PREDICTED BY IDOCK:   -0.31 KCAL/MOL
REMARK 927      BINDING AFFINITY PREDICTED BY RF-SCORE:    0.00 PKD
ROOT
HETATM    1  C   UNL     1      -6.087   6.825  64.360  1.00  0.00    -0.035 C  
HETATM    2  C   UNL     1      -7.028   7.049  65.532  1.00  0.00    -0.056 C  
ENDROOT
BRANCH   2   3
HETATM    3  C   UNL     1      -8.042   8.136  65.240  1.00  0.00    -0.136 C  
HETATM    4  O   UNL     1      -8.539   8.326  64.135  1.00  0.00    -0.028 OA 
HETATM    5  N   UNL     1      -8.352   8.897  66.347  1.00  0.00    -0.113 N  
HETATM    6  H   UNL     1      -7.913   8.677  67.241  1.00  0.00     0.000 HD 
BRANCH   5   7
HETATM    7  C   UNL     1      -9.287  10.003  66.271  1.00  0.00    -0.168 C  
BRANCH   7   8
HETATM    8  C   UNL     1     -10.477   9.799  67.212  1.00  0.00    -0.324 C  
BRANCH   8   9
HETATM    9  C   UNL     1     -10.170  10.004  68.700  1.00  0.00    -0.198 C  
HETATM   10  C   UNL     1     -10.350   8.727  69.570  1.00  0.00    -0.213 C  
HETATM   11  C   UNL     1     -11.599   8.919  70.465  1.00  0.00    -0.189 C  
HETATM   12  C   UNL     1     -11.907  10.384  70.344  1.00  0.00    -0.418 A  
HETATM   13  C   UNL     1     -11.094  10.980  69.359  1.00  0.00    -0.320 A  
HETATM   14  C   UNL     1     -11.298  12.350  69.183  1.00  0.00    -0.327 A  
HETATM   15  C   UNL     1     -12.296  12.912  69.977  1.00  0.00    -0.129 A  
HETATM   16  O   UNL     1     -12.445  14.268  69.722  1.00  0.00    -0.323 OA 
HETATM   17  C   UNL     1     -13.097  12.309  70.927  1.00  0.00     0.084 A  
HETATM   18  C   UNL     1     -12.889  10.967  71.130  1.00  0.00    -0.491 A  
HETATM   19  C   UNL     1     -11.472  14.598  68.696  1.00  0.00    -0.300 C  
HETATM   20  C   UNL     1     -10.678  13.346  68.305  1.00  0.00    -0.273 C  
ENDBRANCH   8   9
ENDBRANCH   7   8
ENDBRANCH   5   7
ENDBRANCH   2   3
TORSDOF 4
ENDMDL
MODEL      261
REMARK 921   NORMALIZED FREE ENERGY PREDICTED BY IDOCK:   -3.28 KCAL/MOL
REMARK 922        TOTAL FREE ENERGY PREDICTED BY IDOCK:   -4.25 KCAL/MOL
REMARK 923 INTER-LIGAND FREE ENERGY PREDICTED BY IDOCK:   -3.90 KCAL/MOL
REMARK 924 INTRA-LIGAND FREE ENERGY PREDICTED BY IDOCK:   -0.35 KCAL/MOL
REMARK 927      BINDING AFFINITY PREDICTED BY RF-SCORE:    0.00 PKD
ROOT
HETATM    1  C   UNL     1      -5.182  14.620  71.268  1.00  0.00    -0.143 C  
HETATM    2  C   UNL     1      -5.685  13.403  70.510  1.00  0.00    -0.175 C  
ENDROOT
BRANCH   2   3
HETATM    3  C   UNL     1      -6.326  13.785  69.191  1.00  0.00    -0.105 C  
HETATM    4  O   UNL     1      -5.771  13.668  68.104  1.00  0.00    -0.095 OA 
HETATM    5  N   UNL     1      -7.604  14.283  69.335  1.00  0.00    -0.343 N  
HETATM    6  H   UNL     1      -8.013  14.342  70.268  1.00  0.00     0.000 HD 
BRANCH   5   7
HETATM    7  C   UNL     1      -8.379  14.727  68.192  1.00  0.00    -0.144 C  
BRANCH   7   8
HETATM    8  C   UNL     1      -9.284  15.908  68.552  1.00  0.00    -0.200 C  
BRANCH   8   9
HETATM    9  C   UNL     1     -10.777  15.573  68.655  1.00  0.00    -0.252 C  
HETATM   10  C   UNL     1     -11.130  14.583  69.803  1.00  0.00    -0.239 C  
HETATM   11  C   UNL     1     -11.531  13.227  69.172  1.00  0.00    -0.357 C  
HETATM   12  C   UNL     1     -11.722  13.549  67.716  1.00  0.00    -0.394 A  
HETATM   13  C   UNL     1     -11.303  14.868  67.444  1.00  0.00    -0.354 A  
HETATM   14  C   UNL     1     -11.456  15.267  66.115  1.00  0.00    -0.083 A  
HETATM   15  C   UNL     1     -11.961  14.294  65.254  1.00  0.00    -0.389 A  
HETATM   16  O   UNL     1     -12.059  14.768  63.953  1.00  0.00    -0.480 OA 
HETATM   17  C   UNL     1     -12.351  12.999  65.535  1.00  0.00    -0.527 A  
HETATM   18  C   UNL     1     -12.232  12.601  66.843  1.00  0.00    -0.034 A  
HETATM   19  C   UNL     1     -11.588  16.141  63.984  1.00  0.00     0.293 C  
HETATM   20  C   UNL     1     -11.175  16.521  65.411  1.00  0.00     0.121 C  
ENDBRANCH   8   9
ENDBRANCH   7   8
ENDBRANCH   5   7
ENDBRANCH   2   3
TORSDOF 4
ENDMDL
MODEL      262
REMARK 921   NORMALIZED FREE ENERGY PREDICTED BY IDOCK:   -3.27 KCAL/MOL
REMARK 922        TOTAL FREE ENERGY PREDICTED BY IDOCK:   -4.23 KCAL/MOL
REMARK 923 INTER-LIGAND FREE ENERGY PREDICTED BY IDOCK:   -4.02 KCAL/MOL
REMARK 924 INTRA-LIGAND FREE ENERGY PREDICTED BY IDOCK:   -0.21 KCAL/MOL
REMARK 927      BINDING AFFINITY PREDICTED BY RF-SCORE:    0.00 PKD
ROOT
HETATM    1  C   UNL     1     -12.469  13.143  70.506  1.00  0.00    -0.322 C  
HETATM    2  C   UNL     1     -12.249  14.571  70.973  1.00  0.00    -0.407 C  
ENDROOT
BRANCH   2   3
HETATM    3  C   UNL     1     -11.268  15.310  70.085  1.00  0.00    -0.291 C  
HETATM    4  O   UNL     1     -10.304  15.938  70.509  1.00  0.00    -0.125 OA 
HETATM    5  N   UNL     1     -11.570  15.207  68.744  1.00  0.00    -0.333 N  
HETATM    6  H   UNL     1     -12.380  14.657  68.457  1.00  0.00     0.000 HD 
BRANCH   5   7
HETATM    7  C   UNL     1     -10.764  15.863  67.731  1.00  0.00    -0.320 C  
BRANCH   7   8
HETATM    8  C   UNL     1     -10.093  14.847  66.803  1.00  0.00    -0.254 C  
BRANCH   8   9
HETATM    9  C   UNL     1      -8.571  14.988  66.682  1.00  0.00    -0.246 C  
HETATM   10  C   UNL     1      -7.766  13.936  67.499  1.00  0.00    -0.192 C  
HETATM   11  C   UNL     1      -7.089  14.658  68.689  1.00  0.00    -0.115 C  
HETATM   12  C   UNL     1      -7.232  16.116  68.357  1.00  0.00    -0.135 A  
HETATM   13  C   UNL     1      -8.058  16.285  67.226  1.00  0.00    -0.203 A  
HETATM   14  C   UNL     1      -8.241  17.611  66.829  1.00  0.00    -0.270 A  
HETATM   15  C   UNL     1      -7.614  18.565  67.627  1.00  0.00    -0.230 A  
HETATM   16  O   UNL     1      -7.866  19.853  67.173  1.00  0.00    -0.267 OA 
HETATM   17  C   UNL     1      -6.822  18.383  68.745  1.00  0.00    -0.283 A  
HETATM   18  C   UNL     1      -6.611  17.083  69.131  1.00  0.00    -0.230 A  
HETATM   19  C   UNL     1      -8.709  19.712  66.000  1.00  0.00    -0.240 C  
HETATM   20  C   UNL     1      -8.985  18.229  65.728  1.00  0.00     0.441 C  
ENDBRANCH   8   9
ENDBRANCH   7   8
ENDBRANCH   5   7
ENDBRANCH   2   3
TORSDOF 4
ENDMDL
MODEL      263
REMARK 921   NORMALIZED FREE ENERGY PREDICTED BY IDOCK:   -3.24 KCAL/MOL
REMARK 922        TOTAL FREE ENERGY PREDICTED BY IDOCK:   -4.21 KCAL/MOL
REMARK 923 INTER-LIGAND FREE ENERGY PREDICTED BY IDOCK:   -4.18 KCAL/MOL
REMARK 924 INTRA-LIGAND FREE ENERGY PREDICTED BY IDOCK:   -0.02 KCAL/MOL
REMARK 927      BINDING AFFINITY PREDICTED BY RF-SCORE:    0.00 PKD
ROOT
HETATM    1  C   UNL     1      -6.694   7.973  70.580  1.00  0.00    -0.037 C  
HETATM    2  C   UNL     1      -7.985   8.295  71.313  1.00  0.00    -0.125 C  
ENDROOT
BRANCH   2   3
HETATM    3  C   UNL     1      -8.788   9.363  70.598  1.00  0.00    -0.220 C  
HETATM    4  O   UNL     1      -9.777   9.907  71.077  1.00  0.00     0.028 OA 
HETATM    5  N   UNL     1      -8.293   9.665  69.347  1.00  0.00    -0.132 N  
HETATM    6  H   UNL     1      -7.457   9.185  69.013  1.00  0.00     0.000 HD 
BRANCH   5   7
HETATM    7  C   UNL     1      -8.935  10.647  68.493  1.00  0.00    -0.156 C  
BRANCH   7   8
HETATM    8  C   UNL     1     -10.385  10.263  68.188  1.00  0.00    -0.208 C  
BRANCH   8   9
HETATM    9  C   UNL     1     -10.567   9.306  67.004  1.00  0.00    -0.263 C  
HETATM   10  C   UNL     1      -9.877   7.924  67.190  1.00  0.00    -0.273 C  
HETATM   11  C   UNL     1      -8.665   7.851  66.228  1.00  0.00    -0.174 C  
HETATM   12  C   UNL     1      -8.871   9.013  65.298  1.00  0.00    -0.234 A  
HETATM   13  C   UNL     1      -9.944   9.814  65.740  1.00  0.00    -0.349 A  
HETATM   14  C   UNL     1     -10.223  10.916  64.930  1.00  0.00    -0.381 A  
HETATM   15  C   UNL     1      -9.381  11.078  63.832  1.00  0.00    -0.211 A  
HETATM   16  O   UNL     1      -9.716  12.206  63.096  1.00  0.00    -0.379 OA 
HETATM   17  C   UNL     1      -8.321  10.292  63.422  1.00  0.00    -0.169 A  
HETATM   18  C   UNL     1      -8.051   9.190  64.195  1.00  0.00    -0.149 A  
HETATM   19  C   UNL     1     -10.856  12.804  63.767  1.00  0.00    -0.378 C  
HETATM   20  C   UNL     1     -11.234  11.974  64.999  1.00  0.00    -0.374 C  
ENDBRANCH   8   9
ENDBRANCH   7   8
ENDBRANCH   5   7
ENDBRANCH   2   3
TORSDOF 4
ENDMDL
MODEL      264
REMARK 921   NORMALIZED FREE ENERGY PREDICTED BY IDOCK:   -3.20 KCAL/MOL
REMARK 922        TOTAL FREE ENERGY PREDICTED BY IDOCK:   -4.16 KCAL/MOL
REMARK 923 INTER-LIGAND FREE ENERGY PREDICTED BY IDOCK:   -3.62 KCAL/MOL
REMARK 924 INTRA-LIGAND FREE ENERGY PREDICTED BY IDOCK:   -0.54 KCAL/MOL
REMARK 927      BINDING AFFINITY PREDICTED BY RF-SCORE:    0.00 PKD
ROOT
HETATM    1  C   UNL     1     -12.117  13.275  70.833  1.00  0.00    -0.242 C  
HETATM    2  C   UNL     1     -12.119  14.240  69.660  1.00  0.00    -0.396 C  
ENDROOT
BRANCH   2   3
HETATM    3  C   UNL     1     -12.018  13.516  68.333  1.00  0.00    -0.343 C  
HETATM    4  O   UNL     1     -11.995  14.084  67.247  1.00  0.00    -0.390 OA 
HETATM    5  N   UNL     1     -11.956  12.145  68.469  1.00  0.00    -0.294 N  
HETATM    6  H   UNL     1     -11.966  11.737  69.403  1.00  0.00     0.000 HD 
BRANCH   5   7
HETATM    7  C   UNL     1     -11.879  11.271  67.314  1.00  0.00     0.237 C  
BRANCH   7   8
HETATM    8  C   UNL     1     -10.513  10.585  67.220  1.00  0.00    -0.300 C  
BRANCH   8   9
HETATM    9  C   UNL     1      -9.673  10.979  65.999  1.00  0.00    -0.265 C  
HETATM   10  C   UNL     1      -9.544   9.859  64.927  1.00  0.00    -0.356 C  
HETATM   11  C   UNL     1      -8.089   9.329  64.948  1.00  0.00    -0.130 C  
HETATM   12  C   UNL     1      -7.346  10.347  65.766  1.00  0.00    -0.147 A  
HETATM   13  C   UNL     1      -8.245  11.269  66.341  1.00  0.00    -0.150 A  
HETATM   14  C   UNL     1      -7.645  12.267  67.111  1.00  0.00    -0.118 A  
HETATM   15  C   UNL     1      -6.259  12.181  67.225  1.00  0.00    -0.152 A  
HETATM   16  O   UNL     1      -5.751  13.197  68.023  1.00  0.00    -0.091 OA 
HETATM   17  C   UNL     1      -5.394  11.259  66.669  1.00  0.00    -0.122 A  
HETATM   18  C   UNL     1      -5.967  10.287  65.886  1.00  0.00    -0.094 A  
HETATM   19  C   UNL     1      -6.891  13.991  68.445  1.00  0.00    -0.099 C  
HETATM   20  C   UNL     1      -8.181  13.409  67.857  1.00  0.00    -0.162 C  
ENDBRANCH   8   9
ENDBRANCH   7   8
ENDBRANCH   5   7
ENDBRANCH   2   3
TORSDOF 4
ENDMDL
MODEL      265
REMARK 921   NORMALIZED FREE ENERGY PREDICTED BY IDOCK:   -3.19 KCAL/MOL
REMARK 922        TOTAL FREE ENERGY PREDICTED BY IDOCK:   -4.14 KCAL/MOL
REMARK 923 INTER-LIGAND FREE ENERGY PREDICTED BY IDOCK:   -3.76 KCAL/MOL
REMARK 924 INTRA-LIGAND FREE ENERGY PREDICTED BY IDOCK:   -0.39 KCAL/MOL
REMARK 927      BINDING AFFINITY PREDICTED BY RF-SCORE:    0.00 PKD
ROOT
HETATM    1  C   UNL     1     -10.083   4.271  65.676  1.00  0.00    -0.233 C  
HETATM    2  C   UNL     1      -9.397   5.493  66.261  1.00  0.00    -0.166 C  
ENDROOT
BRANCH   2   3
HETATM    3  C   UNL     1     -10.343   6.320  67.107  1.00  0.00    -0.229 C  
HETATM    4  O   UNL     1     -10.791   7.409  66.764  1.00  0.00    -0.303 OA 
HETATM    5  N   UNL     1     -10.652   5.724  68.311  1.00  0.00    -0.225 N  
HETATM    6  H   UNL     1     -10.257   4.810  68.530  1.00  0.00     0.000 HD 
BRANCH   5   7
HETATM    7  C   UNL     1     -11.526   6.367  69.275  1.00  0.00    -0.248 C  
BRANCH   7   8
HETATM    8  C   UNL     1     -11.160   5.982  70.710  1.00  0.00    -0.355 C  
BRANCH   8   9
HETATM    9  C   UNL     1     -10.695   7.146  71.594  1.00  0.00    -0.236 C  
HETATM   10  C   UNL     1     -11.548   8.439  71.446  1.00  0.00    -0.332 C  
HETATM   11  C   UNL     1     -10.696   9.504  70.714  1.00  0.00    -0.391 C  
HETATM   12  C   UNL     1      -9.303   8.941  70.753  1.00  0.00    -0.280 A  
HETATM   13  C   UNL     1      -9.317   7.624  71.255  1.00  0.00    -0.161 A  
HETATM   14  C   UNL     1      -8.062   7.018  71.343  1.00  0.00    -0.108 A  
HETATM   15  C   UNL     1      -6.994   7.789  70.888  1.00  0.00    -0.049 A  
HETATM   16  O   UNL     1      -5.792   7.103  70.992  1.00  0.00    -0.034 OA 
HETATM   17  C   UNL     1      -7.000   9.074  70.381  1.00  0.00    -0.058 A  
HETATM   18  C   UNL     1      -8.224   9.693  70.314  1.00  0.00    -0.217 A  
HETATM   19  C   UNL     1      -6.112   5.805  71.557  1.00  0.00    -0.034 C  
HETATM   20  C   UNL     1      -7.620   5.702  71.811  1.00  0.00    -0.096 C  
ENDBRANCH   8   9
ENDBRANCH   7   8
ENDBRANCH   5   7
ENDBRANCH   2   3
TORSDOF 4
ENDMDL
MODEL      266
REMARK 921   NORMALIZED FREE ENERGY PREDICTED BY IDOCK:   -3.19 KCAL/MOL
REMARK 922        TOTAL FREE ENERGY PREDICTED BY IDOCK:   -4.13 KCAL/MOL
REMARK 923 INTER-LIGAND FREE ENERGY PREDICTED BY IDOCK:   -3.87 KCAL/MOL
REMARK 924 INTRA-LIGAND FREE ENERGY PREDICTED BY IDOCK:   -0.27 KCAL/MOL
REMARK 927      BINDING AFFINITY PREDICTED BY RF-SCORE:    0.00 PKD
ROOT
HETATM    1  C   UNL     1     -11.168  15.377  68.882  1.00  0.00    -0.296 C  
HETATM    2  C   UNL     1     -10.234  14.272  68.421  1.00  0.00    -0.245 C  
ENDROOT
BRANCH   2   3
HETATM    3  C   UNL     1     -10.806  12.897  68.701  1.00  0.00    -0.258 C  
HETATM    4  O   UNL     1     -12.002  12.634  68.652  1.00  0.00    -0.304 OA 
HETATM    5  N   UNL     1      -9.841  11.966  69.021  1.00  0.00    -0.415 N  
HETATM    6  H   UNL     1      -8.861  12.247  69.031  1.00  0.00     0.000 HD 
BRANCH   5   7
HETATM    7  C   UNL     1     -10.188  10.595  69.345  1.00  0.00    -0.192 C  
BRANCH   7   8
HETATM    8  C   UNL     1      -8.987   9.830  69.907  1.00  0.00    -0.254 C  
BRANCH   8   9
HETATM    9  C   UNL     1      -9.340   8.598  70.750  1.00  0.00    -0.231 C  
HETATM   10  C   UNL     1      -8.431   8.397  71.997  1.00  0.00    -0.245 C  
HETATM   11  C   UNL     1      -7.526   7.166  71.747  1.00  0.00    -0.086 C  
HETATM   12  C   UNL     1      -8.143   6.501  70.549  1.00  0.00    -0.117 A  
HETATM   13  C   UNL     1      -9.162   7.311  70.006  1.00  0.00    -0.148 A  
HETATM   14  C   UNL     1      -9.807   6.770  68.893  1.00  0.00    -0.146 A  
HETATM   15  C   UNL     1      -9.325   5.535  68.465  1.00  0.00    -0.121 A  
HETATM   16  O   UNL     1     -10.008   5.083  67.343  1.00  0.00    -0.165 OA 
HETATM   17  C   UNL     1      -8.311   4.762  68.998  1.00  0.00    -0.084 A  
HETATM   18  C   UNL     1      -7.686   5.268  70.110  1.00  0.00    -0.072 A  
HETATM   19  C   UNL     1     -10.999   6.098  67.035  1.00  0.00    -0.330 C  
HETATM   20  C   UNL     1     -10.905   7.246  68.047  1.00  0.00    -0.161 C  
ENDBRANCH   8   9
ENDBRANCH   7   8
ENDBRANCH   5   7
ENDBRANCH   2   3
TORSDOF 4
ENDMDL
MODEL      267
REMARK 921   NORMALIZED FREE ENERGY PREDICTED BY IDOCK:   -3.19 KCAL/MOL
REMARK 922        TOTAL FREE ENERGY PREDICTED BY IDOCK:   -4.13 KCAL/MOL
REMARK 923 INTER-LIGAND FREE ENERGY PREDICTED BY IDOCK:   -3.77 KCAL/MOL
REMARK 924 INTRA-LIGAND FREE ENERGY PREDICTED BY IDOCK:   -0.36 KCAL/MOL
REMARK 927      BINDING AFFINITY PREDICTED BY RF-SCORE:    0.00 PKD
ROOT
HETATM    1  C   UNL     1     -12.604   9.132  71.920  1.00  0.00    -0.463 C  
HETATM    2  C   UNL     1     -11.991   7.748  71.794  1.00  0.00    -0.332 C  
ENDROOT
BRANCH   2   3
HETATM    3  C   UNL     1     -10.795   7.743  70.864  1.00  0.00    -0.237 C  
HETATM    4  O   UNL     1     -10.263   6.721  70.444  1.00  0.00    -0.189 OA 
HETATM    5  N   UNL     1     -10.361   9.009  70.536  1.00  0.00    -0.203 N  
HETATM    6  H   UNL     1     -10.857   9.818  70.909  1.00  0.00     0.000 HD 
BRANCH   5   7
HETATM    7  C   UNL     1      -9.213   9.218  69.673  1.00  0.00    -0.175 C  
BRANCH   7   8
HETATM    8  C   UNL     1      -9.585  10.032  68.432  1.00  0.00    -0.153 C  
BRANCH   8   9
HETATM    9  C   UNL     1      -8.410  10.386  67.512  1.00  0.00    -0.114 C  
HETATM   10  C   UNL     1      -7.020   9.946  68.057  1.00  0.00    -0.077 C  
HETATM   11  C   UNL     1      -6.236  11.215  68.473  1.00  0.00    -0.042 C  
HETATM   12  C   UNL     1      -7.024  12.341  67.868  1.00  0.00    -0.104 A  
HETATM   13  C   UNL     1      -8.235  11.861  67.327  1.00  0.00    -0.170 A  
HETATM   14  C   UNL     1      -9.034  12.836  66.727  1.00  0.00    -0.188 A  
HETATM   15  C   UNL     1      -8.536  14.136  66.786  1.00  0.00    -0.069 A  
HETATM   16  O   UNL     1      -9.402  15.040  66.186  1.00  0.00    -0.291 OA 
HETATM   17  C   UNL     1      -7.354  14.592  67.337  1.00  0.00    -0.195 A  
HETATM   18  C   UNL     1      -6.545  13.641  67.906  1.00  0.00    -0.158 A  
HETATM   19  C   UNL     1     -10.531  14.264  65.706  1.00  0.00    -0.316 C  
HETATM   20  C   UNL     1     -10.329  12.782  66.043  1.00  0.00    -0.291 C  
ENDBRANCH   8   9
ENDBRANCH   7   8
ENDBRANCH   5   7
ENDBRANCH   2   3
TORSDOF 4
ENDMDL
MODEL      268
REMARK 921   NORMALIZED FREE ENERGY PREDICTED BY IDOCK:   -3.18 KCAL/MOL
REMARK 922        TOTAL FREE ENERGY PREDICTED BY IDOCK:   -4.13 KCAL/MOL
REMARK 923 INTER-LIGAND FREE ENERGY PREDICTED BY IDOCK:   -3.82 KCAL/MOL
REMARK 924 INTRA-LIGAND FREE ENERGY PREDICTED BY IDOCK:   -0.31 KCAL/MOL
REMARK 927      BINDING AFFINITY PREDICTED BY RF-SCORE:    0.00 PKD
ROOT
HETATM    1  C   UNL     1      -8.324   7.344  71.997  1.00  0.00    -0.117 C  
HETATM    2  C   UNL     1      -7.915   8.587  71.226  1.00  0.00    -0.158 C  
ENDROOT
BRANCH   2   3
HETATM    3  C   UNL     1      -7.213   8.240  69.929  1.00  0.00    -0.059 C  
HETATM    4  O   UNL     1      -6.904   7.098  69.605  1.00  0.00    -0.048 OA 
HETATM    5  N   UNL     1      -6.951   9.343  69.145  1.00  0.00    -0.057 N  
HETATM    6  H   UNL     1      -7.247  10.264  69.467  1.00  0.00     0.000 HD 
BRANCH   5   7
HETATM    7  C   UNL     1      -6.264   9.224  67.872  1.00  0.00    -0.050 C  
BRANCH   7   8
HETATM    8  C   UNL     1      -6.971  10.025  66.776  1.00  0.00    -0.089 C  
BRANCH   8   9
HETATM    9  C   UNL     1      -8.083   9.271  66.037  1.00  0.00    -0.110 C  
HETATM   10  C   UNL     1      -7.584   8.418  64.835  1.00  0.00    -0.100 C  
HETATM   11  C   UNL     1      -8.061   9.094  63.526  1.00  0.00    -0.159 C  
HETATM   12  C   UNL     1      -9.075  10.101  63.988  1.00  0.00    -0.289 A  
HETATM   13  C   UNL     1      -9.082  10.183  65.396  1.00  0.00    -0.227 A  
HETATM   14  C   UNL     1     -10.006  11.087  65.924  1.00  0.00    -0.289 A  
HETATM   15  C   UNL     1     -10.753  11.795  64.984  1.00  0.00    -0.292 A  
HETATM   16  O   UNL     1     -11.628  12.682  65.595  1.00  0.00    -0.338 OA 
HETATM   17  C   UNL     1     -10.721  11.714  63.605  1.00  0.00    -0.500 A  
HETATM   18  C   UNL     1      -9.836  10.810  63.072  1.00  0.00    -0.344 A  
HETATM   19  C   UNL     1     -11.431  12.528  67.025  1.00  0.00    -0.356 C  
HETATM   20  C   UNL     1     -10.357  11.469  67.294  1.00  0.00    -0.236 C  
ENDBRANCH   8   9
ENDBRANCH   7   8
ENDBRANCH   5   7
ENDBRANCH   2   3
TORSDOF 4
ENDMDL
MODEL      269
REMARK 921   NORMALIZED FREE ENERGY PREDICTED BY IDOCK:   -3.17 KCAL/MOL
REMARK 922        TOTAL FREE ENERGY PREDICTED BY IDOCK:   -4.12 KCAL/MOL
REMARK 923 INTER-LIGAND FREE ENERGY PREDICTED BY IDOCK:   -3.76 KCAL/MOL
REMARK 924 INTRA-LIGAND FREE ENERGY PREDICTED BY IDOCK:   -0.36 KCAL/MOL
REMARK 927      BINDING AFFINITY PREDICTED BY RF-SCORE:    0.00 PKD
ROOT
HETATM    1  C   UNL     1     -11.803  12.589  65.352  1.00  0.00    -0.479 C  
HETATM    2  C   UNL     1     -11.908  12.275  66.834  1.00  0.00    -0.334 C  
ENDROOT
BRANCH   2   3
HETATM    3  C   UNL     1     -10.701  11.509  67.336  1.00  0.00    -0.232 C  
HETATM    4  O   UNL     1      -9.766  12.027  67.938  1.00  0.00    -0.183 OA 
HETATM    5  N   UNL     1     -10.755  10.163  67.043  1.00  0.00    -0.227 N  
HETATM    6  H   UNL     1     -11.568   9.793  66.551  1.00  0.00     0.000 HD 
BRANCH   5   7
HETATM    7  C   UNL     1      -9.684   9.260  67.419  1.00  0.00    -0.161 C  
BRANCH   7   8
HETATM    8  C   UNL     1      -9.421   8.216  66.331  1.00  0.00    -0.285 C  
BRANCH   8   9
HETATM    9  C   UNL     1      -9.564   6.758  66.784  1.00  0.00    -0.210 C  
HETATM   10  C   UNL     1     -11.019   6.344  67.149  1.00  0.00    -0.476 C  
HETATM   11  C   UNL     1     -11.100   6.151  68.683  1.00  0.00    -0.378 C  
HETATM   12  C   UNL     1      -9.663   6.127  69.121  1.00  0.00    -0.164 A  
HETATM   13  C   UNL     1      -8.814   6.460  68.045  1.00  0.00    -0.113 A  
HETATM   14  C   UNL     1      -7.452   6.452  68.350  1.00  0.00    -0.088 A  
HETATM   15  C   UNL     1      -7.139   6.152  69.674  1.00  0.00    -0.073 A  
HETATM   16  O   UNL     1      -5.769   6.186  69.893  1.00  0.00    -0.013 OA 
HETATM   17  C   UNL     1      -7.986   5.844  70.722  1.00  0.00    -0.114 A  
HETATM   18  C   UNL     1      -9.327   5.823  70.430  1.00  0.00    -0.186 A  
HETATM   19  C   UNL     1      -5.163   6.527  68.619  1.00  0.00    -0.011 C  
HETATM   20  C   UNL     1      -6.250   6.712  67.554  1.00  0.00    -0.039 C  
ENDBRANCH   8   9
ENDBRANCH   7   8
ENDBRANCH   5   7
ENDBRANCH   2   3
TORSDOF 4
ENDMDL
MODEL      270
REMARK 921   NORMALIZED FREE ENERGY PREDICTED BY IDOCK:   -3.17 KCAL/MOL
REMARK 922        TOTAL FREE ENERGY PREDICTED BY IDOCK:   -4.12 KCAL/MOL
REMARK 923 INTER-LIGAND FREE ENERGY PREDICTED BY IDOCK:   -3.81 KCAL/MOL
REMARK 924 INTRA-LIGAND FREE ENERGY PREDICTED BY IDOCK:   -0.31 KCAL/MOL
REMARK 927      BINDING AFFINITY PREDICTED BY RF-SCORE:    0.00 PKD
ROOT
HETATM    1  C   UNL     1      -5.130   7.438  71.613  1.00  0.00    -0.027 C  
HETATM    2  C   UNL     1      -6.547   7.378  72.156  1.00  0.00    -0.051 C  
ENDROOT
BRANCH   2   3
HETATM    3  C   UNL     1      -7.486   8.282  71.383  1.00  0.00    -0.085 C  
HETATM    4  O   UNL     1      -7.578   9.490  71.572  1.00  0.00    -0.285 OA 
HETATM    5  N   UNL     1      -8.234   7.607  70.442  1.00  0.00    -0.120 N  
HETATM    6  H   UNL     1      -8.099   6.602  70.326  1.00  0.00     0.000 HD 
BRANCH   5   7
HETATM    7  C   UNL     1      -9.208   8.290  69.613  1.00  0.00    -0.158 C  
BRANCH   7   8
HETATM    8  C   UNL     1      -9.910   7.323  68.657  1.00  0.00    -0.161 C  
BRANCH   8   9
HETATM    9  C   UNL     1     -10.975   6.430  69.304  1.00  0.00    -0.418 C  
HETATM   10  C   UNL     1     -11.761   7.112  70.461  1.00  0.00    -0.314 C  
HETATM   11  C   UNL     1     -11.328   6.457  71.796  1.00  0.00    -0.337 C  
HETATM   12  C   UNL     1     -10.581   5.226  71.369  1.00  0.00    -0.247 A  
HETATM   13  C   UNL     1     -10.398   5.220  69.971  1.00  0.00    -0.365 A  
HETATM   14  C   UNL     1      -9.723   4.104  69.474  1.00  0.00    -0.254 A  
HETATM   15  C   UNL     1      -9.301   3.186  70.433  1.00  0.00    -0.162 A  
HETATM   16  O   UNL     1      -8.622   2.122  69.855  1.00  0.00    -0.046 OA 
HETATM   17  C   UNL     1      -9.473   3.215  71.804  1.00  0.00    -0.216 A  
HETATM   18  C   UNL     1     -10.159   4.294  72.304  1.00  0.00    -0.249 A  
HETATM   19  C   UNL     1      -8.613   2.374  68.426  1.00  0.00    -0.080 C  
HETATM   20  C   UNL     1      -9.341   3.689  68.121  1.00  0.00    -0.236 C  
ENDBRANCH   8   9
ENDBRANCH   7   8
ENDBRANCH   5   7
ENDBRANCH   2   3
TORSDOF 4
ENDMDL
MODEL      271
REMARK 921   NORMALIZED FREE ENERGY PREDICTED BY IDOCK:   -3.17 KCAL/MOL
REMARK 922        TOTAL FREE ENERGY PREDICTED BY IDOCK:   -4.11 KCAL/MOL
REMARK 923 INTER-LIGAND FREE ENERGY PREDICTED BY IDOCK:   -3.40 KCAL/MOL
REMARK 924 INTRA-LIGAND FREE ENERGY PREDICTED BY IDOCK:   -0.72 KCAL/MOL
REMARK 927      BINDING AFFINITY PREDICTED BY RF-SCORE:    0.00 PKD
ROOT
HETATM    1  C   UNL     1     -13.147   7.532  71.251  1.00  0.00    -0.316 C  
HETATM    2  C   UNL     1     -11.789   6.979  71.644  1.00  0.00    -0.348 C  
ENDROOT
BRANCH   2   3
HETATM    3  C   UNL     1     -10.990   6.535  70.435  1.00  0.00    -0.298 C  
HETATM    4  O   UNL     1      -9.966   5.864  70.504  1.00  0.00    -0.176 OA 
HETATM    5  N   UNL     1     -11.530   6.966  69.242  1.00  0.00    -0.566 N  
HETATM    6  H   UNL     1     -12.393   7.510  69.254  1.00  0.00     0.000 HD 
BRANCH   5   7
HETATM    7  C   UNL     1     -10.901   6.664  67.970  1.00  0.00    -0.271 C  
BRANCH   7   8
HETATM    8  C   UNL     1     -10.685   7.929  67.136  1.00  0.00    -0.306 C  
BRANCH   8   9
HETATM    9  C   UNL     1      -9.229   8.200  66.735  1.00  0.00    -0.206 C  
HETATM   10  C   UNL     1      -8.752   7.397  65.491  1.00  0.00    -0.051 C  
HETATM   11  C   UNL     1      -7.742   6.322  65.963  1.00  0.00    -0.092 C  
HETATM   12  C   UNL     1      -7.412   6.729  67.371  1.00  0.00    -0.096 A  
HETATM   13  C   UNL     1      -8.247   7.787  67.787  1.00  0.00    -0.126 A  
HETATM   14  C   UNL     1      -8.005   8.247  69.082  1.00  0.00    -0.112 A  
HETATM   15  C   UNL     1      -7.006   7.571  69.779  1.00  0.00    -0.055 A  
HETATM   16  O   UNL     1      -6.848   8.078  71.062  1.00  0.00    -0.040 OA 
HETATM   17  C   UNL     1      -6.208   6.523  69.362  1.00  0.00    -0.034 A  
HETATM   18  C   UNL     1      -6.416   6.078  68.080  1.00  0.00    -0.046 A  
HETATM   19  C   UNL     1      -7.810   9.157  71.193  1.00  0.00    -0.076 C  
HETATM   20  C   UNL     1      -8.607   9.310  69.892  1.00  0.00    -0.178 C  
ENDBRANCH   8   9
ENDBRANCH   7   8
ENDBRANCH   5   7
ENDBRANCH   2   3
TORSDOF 4
ENDMDL
MODEL      272
REMARK 921   NORMALIZED FREE ENERGY PREDICTED BY IDOCK:   -3.16 KCAL/MOL
REMARK 922        TOTAL FREE ENERGY PREDICTED BY IDOCK:   -4.10 KCAL/MOL
REMARK 923 INTER-LIGAND FREE ENERGY PREDICTED BY IDOCK:   -3.66 KCAL/MOL
REMARK 924 INTRA-LIGAND FREE ENERGY PREDICTED BY IDOCK:   -0.44 KCAL/MOL
REMARK 927      BINDING AFFINITY PREDICTED BY RF-SCORE:    0.00 PKD
ROOT
HETATM    1  C   UNL     1      -6.645  10.475  67.194  1.00  0.00    -0.074 C  
HETATM    2  C   UNL     1      -6.666   9.804  65.832  1.00  0.00    -0.091 C  
ENDROOT
BRANCH   2   3
HETATM    3  C   UNL     1      -8.026   9.216  65.513  1.00  0.00    -0.104 C  
HETATM    4  O   UNL     1      -8.334   8.766  64.415  1.00  0.00    -0.163 OA 
HETATM    5  N   UNL     1      -8.890   9.241  66.587  1.00  0.00    -0.126 N  
HETATM    6  H   UNL     1      -8.567   9.617  67.478  1.00  0.00     0.000 HD 
BRANCH   5   7
HETATM    7  C   UNL     1     -10.249   8.744  66.480  1.00  0.00    -0.244 C  
BRANCH   7   8
HETATM    8  C   UNL     1     -10.599   7.811  67.641  1.00  0.00    -0.283 C  
BRANCH   8   9
HETATM    9  C   UNL     1      -9.399   7.133  68.313  1.00  0.00    -0.130 C  
HETATM   10  C   UNL     1      -8.795   5.953  67.499  1.00  0.00    -0.106 C  
HETATM   11  C   UNL     1      -9.130   4.632  68.234  1.00  0.00    -0.151 C  
HETATM   12  C   UNL     1      -9.610   5.082  69.585  1.00  0.00    -0.240 A  
HETATM   13  C   UNL     1      -9.748   6.485  69.617  1.00  0.00    -0.167 A  
HETATM   14  C   UNL     1     -10.178   7.002  70.840  1.00  0.00    -0.210 A  
HETATM   15  C   UNL     1     -10.440   6.056  71.829  1.00  0.00    -0.221 A  
HETATM   16  O   UNL     1     -10.881   6.655  73.001  1.00  0.00    -0.249 OA 
HETATM   17  C   UNL     1     -10.316   4.681  71.775  1.00  0.00    -0.208 A  
HETATM   18  C   UNL     1      -9.869   4.160  70.587  1.00  0.00    -0.249 A  
HETATM   19  C   UNL     1     -10.898   8.083  72.746  1.00  0.00    -0.369 C  
HETATM   20  C   UNL     1     -10.432   8.365  71.313  1.00  0.00    -0.273 C  
ENDBRANCH   8   9
ENDBRANCH   7   8
ENDBRANCH   5   7
ENDBRANCH   2   3
TORSDOF 4
ENDMDL
MODEL      273
REMARK 921   NORMALIZED FREE ENERGY PREDICTED BY IDOCK:   -3.15 KCAL/MOL
REMARK 922        TOTAL FREE ENERGY PREDICTED BY IDOCK:   -4.10 KCAL/MOL
REMARK 923 INTER-LIGAND FREE ENERGY PREDICTED BY IDOCK:   -4.11 KCAL/MOL
REMARK 924 INTRA-LIGAND FREE ENERGY PREDICTED BY IDOCK:    0.01 KCAL/MOL
REMARK 927      BINDING AFFINITY PREDICTED BY RF-SCORE:    0.00 PKD
ROOT
HETATM    1  C   UNL     1      -7.153  10.266  68.385  1.00  0.00    -0.078 C  
HETATM    2  C   UNL     1      -7.542  11.644  68.891  1.00  0.00    -0.087 C  
ENDROOT
BRANCH   2   3
HETATM    3  C   UNL     1      -7.319  12.714  67.842  1.00  0.00    -0.116 C  
HETATM    4  O   UNL     1      -6.332  12.761  67.115  1.00  0.00    -0.227 OA 
HETATM    5  N   UNL     1      -8.341  13.638  67.786  1.00  0.00    -0.166 N  
HETATM    6  H   UNL     1      -9.141  13.533  68.409  1.00  0.00     0.000 HD 
BRANCH   5   7
HETATM    7  C   UNL     1      -8.305  14.755  66.861  1.00  0.00    -0.151 C  
BRANCH   7   8
HETATM    8  C   UNL     1      -9.493  15.697  67.072  1.00  0.00    -0.236 C  
BRANCH   8   9
HETATM    9  C   UNL     1      -9.200  16.924  67.944  1.00  0.00    -0.234 C  
HETATM   10  C   UNL     1     -10.471  17.634  68.492  1.00  0.00    -0.337 C  
HETATM   11  C   UNL     1     -10.623  18.992  67.765  1.00  0.00    -0.488 C  
HETATM   12  C   UNL     1      -9.299  19.185  67.081  1.00  0.00    -0.358 A  
HETATM   13  C   UNL     1      -8.510  18.022  67.196  1.00  0.00    -0.241 A  
HETATM   14  C   UNL     1      -7.250  18.108  66.602  1.00  0.00    -0.246 A  
HETATM   15  C   UNL     1      -6.977  19.312  65.954  1.00  0.00    -0.275 A  
HETATM   16  O   UNL     1      -5.716  19.303  65.375  1.00  0.00    -0.160 OA 
HETATM   17  C   UNL     1      -7.770  20.437  65.835  1.00  0.00    -0.084 A  
HETATM   18  C   UNL     1      -9.001  20.376  66.438  1.00  0.00    -0.202 A  
HETATM   19  C   UNL     1      -5.139  18.005  65.677  1.00  0.00    -0.184 C  
HETATM   20  C   UNL     1      -6.129  17.171  66.499  1.00  0.00    -0.237 C  
ENDBRANCH   8   9
ENDBRANCH   7   8
ENDBRANCH   5   7
ENDBRANCH   2   3
TORSDOF 4
ENDMDL
MODEL      274
REMARK 921   NORMALIZED FREE ENERGY PREDICTED BY IDOCK:   -3.15 KCAL/MOL
REMARK 922        TOTAL FREE ENERGY PREDICTED BY IDOCK:   -4.10 KCAL/MOL
REMARK 923 INTER-LIGAND FREE ENERGY PREDICTED BY IDOCK:   -3.85 KCAL/MOL
REMARK 924 INTRA-LIGAND FREE ENERGY PREDICTED BY IDOCK:   -0.25 KCAL/MOL
REMARK 927      BINDING AFFINITY PREDICTED BY RF-SCORE:    0.00 PKD
ROOT
HETATM    1  C   UNL     1     -10.950   6.505  73.623  1.00  0.00    -0.021 C  
HETATM    2  C   UNL     1     -10.426   6.344  72.206  1.00  0.00    -0.222 C  
ENDROOT
BRANCH   2   3
HETATM    3  C   UNL     1     -11.152   7.247  71.230  1.00  0.00    -0.247 C  
HETATM    4  O   UNL     1     -12.227   6.964  70.711  1.00  0.00    -0.381 OA 
HETATM    5  N   UNL     1     -10.481   8.425  70.980  1.00  0.00    -0.201 N  
HETATM    6  H   UNL     1      -9.597   8.604  71.456  1.00  0.00     0.000 HD 
BRANCH   5   7
HETATM    7  C   UNL     1     -11.001   9.414  70.056  1.00  0.00    -0.239 C  
BRANCH   7   8
HETATM    8  C   UNL     1      -9.881  10.270  69.459  1.00  0.00    -0.244 C  
BRANCH   8   9
HETATM    9  C   UNL     1     -10.097  10.697  68.003  1.00  0.00    -0.181 C  
HETATM   10  C   UNL     1      -9.024  10.156  67.014  1.00  0.00    -0.148 C  
HETATM   11  C   UNL     1      -8.142  11.343  66.554  1.00  0.00    -0.141 C  
HETATM   12  C   UNL     1      -8.907  12.556  67.004  1.00  0.00    -0.212 A  
HETATM   13  C   UNL     1     -10.002  12.178  67.808  1.00  0.00    -0.198 A  
HETATM   14  C   UNL     1     -10.785  13.240  68.265  1.00  0.00    -0.267 A  
HETATM   15  C   UNL     1     -10.347  14.509  67.892  1.00  0.00    -0.231 A  
HETATM   16  O   UNL     1     -11.169  15.502  68.406  1.00  0.00    -0.305 OA 
HETATM   17  C   UNL     1      -9.258  14.863  67.118  1.00  0.00    -0.231 A  
HETATM   18  C   UNL     1      -8.495  13.828  66.638  1.00  0.00     0.138 A  
HETATM   19  C   UNL     1     -12.208  14.821  69.157  1.00  0.00    -0.173 C  
HETATM   20  C   UNL     1     -11.995  13.304  69.089  1.00  0.00    -0.343 C  
ENDBRANCH   8   9
ENDBRANCH   7   8
ENDBRANCH   5   7
ENDBRANCH   2   3
TORSDOF 4
ENDMDL
MODEL      275
REMARK 921   NORMALIZED FREE ENERGY PREDICTED BY IDOCK:   -3.15 KCAL/MOL
REMARK 922        TOTAL FREE ENERGY PREDICTED BY IDOCK:   -4.09 KCAL/MOL
REMARK 923 INTER-LIGAND FREE ENERGY PREDICTED BY IDOCK:   -3.55 KCAL/MOL
REMARK 924 INTRA-LIGAND FREE ENERGY PREDICTED BY IDOCK:   -0.53 KCAL/MOL
REMARK 927      BINDING AFFINITY PREDICTED BY RF-SCORE:    0.00 PKD
ROOT
HETATM    1  C   UNL     1     -10.457   4.060  67.184  1.00  0.00     0.881 C  
HETATM    2  C   UNL     1      -9.413   3.645  68.206  1.00  0.00    -0.214 C  
ENDROOT
BRANCH   2   3
HETATM    3  C   UNL     1      -8.768   4.844  68.872  1.00  0.00    -0.089 C  
HETATM    4  O   UNL     1      -7.557   4.972  69.019  1.00  0.00    -0.070 OA 
HETATM    5  N   UNL     1      -9.682   5.782  69.300  1.00  0.00    -0.137 N  
HETATM    6  H   UNL     1     -10.676   5.621  69.134  1.00  0.00     0.000 HD 
BRANCH   5   7
HETATM    7  C   UNL     1      -9.266   6.992  69.982  1.00  0.00    -0.148 C  
BRANCH   7   8
HETATM    8  C   UNL     1      -9.163   8.175  69.015  1.00  0.00    -0.148 C  
BRANCH   8   9
HETATM    9  C   UNL     1     -10.405   8.414  68.149  1.00  0.00    -0.255 C  
HETATM   10  C   UNL     1     -10.134   8.359  66.618  1.00  0.00    -0.358 C  
HETATM   11  C   UNL     1     -10.255   9.794  66.049  1.00  0.00    -0.263 C  
HETATM   12  C   UNL     1     -10.904  10.569  67.161  1.00  0.00    -0.319 A  
HETATM   13  C   UNL     1     -10.988   9.781  68.328  1.00  0.00    -0.215 A  
HETATM   14  C   UNL     1     -11.591  10.412  69.417  1.00  0.00    -0.272 A  
HETATM   15  C   UNL     1     -11.983  11.732  69.201  1.00  0.00    -0.293 A  
HETATM   16  O   UNL     1     -12.552  12.287  70.339  1.00  0.00    -0.158 OA 
HETATM   17  C   UNL     1     -11.877  12.496  68.054  1.00  0.00    -0.382 A  
HETATM   18  C   UNL     1     -11.310  11.880  66.967  1.00  0.00    -0.392 A  
HETATM   19  C   UNL     1     -12.526  11.248  71.353  1.00  0.00    -0.287 C  
HETATM   20  C   UNL     1     -11.894   9.974  70.782  1.00  0.00    -0.435 C  
ENDBRANCH   8   9
ENDBRANCH   7   8
ENDBRANCH   5   7
ENDBRANCH   2   3
TORSDOF 4
ENDMDL
MODEL      276
REMARK 921   NORMALIZED FREE ENERGY PREDICTED BY IDOCK:   -3.13 KCAL/MOL
REMARK 922        TOTAL FREE ENERGY PREDICTED BY IDOCK:   -4.06 KCAL/MOL
REMARK 923 INTER-LIGAND FREE ENERGY PREDICTED BY IDOCK:   -4.01 KCAL/MOL
REMARK 924 INTRA-LIGAND FREE ENERGY PREDICTED BY IDOCK:   -0.05 KCAL/MOL
REMARK 927      BINDING AFFINITY PREDICTED BY RF-SCORE:    0.00 PKD
ROOT
HETATM    1  C   UNL     1     -10.084  16.305  68.708  1.00  0.00    -0.243 C  
HETATM    2  C   UNL     1     -11.112  16.095  67.609  1.00  0.00    -0.212 C  
ENDROOT
BRANCH   2   3
HETATM    3  C   UNL     1     -11.596  14.660  67.556  1.00  0.00    -0.375 C  
HETATM    4  O   UNL     1     -12.392  14.178  68.355  1.00  0.00    -0.237 OA 
HETATM    5  N   UNL     1     -11.046  13.943  66.515  1.00  0.00    -0.304 N  
HETATM    6  H   UNL     1     -10.400  14.407  65.877  1.00  0.00     0.000 HD 
BRANCH   5   7
HETATM    7  C   UNL     1     -11.365  12.543  66.305  1.00  0.00    -0.338 C  
BRANCH   7   8
HETATM    8  C   UNL     1     -10.912  11.681  67.485  1.00  0.00    -0.312 C  
BRANCH   8   9
HETATM    9  C   UNL     1      -9.472  11.164  67.396  1.00  0.00    -0.176 C  
HETATM   10  C   UNL     1      -8.776  11.449  66.034  1.00  0.00    -0.131 C  
HETATM   11  C   UNL     1      -8.619  10.107  65.277  1.00  0.00    -0.169 C  
HETATM   12  C   UNL     1      -8.909   9.067  66.321  1.00  0.00    -0.180 A  
HETATM   13  C   UNL     1      -9.378   9.673  67.505  1.00  0.00    -0.149 A  
HETATM   14  C   UNL     1      -9.662   8.786  68.544  1.00  0.00    -0.173 A  
HETATM   15  C   UNL     1      -9.477   7.437  68.244  1.00  0.00    -0.142 A  
HETATM   16  O   UNL     1      -9.803   6.628  69.324  1.00  0.00    -0.148 OA 
HETATM   17  C   UNL     1      -9.033   6.858  67.071  1.00  0.00    -0.124 A  
HETATM   18  C   UNL     1      -8.723   7.720  66.050  1.00  0.00    -0.184 A  
HETATM   19  C   UNL     1     -10.222   7.520  70.389  1.00  0.00    -0.202 C  
HETATM   20  C   UNL     1     -10.142   8.976  69.915  1.00  0.00    -0.213 C  
ENDBRANCH   8   9
ENDBRANCH   7   8
ENDBRANCH   5   7
ENDBRANCH   2   3
TORSDOF 4
ENDMDL
MODEL      277
REMARK 921   NORMALIZED FREE ENERGY PREDICTED BY IDOCK:   -3.12 KCAL/MOL
REMARK 922        TOTAL FREE ENERGY PREDICTED BY IDOCK:   -4.05 KCAL/MOL
REMARK 923 INTER-LIGAND FREE ENERGY PREDICTED BY IDOCK:   -3.84 KCAL/MOL
REMARK 924 INTRA-LIGAND FREE ENERGY PREDICTED BY IDOCK:   -0.21 KCAL/MOL
REMARK 927      BINDING AFFINITY PREDICTED BY RF-SCORE:    0.00 PKD
ROOT
HETATM    1  C   UNL     1     -14.403   8.512  72.247  1.00  0.00    -0.483 C  
HETATM    2  C   UNL     1     -13.129   9.269  72.580  1.00  0.00    -0.416 C  
ENDROOT
BRANCH   2   3
HETATM    3  C   UNL     1     -12.750  10.244  71.483  1.00  0.00    -0.452 C  
HETATM    4  O   UNL     1     -13.321  11.313  71.295  1.00  0.00    -0.182 OA 
HETATM    5  N   UNL     1     -11.694   9.807  70.713  1.00  0.00    -0.306 N  
HETATM    6  H   UNL     1     -11.254   8.913  70.932  1.00  0.00     0.000 HD 
BRANCH   5   7
HETATM    7  C   UNL     1     -11.194  10.588  69.597  1.00  0.00    -0.282 C  
BRANCH   7   8
HETATM    8  C   UNL     1     -10.463   9.708  68.579  1.00  0.00    -0.241 C  
BRANCH   8   9
HETATM    9  C   UNL     1      -9.375  10.422  67.769  1.00  0.00    -0.155 C  
HETATM   10  C   UNL     1      -9.922  11.377  66.669  1.00  0.00    -0.239 C  
HETATM   11  C   UNL     1      -9.629  10.745  65.285  1.00  0.00    -0.278 C  
HETATM   12  C   UNL     1      -8.655   9.643  65.591  1.00  0.00    -0.149 A  
HETATM   13  C   UNL     1      -8.516   9.479  66.985  1.00  0.00    -0.128 A  
HETATM   14  C   UNL     1      -7.617   8.483  67.370  1.00  0.00    -0.097 A  
HETATM   15  C   UNL     1      -7.022   7.779  66.325  1.00  0.00    -0.063 A  
HETATM   16  O   UNL     1      -6.162   6.797  66.798  1.00  0.00    -0.037 OA 
HETATM   17  C   UNL     1      -7.183   7.941  64.962  1.00  0.00    -0.062 A  
HETATM   18  C   UNL     1      -8.044   8.934  64.568  1.00  0.00    -0.150 A  
HETATM   19  C   UNL     1      -6.206   6.883  68.246  1.00  0.00    -0.034 C  
HETATM   20  C   UNL     1      -7.164   7.999  68.677  1.00  0.00    -0.081 C  
ENDBRANCH   8   9
ENDBRANCH   7   8
ENDBRANCH   5   7
ENDBRANCH   2   3
TORSDOF 4
ENDMDL
MODEL      278
REMARK 921   NORMALIZED FREE ENERGY PREDICTED BY IDOCK:   -3.10 KCAL/MOL
REMARK 922        TOTAL FREE ENERGY PREDICTED BY IDOCK:   -4.03 KCAL/MOL
REMARK 923 INTER-LIGAND FREE ENERGY PREDICTED BY IDOCK:   -3.74 KCAL/MOL
REMARK 924 INTRA-LIGAND FREE ENERGY PREDICTED BY IDOCK:   -0.29 KCAL/MOL
REMARK 927      BINDING AFFINITY PREDICTED BY RF-SCORE:    0.00 PKD
ROOT
HETATM    1  C   UNL     1     -10.479  12.121  65.487  1.00  0.00    -0.300 C  
HETATM    2  C   UNL     1     -11.641  12.315  66.446  1.00  0.00    -0.445 C  
ENDROOT
BRANCH   2   3
HETATM    3  C   UNL     1     -11.316  11.804  67.835  1.00  0.00    -0.292 C  
HETATM    4  O   UNL     1     -11.082  12.534  68.792  1.00  0.00    -0.245 OA 
HETATM    5  N   UNL     1     -11.308  10.428  67.917  1.00  0.00    -0.461 N  
HETATM    6  H   UNL     1     -11.525   9.879  67.086  1.00  0.00     0.000 HD 
BRANCH   5   7
HETATM    7  C   UNL     1     -10.997   9.743  69.157  1.00  0.00    -0.175 C  
BRANCH   7   8
HETATM    8  C   UNL     1     -10.880   8.231  68.950  1.00  0.00     0.002 C  
BRANCH   8   9
HETATM    9  C   UNL     1     -10.757   7.407  70.237  1.00  0.00    -0.250 C  
HETATM   10  C   UNL     1     -11.388   8.084  71.489  1.00  0.00    -0.299 C  
HETATM   11  C   UNL     1     -10.242   8.529  72.431  1.00  0.00    -0.369 C  
HETATM   12  C   UNL     1      -9.032   7.825  71.886  1.00  0.00    -0.164 A  
HETATM   13  C   UNL     1      -9.337   7.195  70.662  1.00  0.00    -0.158 A  
HETATM   14  C   UNL     1      -8.275   6.499  70.082  1.00  0.00    -0.129 A  
HETATM   15  C   UNL     1      -7.069   6.562  70.777  1.00  0.00    -0.069 A  
HETATM   16  O   UNL     1      -6.066   5.863  70.120  1.00  0.00    -0.024 OA 
HETATM   17  C   UNL     1      -6.782   7.200  71.969  1.00  0.00    -0.056 A  
HETATM   18  C   UNL     1      -7.824   7.866  72.565  1.00  0.00    -0.150 A  
HETATM   19  C   UNL     1      -6.674   5.310  68.924  1.00  0.00    -0.053 C  
HETATM   20  C   UNL     1      -8.153   5.707  68.856  1.00  0.00    -0.100 C  
ENDBRANCH   8   9
ENDBRANCH   7   8
ENDBRANCH   5   7
ENDBRANCH   2   3
TORSDOF 4
ENDMDL
MODEL      279
REMARK 921   NORMALIZED FREE ENERGY PREDICTED BY IDOCK:   -3.09 KCAL/MOL
REMARK 922        TOTAL FREE ENERGY PREDICTED BY IDOCK:   -4.02 KCAL/MOL
REMARK 923 INTER-LIGAND FREE ENERGY PREDICTED BY IDOCK:   -3.73 KCAL/MOL
REMARK 924 INTRA-LIGAND FREE ENERGY PREDICTED BY IDOCK:   -0.29 KCAL/MOL
REMARK 927      BINDING AFFINITY PREDICTED BY RF-SCORE:    0.00 PKD
ROOT
HETATM    1  C   UNL     1      -6.673  18.470  68.247  1.00  0.00    -0.233 C  
HETATM    2  C   UNL     1      -6.444  17.124  67.582  1.00  0.00    -0.164 C  
ENDROOT
BRANCH   2   3
HETATM    3  C   UNL     1      -7.747  16.402  67.306  1.00  0.00    -0.163 C  
HETATM    4  O   UNL     1      -8.606  16.817  66.535  1.00  0.00    -0.228 OA 
HETATM    5  N   UNL     1      -7.875  15.226  68.013  1.00  0.00    -0.126 N  
HETATM    6  H   UNL     1      -7.117  14.930  68.628  1.00  0.00     0.000 HD 
BRANCH   5   7
HETATM    7  C   UNL     1      -9.062  14.399  67.905  1.00  0.00    -0.187 C  
BRANCH   7   8
HETATM    8  C   UNL     1      -8.885  13.299  66.855  1.00  0.00    -0.186 C  
BRANCH   8   9
HETATM    9  C   UNL     1      -9.824  12.096  67.012  1.00  0.00    -0.212 C  
HETATM   10  C   UNL     1      -9.756  11.414  68.409  1.00  0.00    -0.203 C  
HETATM   11  C   UNL     1      -9.070  10.036  68.246  1.00  0.00    -0.122 C  
HETATM   12  C   UNL     1      -9.060   9.811  66.761  1.00  0.00    -0.169 A  
HETATM   13  C   UNL     1      -9.492  10.970  66.083  1.00  0.00    -0.230 A  
HETATM   14  C   UNL     1      -9.530  10.855  64.693  1.00  0.00    -0.285 A  
HETATM   15  C   UNL     1      -9.102   9.630  64.184  1.00  0.00    -0.209 A  
HETATM   16  O   UNL     1      -9.153   9.611  62.796  1.00  0.00    -0.262 OA 
HETATM   17  C   UNL     1      -8.664   8.509  64.862  1.00  0.00    -0.090 A  
HETATM   18  C   UNL     1      -8.647   8.599  66.231  1.00  0.00    -0.151 A  
HETATM   19  C   UNL     1      -9.653  10.911  62.390  1.00  0.00    -0.107 C  
HETATM   20  C   UNL     1      -9.922  11.779  63.625  1.00  0.00    -0.404 C  
ENDBRANCH   8   9
ENDBRANCH   7   8
ENDBRANCH   5   7
ENDBRANCH   2   3
TORSDOF 4
ENDMDL
MODEL      280
REMARK 921   NORMALIZED FREE ENERGY PREDICTED BY IDOCK:   -3.09 KCAL/MOL
REMARK 922        TOTAL FREE ENERGY PREDICTED BY IDOCK:   -4.01 KCAL/MOL
REMARK 923 INTER-LIGAND FREE ENERGY PREDICTED BY IDOCK:   -3.80 KCAL/MOL
REMARK 924 INTRA-LIGAND FREE ENERGY PREDICTED BY IDOCK:   -0.22 KCAL/MOL
REMARK 927      BINDING AFFINITY PREDICTED BY RF-SCORE:    0.00 PKD
ROOT
HETATM    1  C   UNL     1      -7.245   9.164  68.857  1.00  0.00    -0.073 C  
HETATM    2  C   UNL     1      -8.185  10.273  69.296  1.00  0.00    -0.164 C  
ENDROOT
BRANCH   2   3
HETATM    3  C   UNL     1      -7.443  11.566  69.568  1.00  0.00     0.208 C  
HETATM    4  O   UNL     1      -6.619  11.703  70.466  1.00  0.00    -0.105 OA 
HETATM    5  N   UNL     1      -7.789  12.581  68.701  1.00  0.00    -0.272 N  
HETATM    6  H   UNL     1      -8.471  12.397  67.967  1.00  0.00     0.000 HD 
BRANCH   5   7
HETATM    7  C   UNL     1      -7.206  13.905  68.811  1.00  0.00    -0.106 C  
BRANCH   7   8
HETATM    8  C   UNL     1      -7.457  14.735  67.550  1.00  0.00    -0.221 C  
BRANCH   8   9
HETATM    9  C   UNL     1      -8.717  15.608  67.589  1.00  0.00    -0.182 C  
HETATM   10  C   UNL     1      -8.689  16.718  68.679  1.00  0.00    -0.255 C  
HETATM   11  C   UNL     1      -9.702  16.338  69.787  1.00  0.00     0.082 C  
HETATM   12  C   UNL     1     -10.511  15.230  69.173  1.00  0.00    -0.247 A  
HETATM   13  C   UNL     1      -9.952  14.838  67.939  1.00  0.00    -0.213 A  
HETATM   14  C   UNL     1     -10.644  13.819  67.282  1.00  0.00    -0.275 A  
HETATM   15  C   UNL     1     -11.755  13.320  67.958  1.00  0.00    -0.359 A  
HETATM   16  O   UNL     1     -12.368  12.299  67.245  1.00  0.00    -0.363 OA 
HETATM   17  C   UNL     1     -12.280  13.704  69.178  1.00  0.00    -0.265 A  
HETATM   18  C   UNL     1     -11.625  14.724  69.823  1.00  0.00    -0.338 A  
HETATM   19  C   UNL     1     -11.598  12.136  66.025  1.00  0.00    -0.358 C  
HETATM   20  C   UNL     1     -10.435  13.134  66.004  1.00  0.00    -0.291 C  
ENDBRANCH   8   9
ENDBRANCH   7   8
ENDBRANCH   5   7
ENDBRANCH   2   3
TORSDOF 4
ENDMDL
MODEL      281
REMARK 921   NORMALIZED FREE ENERGY PREDICTED BY IDOCK:   -3.08 KCAL/MOL
REMARK 922        TOTAL FREE ENERGY PREDICTED BY IDOCK:   -4.01 KCAL/MOL
REMARK 923 INTER-LIGAND FREE ENERGY PREDICTED BY IDOCK:   -3.72 KCAL/MOL
REMARK 924 INTRA-LIGAND FREE ENERGY PREDICTED BY IDOCK:   -0.29 KCAL/MOL
REMARK 927      BINDING AFFINITY PREDICTED BY RF-SCORE:    0.00 PKD
ROOT
HETATM    1  C   UNL     1      -6.575   6.620  65.881  1.00  0.00    -0.044 C  
HETATM    2  C   UNL     1      -7.722   5.627  65.943  1.00  0.00    -0.095 C  
ENDROOT
BRANCH   2   3
HETATM    3  C   UNL     1      -8.733   5.999  67.009  1.00  0.00    -0.110 C  
HETATM    4  O   UNL     1      -9.599   5.235  67.423  1.00  0.00    -0.123 OA 
HETATM    5  N   UNL     1      -8.582   7.289  67.470  1.00  0.00    -0.122 N  
HETATM    6  H   UNL     1      -7.832   7.868  67.093  1.00  0.00     0.000 HD 
BRANCH   5   7
HETATM    7  C   UNL     1      -9.466   7.843  68.478  1.00  0.00    -0.148 C  
BRANCH   7   8
HETATM    8  C   UNL     1      -9.889   9.272  68.129  1.00  0.00    -0.185 C  
BRANCH   8   9
HETATM    9  C   UNL     1     -10.122  10.192  69.334  1.00  0.00    -0.250 C  
HETATM   10  C   UNL     1     -11.461   9.934  70.083  1.00  0.00    -0.309 C  
HETATM   11  C   UNL     1     -12.410  11.126  69.809  1.00  0.00    -0.315 C  
HETATM   12  C   UNL     1     -11.514  12.171  69.208  1.00  0.00    -0.363 A  
HETATM   13  C   UNL     1     -10.234  11.636  68.955  1.00  0.00    -0.143 A  
HETATM   14  C   UNL     1      -9.321  12.538  68.406  1.00  0.00    -0.149 A  
HETATM   15  C   UNL     1      -9.820  13.816  68.158  1.00  0.00    -0.239 A  
HETATM   16  O   UNL     1      -8.854  14.638  67.594  1.00  0.00    -0.169 OA 
HETATM   17  C   UNL     1     -11.085  14.319  68.396  1.00  0.00    -0.274 A  
HETATM   18  C   UNL     1     -11.985  13.450  68.960  1.00  0.00    -0.357 A  
HETATM   19  C   UNL     1      -7.652  13.833  67.479  1.00  0.00    -0.173 C  
HETATM   20  C   UNL     1      -7.915  12.420  68.012  1.00  0.00    -0.155 C  
ENDBRANCH   8   9
ENDBRANCH   7   8
ENDBRANCH   5   7
ENDBRANCH   2   3
TORSDOF 4
ENDMDL
MODEL      282
REMARK 921   NORMALIZED FREE ENERGY PREDICTED BY IDOCK:   -3.07 KCAL/MOL
REMARK 922        TOTAL FREE ENERGY PREDICTED BY IDOCK:   -3.99 KCAL/MOL
REMARK 923 INTER-LIGAND FREE ENERGY PREDICTED BY IDOCK:   -3.03 KCAL/MOL
REMARK 924 INTRA-LIGAND FREE ENERGY PREDICTED BY IDOCK:   -0.96 KCAL/MOL
REMARK 927      BINDING AFFINITY PREDICTED BY RF-SCORE:    0.00 PKD
ROOT
HETATM    1  C   UNL     1      -5.963   5.326  69.180  1.00  0.00    -0.024 C  
HETATM    2  C   UNL     1      -5.963   4.851  70.622  1.00  0.00    -0.018 C  
ENDROOT
BRANCH   2   3
HETATM    3  C   UNL     1      -7.280   5.144  71.312  1.00  0.00    -0.069 C  
HETATM    4  O   UNL     1      -8.336   4.588  71.028  1.00  0.00    -0.089 OA 
HETATM    5  N   UNL     1      -7.173   6.103  72.296  1.00  0.00    -0.087 N  
HETATM    6  H   UNL     1      -6.262   6.516  72.492  1.00  0.00     0.000 HD 
BRANCH   5   7
HETATM    7  C   UNL     1      -8.328   6.540  73.059  1.00  0.00    -0.118 C  
BRANCH   7   8
HETATM    8  C   UNL     1      -8.546   8.049  72.933  1.00  0.00    -0.256 C  
BRANCH   8   9
HETATM    9  C   UNL     1      -9.711   8.463  72.026  1.00  0.00    -0.353 C  
HETATM   10  C   UNL     1     -11.051   7.736  72.339  1.00  0.00    -0.379 C  
HETATM   11  C   UNL     1     -11.351   6.747  71.186  1.00  0.00    -0.342 C  
HETATM   12  C   UNL     1     -10.389   7.152  70.104  1.00  0.00    -0.218 A  
HETATM   13  C   UNL     1      -9.483   8.118  70.587  1.00  0.00    -0.174 A  
HETATM   14  C   UNL     1      -8.554   8.569  69.647  1.00  0.00    -0.131 A  
HETATM   15  C   UNL     1      -8.638   7.972  68.391  1.00  0.00    -0.127 A  
HETATM   16  O   UNL     1      -7.667   8.463  67.529  1.00  0.00    -0.096 OA 
HETATM   17  C   UNL     1      -9.523   7.012  67.939  1.00  0.00    -0.128 A  
HETATM   18  C   UNL     1     -10.460   6.579  68.844  1.00  0.00    -0.249 A  
HETATM   19  C   UNL     1      -6.912   9.446  68.284  1.00  0.00    -0.071 C  
HETATM   20  C   UNL     1      -7.471   9.554  69.708  1.00  0.00    -0.098 C  
ENDBRANCH   8   9
ENDBRANCH   7   8
ENDBRANCH   5   7
ENDBRANCH   2   3
TORSDOF 4
ENDMDL
MODEL      283
REMARK 921   NORMALIZED FREE ENERGY PREDICTED BY IDOCK:   -3.06 KCAL/MOL
REMARK 922        TOTAL FREE ENERGY PREDICTED BY IDOCK:   -3.98 KCAL/MOL
REMARK 923 INTER-LIGAND FREE ENERGY PREDICTED BY IDOCK:   -3.65 KCAL/MOL
REMARK 924 INTRA-LIGAND FREE ENERGY PREDICTED BY IDOCK:   -0.33 KCAL/MOL
REMARK 927      BINDING AFFINITY PREDICTED BY RF-SCORE:    0.00 PKD
ROOT
HETATM    1  C   UNL     1     -12.298  12.567  64.301  1.00  0.00    -0.541 C  
HETATM    2  C   UNL     1     -12.143  13.423  65.546  1.00  0.00    -0.467 C  
ENDROOT
BRANCH   2   3
HETATM    3  C   UNL     1     -11.681  12.607  66.737  1.00  0.00    -0.392 C  
HETATM    4  O   UNL     1     -11.811  12.969  67.902  1.00  0.00    -0.344 OA 
HETATM    5  N   UNL     1     -11.096  11.412  66.379  1.00  0.00    -0.277 N  
HETATM    6  H   UNL     1     -11.032  11.164  65.392  1.00  0.00     0.000 HD 
BRANCH   5   7
HETATM    7  C   UNL     1     -10.568  10.497  67.374  1.00  0.00    -0.263 C  
BRANCH   7   8
HETATM    8  C   UNL     1      -9.435   9.640  66.804  1.00  0.00    -0.209 C  
BRANCH   8   9
HETATM    9  C   UNL     1      -8.123   9.689  67.598  1.00  0.00    -0.113 C  
HETATM   10  C   UNL     1      -6.877  10.066  66.746  1.00  0.00    -0.081 C  
HETATM   11  C   UNL     1      -5.988   8.806  66.599  1.00  0.00    -0.053 C  
HETATM   12  C   UNL     1      -6.546   7.850  67.614  1.00  0.00    -0.060 A  
HETATM   13  C   UNL     1      -7.737   8.361  68.171  1.00  0.00    -0.103 A  
HETATM   14  C   UNL     1      -8.326   7.547  69.139  1.00  0.00    -0.135 A  
HETATM   15  C   UNL     1      -7.673   6.340  69.383  1.00  0.00    -0.100 A  
HETATM   16  O   UNL     1      -8.337   5.587  70.341  1.00  0.00    -0.107 OA 
HETATM   17  C   UNL     1      -6.514   5.846  68.814  1.00  0.00    -0.049 A  
HETATM   18  C   UNL     1      -5.909   6.648  67.880  1.00  0.00    -0.023 A  
HETATM   19  C   UNL     1      -9.493   6.367  70.742  1.00  0.00    -0.169 C  
HETATM   20  C   UNL     1      -9.527   7.689  69.966  1.00  0.00    -0.161 C  
ENDBRANCH   8   9
ENDBRANCH   7   8
ENDBRANCH   5   7
ENDBRANCH   2   3
TORSDOF 4
ENDMDL
MODEL      284
REMARK 921   NORMALIZED FREE ENERGY PREDICTED BY IDOCK:   -3.05 KCAL/MOL
REMARK 922        TOTAL FREE ENERGY PREDICTED BY IDOCK:   -3.97 KCAL/MOL
REMARK 923 INTER-LIGAND FREE ENERGY PREDICTED BY IDOCK:   -3.60 KCAL/MOL
REMARK 924 INTRA-LIGAND FREE ENERGY PREDICTED BY IDOCK:   -0.37 KCAL/MOL
REMARK 927      BINDING AFFINITY PREDICTED BY RF-SCORE:    0.00 PKD
ROOT
HETATM    1  C   UNL     1     -12.275  13.550  70.559  1.00  0.00    -0.433 C  
HETATM    2  C   UNL     1     -11.833  14.364  69.355  1.00  0.00    -0.369 C  
ENDROOT
BRANCH   2   3
HETATM    3  C   UNL     1     -11.126  13.508  68.324  1.00  0.00    -0.261 C  
HETATM    4  O   UNL     1     -10.288  13.938  67.539  1.00  0.00    -0.242 OA 
HETATM    5  N   UNL     1     -11.523  12.188  68.354  1.00  0.00    -0.279 N  
HETATM    6  H   UNL     1     -12.215  11.892  69.041  1.00  0.00     0.000 HD 
BRANCH   5   7
HETATM    7  C   UNL     1     -10.980  11.210  67.430  1.00  0.00    -0.290 C  
BRANCH   7   8
HETATM    8  C   UNL     1      -9.933  10.321  68.104  1.00  0.00    -0.168 C  
BRANCH   8   9
HETATM    9  C   UNL     1     -10.213   8.815  68.025  1.00  0.00    -0.264 C  
HETATM   10  C   UNL     1     -10.328   8.115  69.410  1.00  0.00    -0.219 C  
HETATM   11  C   UNL     1      -9.082   7.216  69.606  1.00  0.00    -0.140 C  
HETATM   12  C   UNL     1      -8.462   7.155  68.239  1.00  0.00    -0.124 A  
HETATM   13  C   UNL     1      -9.111   8.049  67.362  1.00  0.00    -0.147 A  
HETATM   14  C   UNL     1      -8.613   8.054  66.059  1.00  0.00    -0.162 A  
HETATM   15  C   UNL     1      -7.531   7.206  65.829  1.00  0.00    -0.081 A  
HETATM   16  O   UNL     1      -7.088   7.291  64.516  1.00  0.00    -0.053 OA 
HETATM   17  C   UNL     1      -6.895   6.348  66.706  1.00  0.00    -0.066 A  
HETATM   18  C   UNL     1      -7.391   6.312  67.985  1.00  0.00    -0.089 A  
HETATM   19  C   UNL     1      -7.950   8.256  63.858  1.00  0.00    -0.146 C  
HETATM   20  C   UNL     1      -8.988   8.793  64.850  1.00  0.00    -0.065 C  
ENDBRANCH   8   9
ENDBRANCH   7   8
ENDBRANCH   5   7
ENDBRANCH   2   3
TORSDOF 4
ENDMDL
MODEL      285
REMARK 921   NORMALIZED FREE ENERGY PREDICTED BY IDOCK:   -3.04 KCAL/MOL
REMARK 922        TOTAL FREE ENERGY PREDICTED BY IDOCK:   -3.96 KCAL/MOL
REMARK 923 INTER-LIGAND FREE ENERGY PREDICTED BY IDOCK:   -3.61 KCAL/MOL
REMARK 924 INTRA-LIGAND FREE ENERGY PREDICTED BY IDOCK:   -0.34 KCAL/MOL
REMARK 927      BINDING AFFINITY PREDICTED BY RF-SCORE:    0.00 PKD
ROOT
HETATM    1  C   UNL     1      -7.300   4.372  64.634  1.00  0.00    -0.071 C  
HETATM    2  C   UNL     1      -7.908   5.735  64.915  1.00  0.00    -0.113 C  
ENDROOT
BRANCH   2   3
HETATM    3  C   UNL     1      -8.026   6.004  66.402  1.00  0.00    -0.105 C  
HETATM    4  O   UNL     1      -7.756   7.080  66.924  1.00  0.00    -0.099 OA 
HETATM    5  N   UNL     1      -8.468   4.910  67.115  1.00  0.00    -0.106 N  
HETATM    6  H   UNL     1      -8.688   4.047  66.618  1.00  0.00     0.000 HD 
BRANCH   5   7
HETATM    7  C   UNL     1      -8.626   4.957  68.557  1.00  0.00    -0.093 C  
BRANCH   7   8
HETATM    8  C   UNL     1     -10.059   4.621  68.976  1.00  0.00    -0.117 C  
BRANCH   8   9
HETATM    9  C   UNL     1     -10.919   5.827  69.372  1.00  0.00    -0.352 C  
HETATM   10  C   UNL     1     -10.955   6.961  68.307  1.00  0.00    -0.208 C  
HETATM   11  C   UNL     1     -10.155   8.169  68.854  1.00  0.00    -0.211 C  
HETATM   12  C   UNL     1      -9.967   7.848  70.310  1.00  0.00    -0.189 A  
HETATM   13  C   UNL     1     -10.406   6.537  70.587  1.00  0.00    -0.239 A  
HETATM   14  C   UNL     1     -10.284   6.149  71.922  1.00  0.00    -0.231 A  
HETATM   15  C   UNL     1      -9.715   7.097  72.769  1.00  0.00    -0.158 A  
HETATM   16  O   UNL     1      -9.612   6.621  74.069  1.00  0.00    -0.186 OA 
HETATM   17  C   UNL     1      -9.273   8.374  72.478  1.00  0.00    -0.338 A  
HETATM   18  C   UNL     1      -9.411   8.779  71.174  1.00  0.00    -0.306 A  
HETATM   19  C   UNL     1     -10.158   5.276  74.054  1.00  0.00    -0.220 C  
HETATM   20  C   UNL     1     -10.623   4.916  72.638  1.00  0.00    -0.272 C  
ENDBRANCH   8   9
ENDBRANCH   7   8
ENDBRANCH   5   7
ENDBRANCH   2   3
TORSDOF 4
ENDMDL
MODEL      286
REMARK 921   NORMALIZED FREE ENERGY PREDICTED BY IDOCK:   -3.03 KCAL/MOL
REMARK 922        TOTAL FREE ENERGY PREDICTED BY IDOCK:   -3.94 KCAL/MOL
REMARK 923 INTER-LIGAND FREE ENERGY PREDICTED BY IDOCK:   -3.62 KCAL/MOL
REMARK 924 INTRA-LIGAND FREE ENERGY PREDICTED BY IDOCK:   -0.32 KCAL/MOL
REMARK 927      BINDING AFFINITY PREDICTED BY RF-SCORE:    0.00 PKD
ROOT
HETATM    1  C   UNL     1     -10.666  11.263  65.085  1.00  0.00    -0.312 C  
HETATM    2  C   UNL     1     -11.522  12.091  66.027  1.00  0.00    -0.399 C  
ENDROOT
BRANCH   2   3
HETATM    3  C   UNL     1     -11.143  11.867  67.477  1.00  0.00    -0.273 C  
HETATM    4  O   UNL     1     -10.473  12.655  68.137  1.00  0.00    -0.217 OA 
HETATM    5  N   UNL     1     -11.626  10.680  67.985  1.00  0.00    -0.421 N  
HETATM    6  H   UNL     1     -12.189  10.075  67.386  1.00  0.00     0.000 HD 
BRANCH   5   7
HETATM    7  C   UNL     1     -11.353  10.270  69.349  1.00  0.00    -0.221 C  
BRANCH   7   8
HETATM    8  C   UNL     1     -11.003   8.782  69.429  1.00  0.00    -0.046 C  
BRANCH   8   9
HETATM    9  C   UNL     1      -9.503   8.466  69.399  1.00  0.00    -0.158 C  
HETATM   10  C   UNL     1      -8.746   9.086  68.190  1.00  0.00    -0.130 C  
HETATM   11  C   UNL     1      -8.347   7.942  67.225  1.00  0.00    -0.122 C  
HETATM   12  C   UNL     1      -8.576   6.694  68.031  1.00  0.00    -0.118 A  
HETATM   13  C   UNL     1      -9.216   7.004  69.249  1.00  0.00    -0.139 A  
HETATM   14  C   UNL     1      -9.460   5.907  70.077  1.00  0.00    -0.189 A  
HETATM   15  C   UNL     1      -9.069   4.673  69.562  1.00  0.00    -0.110 A  
HETATM   16  O   UNL     1      -9.367   3.639  70.440  1.00  0.00    -0.135 OA 
HETATM   17  C   UNL     1      -8.458   4.384  68.357  1.00  0.00    -0.101 A  
HETATM   18  C   UNL     1      -8.188   5.456  67.544  1.00  0.00    -0.100 A  
HETATM   19  C   UNL     1      -9.987   4.255  71.598  1.00  0.00    -0.180 C  
HETATM   20  C   UNL     1     -10.069   5.774  71.403  1.00  0.00    -0.249 C  
ENDBRANCH   8   9
ENDBRANCH   7   8
ENDBRANCH   5   7
ENDBRANCH   2   3
TORSDOF 4
ENDMDL
MODEL      287
REMARK 921   NORMALIZED FREE ENERGY PREDICTED BY IDOCK:   -3.02 KCAL/MOL
REMARK 922        TOTAL FREE ENERGY PREDICTED BY IDOCK:   -3.92 KCAL/MOL
REMARK 923 INTER-LIGAND FREE ENERGY PREDICTED BY IDOCK:   -3.35 KCAL/MOL
REMARK 924 INTRA-LIGAND FREE ENERGY PREDICTED BY IDOCK:   -0.58 KCAL/MOL
REMARK 927      BINDING AFFINITY PREDICTED BY RF-SCORE:    0.00 PKD
ROOT
HETATM    1  C   UNL     1      -7.053  10.546  68.827  1.00  0.00    -0.073 C  
HETATM    2  C   UNL     1      -7.261   9.048  68.683  1.00  0.00    -0.072 C  
ENDROOT
BRANCH   2   3
HETATM    3  C   UNL     1      -8.717   8.663  68.848  1.00  0.00    -0.131 C  
HETATM    4  O   UNL     1      -9.367   8.874  69.866  1.00  0.00    -0.156 OA 
HETATM    5  N   UNL     1      -9.242   8.046  67.733  1.00  0.00    -0.134 N  
HETATM    6  H   UNL     1      -8.651   7.912  66.913  1.00  0.00     0.000 HD 
BRANCH   5   7
HETATM    7  C   UNL     1     -10.616   7.580  67.699  1.00  0.00    -0.233 C  
BRANCH   7   8
HETATM    8  C   UNL     1     -10.707   6.134  67.207  1.00  0.00    -0.414 C  
BRANCH   8   9
HETATM    9  C   UNL     1      -9.399   5.337  67.289  1.00  0.00    -0.123 C  
HETATM   10  C   UNL     1      -9.032   4.579  65.981  1.00  0.00    -0.122 C  
HETATM   11  C   UNL     1      -9.216   3.061  66.229  1.00  0.00    -0.126 C  
HETATM   12  C   UNL     1      -9.354   2.954  67.722  1.00  0.00    -0.247 A  
HETATM   13  C   UNL     1      -9.447   4.236  68.302  1.00  0.00    -0.212 A  
HETATM   14  C   UNL     1      -9.565   4.241  69.693  1.00  0.00    -0.275 A  
HETATM   15  C   UNL     1      -9.610   2.984  70.292  1.00  0.00    -0.090 A  
HETATM   16  O   UNL     1      -9.749   3.082  71.670  1.00  0.00    -0.146 OA 
HETATM   17  C   UNL     1      -9.536   1.734  69.706  1.00  0.00    -0.124 A  
HETATM   18  C   UNL     1      -9.392   1.715  68.341  1.00  0.00    -0.241 A  
HETATM   19  C   UNL     1      -9.791   4.501  71.974  1.00  0.00    -0.178 C  
HETATM   20  C   UNL     1      -9.669   5.317  70.682  1.00  0.00    -0.249 C  
ENDBRANCH   8   9
ENDBRANCH   7   8
ENDBRANCH   5   7
ENDBRANCH   2   3
TORSDOF 4
ENDMDL
MODEL      288
REMARK 921   NORMALIZED FREE ENERGY PREDICTED BY IDOCK:   -3.01 KCAL/MOL
REMARK 922        TOTAL FREE ENERGY PREDICTED BY IDOCK:   -3.92 KCAL/MOL
REMARK 923 INTER-LIGAND FREE ENERGY PREDICTED BY IDOCK:   -3.62 KCAL/MOL
REMARK 924 INTRA-LIGAND FREE ENERGY PREDICTED BY IDOCK:   -0.30 KCAL/MOL
REMARK 927      BINDING AFFINITY PREDICTED BY RF-SCORE:    0.00 PKD
ROOT
HETATM    1  C   UNL     1      -9.864   9.183  70.027  1.00  0.00    -0.217 C  
HETATM    2  C   UNL     1     -10.255   9.096  68.562  1.00  0.00    -0.223 C  
ENDROOT
BRANCH   2   3
HETATM    3  C   UNL     1      -9.554  10.148  67.727  1.00  0.00    -0.148 C  
HETATM    4  O   UNL     1      -8.384  10.065  67.369  1.00  0.00    -0.118 OA 
HETATM    5  N   UNL     1     -10.365  11.217  67.411  1.00  0.00    -0.189 N  
HETATM    6  H   UNL     1     -11.334  11.217  67.729  1.00  0.00     0.000 HD 
BRANCH   5   7
HETATM    7  C   UNL     1      -9.874  12.341  66.636  1.00  0.00    -0.220 C  
BRANCH   7   8
HETATM    8  C   UNL     1     -10.048  13.661  67.390  1.00  0.00    -0.241 C  
BRANCH   8   9
HETATM    9  C   UNL     1     -11.214  14.533  66.910  1.00  0.00    -0.340 C  
HETATM   10  C   UNL     1     -11.613  14.302  65.424  1.00  0.00    -0.346 C  
HETATM   11  C   UNL     1     -11.191  15.547  64.606  1.00  0.00    -0.381 C  
HETATM   12  C   UNL     1     -10.876  16.577  65.654  1.00  0.00    -0.165 A  
HETATM   13  C   UNL     1     -10.900  15.997  66.939  1.00  0.00    -0.203 A  
HETATM   14  C   UNL     1     -10.632  16.882  67.985  1.00  0.00    -0.367 A  
HETATM   15  C   UNL     1     -10.346  18.190  67.601  1.00  0.00    -0.397 A  
HETATM   16  O   UNL     1     -10.072  18.993  68.700  1.00  0.00    -0.381 OA 
HETATM   17  C   UNL     1     -10.309  18.739  66.334  1.00  0.00    -0.489 A  
HETATM   18  C   UNL     1     -10.597  17.887  65.297  1.00  0.00     0.281 A  
HETATM   19  C   UNL     1     -10.196  18.141  69.868  1.00  0.00     0.842 C  
HETATM   20  C   UNL     1     -10.573  16.718  69.440  1.00  0.00    -0.318 C  
ENDBRANCH   8   9
ENDBRANCH   7   8
ENDBRANCH   5   7
ENDBRANCH   2   3
TORSDOF 4
ENDMDL
MODEL      289
REMARK 921   NORMALIZED FREE ENERGY PREDICTED BY IDOCK:   -2.99 KCAL/MOL
REMARK 922        TOTAL FREE ENERGY PREDICTED BY IDOCK:   -3.89 KCAL/MOL
REMARK 923 INTER-LIGAND FREE ENERGY PREDICTED BY IDOCK:   -3.33 KCAL/MOL
REMARK 924 INTRA-LIGAND FREE ENERGY PREDICTED BY IDOCK:   -0.57 KCAL/MOL
REMARK 927      BINDING AFFINITY PREDICTED BY RF-SCORE:    0.00 PKD
ROOT
HETATM    1  C   UNL     1     -13.110   8.894  72.273  1.00  0.00    -0.491 C  
HETATM    2  C   UNL     1     -13.119   7.501  71.667  1.00  0.00    -0.401 C  
ENDROOT
BRANCH   2   3
HETATM    3  C   UNL     1     -12.034   7.333  70.623  1.00  0.00    -0.220 C  
HETATM    4  O   UNL     1     -11.765   6.264  70.085  1.00  0.00    -0.398 OA 
HETATM    5  N   UNL     1     -11.372   8.508  70.337  1.00  0.00    -0.391 N  
HETATM    6  H   UNL     1     -11.655   9.366  70.810  1.00  0.00     0.000 HD 
BRANCH   5   7
HETATM    7  C   UNL     1     -10.284   8.553  69.379  1.00  0.00    -0.211 C  
BRANCH   7   8
HETATM    8  C   UNL     1      -8.933   8.749  70.072  1.00  0.00    -0.162 C  
BRANCH   8   9
HETATM    9  C   UNL     1      -7.902   7.645  69.808  1.00  0.00    -0.110 C  
HETATM   10  C   UNL     1      -8.410   6.509  68.873  1.00  0.00    -0.122 C  
HETATM   11  C   UNL     1      -8.605   5.229  69.722  1.00  0.00    -0.102 C  
HETATM   12  C   UNL     1      -7.910   5.545  71.016  1.00  0.00    -0.105 A  
HETATM   13  C   UNL     1      -7.515   6.898  71.046  1.00  0.00    -0.083 A  
HETATM   14  C   UNL     1      -6.845   7.286  72.208  1.00  0.00    -0.059 A  
HETATM   15  C   UNL     1      -6.700   6.291  73.173  1.00  0.00    -0.074 A  
HETATM   16  O   UNL     1      -6.044   6.768  74.300  1.00  0.00    -0.063 OA 
HETATM   17  C   UNL     1      -7.110   4.972  73.135  1.00  0.00    -0.084 A  
HETATM   18  C   UNL     1      -7.746   4.570  71.987  1.00  0.00    -0.089 A  
HETATM   19  C   UNL     1      -5.743   8.163  74.035  1.00  0.00    -0.076 C  
HETATM   20  C   UNL     1      -6.258   8.555  72.645  1.00  0.00    -0.087 C  
ENDBRANCH   8   9
ENDBRANCH   7   8
ENDBRANCH   5   7
ENDBRANCH   2   3
TORSDOF 4
ENDMDL
MODEL      290
REMARK 921   NORMALIZED FREE ENERGY PREDICTED BY IDOCK:   -2.99 KCAL/MOL
REMARK 922        TOTAL FREE ENERGY PREDICTED BY IDOCK:   -3.89 KCAL/MOL
REMARK 923 INTER-LIGAND FREE ENERGY PREDICTED BY IDOCK:   -3.63 KCAL/MOL
REMARK 924 INTRA-LIGAND FREE ENERGY PREDICTED BY IDOCK:   -0.26 KCAL/MOL
REMARK 927      BINDING AFFINITY PREDICTED BY RF-SCORE:    0.00 PKD
ROOT
HETATM    1  C   UNL     1      -9.668   6.653  71.606  1.00  0.00    -0.170 C  
HETATM    2  C   UNL     1     -10.566   7.266  70.545  1.00  0.00    -0.237 C  
ENDROOT
BRANCH   2   3
HETATM    3  C   UNL     1      -9.771   8.028  69.505  1.00  0.00    -0.170 C  
HETATM    4  O   UNL     1      -8.627   7.734  69.172  1.00  0.00    -0.136 OA 
HETATM    5  N   UNL     1     -10.463   9.092  68.968  1.00  0.00    -0.222 N  
HETATM    6  H   UNL     1     -11.417   9.273  69.280  1.00  0.00     0.000 HD 
BRANCH   5   7
HETATM    7  C   UNL     1      -9.866   9.961  67.971  1.00  0.00    -0.147 C  
BRANCH   7   8
HETATM    8  C   UNL     1      -9.838  11.417  68.440  1.00  0.00    -0.205 C  
BRANCH   8   9
HETATM    9  C   UNL     1      -9.030  12.369  67.549  1.00  0.00    -0.183 C  
HETATM   10  C   UNL     1      -7.532  11.980  67.394  1.00  0.00    -0.152 C  
HETATM   11  C   UNL     1      -6.677  13.015  68.167  1.00  0.00    -0.103 C  
HETATM   12  C   UNL     1      -7.639  14.132  68.458  1.00  0.00    -0.129 A  
HETATM   13  C   UNL     1      -8.951  13.759  68.100  1.00  0.00    -0.190 A  
HETATM   14  C   UNL     1      -9.918  14.741  68.322  1.00  0.00    -0.222 A  
HETATM   15  C   UNL     1      -9.450  15.921  68.895  1.00  0.00    -0.234 A  
HETATM   16  O   UNL     1     -10.479  16.830  69.099  1.00  0.00    -0.307 OA 
HETATM   17  C   UNL     1      -8.161  16.264  69.257  1.00  0.00    -0.148 A  
HETATM   18  C   UNL     1      -7.195  15.318  69.020  1.00  0.00    -0.151 A  
HETATM   19  C   UNL     1     -11.689  16.189  68.618  1.00  0.00    -0.205 C  
HETATM   20  C   UNL     1     -11.363  14.789  68.086  1.00  0.00    -0.324 C  
ENDBRANCH   8   9
ENDBRANCH   7   8
ENDBRANCH   5   7
ENDBRANCH   2   3
TORSDOF 4
ENDMDL
MODEL      291
REMARK 921   NORMALIZED FREE ENERGY PREDICTED BY IDOCK:   -2.97 KCAL/MOL
REMARK 922        TOTAL FREE ENERGY PREDICTED BY IDOCK:   -3.87 KCAL/MOL
REMARK 923 INTER-LIGAND FREE ENERGY PREDICTED BY IDOCK:   -3.97 KCAL/MOL
REMARK 924 INTRA-LIGAND FREE ENERGY PREDICTED BY IDOCK:    0.10 KCAL/MOL
REMARK 927      BINDING AFFINITY PREDICTED BY RF-SCORE:    0.00 PKD
ROOT
HETATM    1  C   UNL     1      -6.236   8.106  68.939  1.00  0.00    -0.040 C  
HETATM    2  C   UNL     1      -6.789   7.268  70.080  1.00  0.00    -0.055 C  
ENDROOT
BRANCH   2   3
HETATM    3  C   UNL     1      -8.300   7.349  70.158  1.00  0.00    -0.136 C  
HETATM    4  O   UNL     1      -9.051   6.919  69.289  1.00  0.00    -0.140 OA 
HETATM    5  N   UNL     1      -8.750   7.959  71.309  1.00  0.00    -0.130 N  
HETATM    6  H   UNL     1      -8.072   8.282  71.999  1.00  0.00     0.000 HD 
BRANCH   5   7
HETATM    7  C   UNL     1     -10.165   8.154  71.562  1.00  0.00    -0.206 C  
BRANCH   7   8
HETATM    8  C   UNL     1     -10.579   9.611  71.344  1.00  0.00    -0.185 C  
BRANCH   8   9
HETATM    9  C   UNL     1     -11.229   9.905  69.987  1.00  0.00    -0.327 C  
HETATM   10  C   UNL     1     -10.339   9.543  68.763  1.00  0.00    -0.228 C  
HETATM   11  C   UNL     1      -9.870  10.859  68.095  1.00  0.00    -0.187 C  
HETATM   12  C   UNL     1     -10.741  11.911  68.720  1.00  0.00    -0.257 A  
HETATM   13  C   UNL     1     -11.502  11.361  69.772  1.00  0.00    -0.376 A  
HETATM   14  C   UNL     1     -12.357  12.262  70.408  1.00  0.00    -0.309 A  
HETATM   15  C   UNL     1     -12.303  13.572  69.936  1.00  0.00    -0.224 A  
HETATM   16  O   UNL     1     -13.167  14.402  70.637  1.00  0.00    -0.322 OA 
HETATM   17  C   UNL     1     -11.537  14.099  68.914  1.00  0.00    -0.345 A  
HETATM   18  C   UNL     1     -10.711  13.219  68.261  1.00  0.00    -0.267 A  
HETATM   19  C   UNL     1     -13.823  13.564  71.624  1.00  0.00    -0.109 C  
HETATM   20  C   UNL     1     -13.315  12.122  71.508  1.00  0.00    -0.126 C  
ENDBRANCH   8   9
ENDBRANCH   7   8
ENDBRANCH   5   7
ENDBRANCH   2   3
TORSDOF 4
ENDMDL
MODEL      292
REMARK 921   NORMALIZED FREE ENERGY PREDICTED BY IDOCK:   -2.96 KCAL/MOL
REMARK 922        TOTAL FREE ENERGY PREDICTED BY IDOCK:   -3.85 KCAL/MOL
REMARK 923 INTER-LIGAND FREE ENERGY PREDICTED BY IDOCK:   -3.52 KCAL/MOL
REMARK 924 INTRA-LIGAND FREE ENERGY PREDICTED BY IDOCK:   -0.34 KCAL/MOL
REMARK 927      BINDING AFFINITY PREDICTED BY RF-SCORE:    0.00 PKD
ROOT
HETATM    1  C   UNL     1     -12.464  11.720  70.718  1.00  0.00    -0.405 C  
HETATM    2  C   UNL     1     -13.036  10.334  70.958  1.00  0.00    -0.488 C  
ENDROOT
BRANCH   2   3
HETATM    3  C   UNL     1     -11.945   9.307  71.189  1.00  0.00    -0.322 C  
HETATM    4  O   UNL     1     -11.727   8.777  72.274  1.00  0.00    -0.363 OA 
HETATM    5  N   UNL     1     -11.216   9.027  70.053  1.00  0.00    -0.392 N  
HETATM    6  H   UNL     1     -11.459   9.494  69.179  1.00  0.00     0.000 HD 
BRANCH   5   7
HETATM    7  C   UNL     1     -10.113   8.086  70.072  1.00  0.00    -0.196 C  
BRANCH   7   8
HETATM    8  C   UNL     1      -9.899   7.444  68.699  1.00  0.00    -0.165 C  
BRANCH   8   9
HETATM    9  C   UNL     1      -8.449   7.059  68.382  1.00  0.00    -0.123 C  
HETATM   10  C   UNL     1      -7.571   6.793  69.639  1.00  0.00    -0.101 C  
HETATM   11  C   UNL     1      -6.552   7.952  69.776  1.00  0.00    -0.034 C  
HETATM   12  C   UNL     1      -6.634   8.663  68.454  1.00  0.00    -0.060 A  
HETATM   13  C   UNL     1      -7.695   8.147  67.682  1.00  0.00    -0.102 A  
HETATM   14  C   UNL     1      -7.844   8.737  66.425  1.00  0.00    -0.099 A  
HETATM   15  C   UNL     1      -6.950   9.767  66.140  1.00  0.00    -0.095 A  
HETATM   16  O   UNL     1      -7.182  10.308  64.883  1.00  0.00    -0.136 OA 
HETATM   17  C   UNL     1      -5.925  10.273  66.917  1.00  0.00    -0.052 A  
HETATM   18  C   UNL     1      -5.750   9.684  68.144  1.00  0.00    -0.040 A  
HETATM   19  C   UNL     1      -8.300   9.570  64.323  1.00  0.00    -0.170 C  
HETATM   20  C   UNL     1      -8.776   8.506  65.319  1.00  0.00    -0.175 C  
ENDBRANCH   8   9
ENDBRANCH   7   8
ENDBRANCH   5   7
ENDBRANCH   2   3
TORSDOF 4
ENDMDL
MODEL      293
REMARK 921   NORMALIZED FREE ENERGY PREDICTED BY IDOCK:   -2.96 KCAL/MOL
REMARK 922        TOTAL FREE ENERGY PREDICTED BY IDOCK:   -3.85 KCAL/MOL
REMARK 923 INTER-LIGAND FREE ENERGY PREDICTED BY IDOCK:   -3.52 KCAL/MOL
REMARK 924 INTRA-LIGAND FREE ENERGY PREDICTED BY IDOCK:   -0.33 KCAL/MOL
REMARK 927      BINDING AFFINITY PREDICTED BY RF-SCORE:    0.00 PKD
ROOT
HETATM    1  C   UNL     1     -10.421  12.127  63.683  1.00  0.00    -0.495 C  
HETATM    2  C   UNL     1     -10.014  10.770  63.135  1.00  0.00    -0.341 C  
ENDROOT
BRANCH   2   3
HETATM    3  C   UNL     1      -9.360   9.907  64.194  1.00  0.00    -0.237 C  
HETATM    4  O   UNL     1      -8.429   9.140  63.970  1.00  0.00    -0.180 OA 
HETATM    5  N   UNL     1      -9.920  10.068  65.444  1.00  0.00    -0.308 N  
HETATM    6  H   UNL     1     -10.683  10.733  65.565  1.00  0.00     0.000 HD 
BRANCH   5   7
HETATM    7  C   UNL     1      -9.449   9.313  66.590  1.00  0.00    -0.191 C  
BRANCH   7   8
HETATM    8  C   UNL     1     -10.514   8.337  67.095  1.00  0.00    -0.386 C  
BRANCH   8   9
HETATM    9  C   UNL     1     -10.408   7.975  68.582  1.00  0.00    -0.224 C  
HETATM   10  C   UNL     1     -10.975   9.060  69.543  1.00  0.00    -0.118 C  
HETATM   11  C   UNL     1      -9.787   9.722  70.285  1.00  0.00    -0.296 C  
HETATM   12  C   UNL     1      -8.629   8.809  69.998  1.00  0.00    -0.136 A  
HETATM   13  C   UNL     1      -8.994   7.831  69.050  1.00  0.00    -0.145 A  
HETATM   14  C   UNL     1      -7.983   6.924  68.728  1.00  0.00    -0.120 A  
HETATM   15  C   UNL     1      -6.761   7.141  69.361  1.00  0.00    -0.049 A  
HETATM   16  O   UNL     1      -5.812   6.208  68.967  1.00  0.00    -0.018 OA 
HETATM   17  C   UNL     1      -6.415   8.116  70.276  1.00  0.00    -0.036 A  
HETATM   18  C   UNL     1      -7.406   9.000  70.623  1.00  0.00    -0.099 A  
HETATM   19  C   UNL     1      -6.474   5.329  68.020  1.00  0.00    -0.048 C  
HETATM   20  C   UNL     1      -7.931   5.767  67.829  1.00  0.00    -0.098 C  
ENDBRANCH   8   9
ENDBRANCH   7   8
ENDBRANCH   5   7
ENDBRANCH   2   3
TORSDOF 4
ENDMDL
MODEL      294
REMARK 921   NORMALIZED FREE ENERGY PREDICTED BY IDOCK:   -2.96 KCAL/MOL
REMARK 922        TOTAL FREE ENERGY PREDICTED BY IDOCK:   -3.85 KCAL/MOL
REMARK 923 INTER-LIGAND FREE ENERGY PREDICTED BY IDOCK:   -3.83 KCAL/MOL
REMARK 924 INTRA-LIGAND FREE ENERGY PREDICTED BY IDOCK:   -0.02 KCAL/MOL
REMARK 927      BINDING AFFINITY PREDICTED BY RF-SCORE:    0.00 PKD
ROOT
HETATM    1  C   UNL     1      -5.171   6.824  70.268  1.00  0.00    -0.018 C  
HETATM    2  C   UNL     1      -6.107   7.466  71.279  1.00  0.00    -0.036 C  
ENDROOT
BRANCH   2   3
HETATM    3  C   UNL     1      -7.337   8.051  70.615  1.00  0.00    -0.056 C  
HETATM    4  O   UNL     1      -8.433   8.131  71.161  1.00  0.00    -0.115 OA 
HETATM    5  N   UNL     1      -7.102   8.487  69.329  1.00  0.00    -0.058 N  
HETATM    6  H   UNL     1      -6.163   8.404  68.939  1.00  0.00     0.000 HD 
BRANCH   5   7
HETATM    7  C   UNL     1      -8.158   9.059  68.516  1.00  0.00    -0.107 C  
BRANCH   7   8
HETATM    8  C   UNL     1      -9.337   8.094  68.366  1.00  0.00    -0.135 C  
BRANCH   8   9
HETATM    9  C   UNL     1     -10.487   8.607  67.490  1.00  0.00    -0.335 C  
HETATM   10  C   UNL     1     -10.107   8.810  65.995  1.00  0.00    -0.031 C  
HETATM   11  C   UNL     1     -10.067  10.331  65.704  1.00  0.00    -0.341 C  
HETATM   12  C   UNL     1     -10.731  10.945  66.904  1.00  0.00    -0.318 A  
HETATM   13  C   UNL     1     -10.967   9.966  67.892  1.00  0.00    -0.281 A  
HETATM   14  C   UNL     1     -11.596  10.439  69.045  1.00  0.00    -0.220 A  
HETATM   15  C   UNL     1     -11.861  11.807  69.062  1.00  0.00    -0.317 A  
HETATM   16  O   UNL     1     -12.466  12.193  70.250  1.00  0.00    -0.198 OA 
HETATM   17  C   UNL     1     -11.607  12.757  68.091  1.00  0.00    -0.380 A  
HETATM   18  C   UNL     1     -11.013  12.301  66.940  1.00  0.00    -0.312 A  
HETATM   19  C   UNL     1     -12.602  10.988  71.047  1.00  0.00    -0.411 C  
HETATM   20  C   UNL     1     -12.035   9.787  70.281  1.00  0.00    -0.156 C  
ENDBRANCH   8   9
ENDBRANCH   7   8
ENDBRANCH   5   7
ENDBRANCH   2   3
TORSDOF 4
ENDMDL
MODEL      295
REMARK 921   NORMALIZED FREE ENERGY PREDICTED BY IDOCK:   -2.95 KCAL/MOL
REMARK 922        TOTAL FREE ENERGY PREDICTED BY IDOCK:   -3.84 KCAL/MOL
REMARK 923 INTER-LIGAND FREE ENERGY PREDICTED BY IDOCK:   -3.22 KCAL/MOL
REMARK 924 INTRA-LIGAND FREE ENERGY PREDICTED BY IDOCK:   -0.62 KCAL/MOL
REMARK 927      BINDING AFFINITY PREDICTED BY RF-SCORE:    0.00 PKD
ROOT
HETATM    1  C   UNL     1      -8.170   4.209  65.204  1.00  0.00    -0.102 C  
HETATM    2  C   UNL     1      -7.134   3.218  65.706  1.00  0.00    -0.066 C  
ENDROOT
BRANCH   2   3
HETATM    3  C   UNL     1      -7.110   3.144  67.219  1.00  0.00    -0.057 C  
HETATM    4  O   UNL     1      -6.336   3.787  67.921  1.00  0.00    -0.035 OA 
HETATM    5  N   UNL     1      -8.050   2.276  67.732  1.00  0.00    -0.063 N  
HETATM    6  H   UNL     1      -8.673   1.782  67.093  1.00  0.00     0.000 HD 
BRANCH   5   7
HETATM    7  C   UNL     1      -8.173   2.047  69.159  1.00  0.00    -0.048 C  
BRANCH   7   8
HETATM    8  C   UNL     1      -9.391   2.768  69.741  1.00  0.00    -0.199 C  
BRANCH   8   9
HETATM    9  C   UNL     1      -9.069   3.862  70.765  1.00  0.00    -0.175 C  
HETATM   10  C   UNL     1      -9.438   3.492  72.231  1.00  0.00    -0.183 C  
HETATM   11  C   UNL     1     -10.654   4.350  72.659  1.00  0.00    -0.233 C  
HETATM   12  C   UNL     1     -10.747   5.403  71.591  1.00  0.00    -0.266 A  
HETATM   13  C   UNL     1      -9.849   5.121  70.541  1.00  0.00    -0.285 A  
HETATM   14  C   UNL     1      -9.852   6.054  69.503  1.00  0.00    -0.202 A  
HETATM   15  C   UNL     1     -10.764   7.098  69.641  1.00  0.00    -0.239 A  
HETATM   16  O   UNL     1     -10.714   7.964  68.557  1.00  0.00    -0.144 OA 
HETATM   17  C   UNL     1     -11.651   7.350  70.670  1.00  0.00    -0.295 A  
HETATM   18  C   UNL     1     -11.640   6.456  71.711  1.00  0.00    -0.367 A  
HETATM   19  C   UNL     1      -9.696   7.440  67.665  1.00  0.00    -0.144 C  
HETATM   20  C   UNL     1      -9.088   6.163  68.257  1.00  0.00    -0.112 C  
ENDBRANCH   8   9
ENDBRANCH   7   8
ENDBRANCH   5   7
ENDBRANCH   2   3
TORSDOF 4
ENDMDL
MODEL      296
REMARK 921   NORMALIZED FREE ENERGY PREDICTED BY IDOCK:   -2.94 KCAL/MOL
REMARK 922        TOTAL FREE ENERGY PREDICTED BY IDOCK:   -3.84 KCAL/MOL
REMARK 923 INTER-LIGAND FREE ENERGY PREDICTED BY IDOCK:   -3.48 KCAL/MOL
REMARK 924 INTRA-LIGAND FREE ENERGY PREDICTED BY IDOCK:   -0.36 KCAL/MOL
REMARK 927      BINDING AFFINITY PREDICTED BY RF-SCORE:    0.00 PKD
ROOT
HETATM    1  C   UNL     1     -12.334  12.521  70.750  1.00  0.00    -0.376 C  
HETATM    2  C   UNL     1     -12.173  11.162  70.092  1.00  0.00    -0.417 C  
ENDROOT
BRANCH   2   3
HETATM    3  C   UNL     1     -11.889  10.074  71.108  1.00  0.00    -0.393 C  
HETATM    4  O   UNL     1     -12.665   9.760  72.005  1.00  0.00    -0.388 OA 
HETATM    5  N   UNL     1     -10.664   9.469  70.925  1.00  0.00    -0.310 N  
HETATM    6  H   UNL     1     -10.072   9.768  70.150  1.00  0.00     0.000 HD 
BRANCH   5   7
HETATM    7  C   UNL     1     -10.197   8.417  71.808  1.00  0.00    -0.253 C  
BRANCH   7   8
HETATM    8  C   UNL     1     -10.247   7.048  71.126  1.00  0.00    -0.208 C  
BRANCH   8   9
HETATM    9  C   UNL     1      -8.990   6.188  71.305  1.00  0.00    -0.140 C  
HETATM   10  C   UNL     1      -7.958   6.770  72.315  1.00  0.00    -0.095 C  
HETATM   11  C   UNL     1      -6.723   7.262  71.521  1.00  0.00    -0.051 C  
HETATM   12  C   UNL     1      -6.913   6.668  70.154  1.00  0.00    -0.063 A  
HETATM   13  C   UNL     1      -8.182   6.063  70.050  1.00  0.00    -0.122 A  
HETATM   14  C   UNL     1      -8.448   5.469  68.816  1.00  0.00    -0.101 A  
HETATM   15  C   UNL     1      -7.438   5.594  67.864  1.00  0.00    -0.077 A  
HETATM   16  O   UNL     1      -7.794   4.994  66.663  1.00  0.00    -0.098 OA 
HETATM   17  C   UNL     1      -6.204   6.206  67.976  1.00  0.00    -0.029 A  
HETATM   18  C   UNL     1      -5.919   6.772  69.193  1.00  0.00    -0.022 A  
HETATM   19  C   UNL     1      -9.122   4.443  66.863  1.00  0.00    -0.129 C  
HETATM   20  C   UNL     1      -9.601   4.733  68.290  1.00  0.00    -0.204 C  
ENDBRANCH   8   9
ENDBRANCH   7   8
ENDBRANCH   5   7
ENDBRANCH   2   3
TORSDOF 4
ENDMDL
MODEL      297
REMARK 921   NORMALIZED FREE ENERGY PREDICTED BY IDOCK:   -2.94 KCAL/MOL
REMARK 922        TOTAL FREE ENERGY PREDICTED BY IDOCK:   -3.83 KCAL/MOL
REMARK 923 INTER-LIGAND FREE ENERGY PREDICTED BY IDOCK:   -3.55 KCAL/MOL
REMARK 924 INTRA-LIGAND FREE ENERGY PREDICTED BY IDOCK:   -0.28 KCAL/MOL
REMARK 927      BINDING AFFINITY PREDICTED BY RF-SCORE:    0.00 PKD
ROOT
HETATM    1  C   UNL     1      -8.916   1.794  71.316  1.00  0.00    -0.125 C  
HETATM    2  C   UNL     1      -9.405   2.575  72.523  1.00  0.00    -0.142 C  
ENDROOT
BRANCH   2   3
HETATM    3  C   UNL     1      -8.680   3.898  72.671  1.00  0.00    -0.099 C  
HETATM    4  O   UNL     1      -8.261   4.330  73.739  1.00  0.00    -0.092 OA 
HETATM    5  N   UNL     1      -8.538   4.573  71.477  1.00  0.00    -0.112 N  
HETATM    6  H   UNL     1      -8.898   4.151  70.621  1.00  0.00     0.000 HD 
BRANCH   5   7
HETATM    7  C   UNL     1      -7.891   5.869  71.410  1.00  0.00    -0.112 C  
BRANCH   7   8
HETATM    8  C   UNL     1      -8.912   6.999  71.251  1.00  0.00    -0.137 C  
BRANCH   8   9
HETATM    9  C   UNL     1      -9.618   7.048  69.891  1.00  0.00    -0.159 C  
HETATM   10  C   UNL     1      -8.754   6.529  68.705  1.00  0.00    -0.123 C  
HETATM   11  C   UNL     1      -8.363   7.739  67.821  1.00  0.00    -0.125 C  
HETATM   12  C   UNL     1      -9.259   8.844  68.305  1.00  0.00    -0.143 A  
HETATM   13  C   UNL     1      -9.960   8.440  69.460  1.00  0.00    -0.190 A  
HETATM   14  C   UNL     1     -10.832   9.399  69.979  1.00  0.00    -0.271 A  
HETATM   15  C   UNL     1     -10.850  10.618  69.304  1.00  0.00    -0.239 A  
HETATM   16  O   UNL     1     -11.726  11.516  69.899  1.00  0.00    -0.302 OA 
HETATM   17  C   UNL     1     -10.141  11.004  68.183  1.00  0.00    -0.195 A  
HETATM   18  C   UNL     1      -9.300  10.062  67.645  1.00  0.00    -0.159 A  
HETATM   19  C   UNL     1     -12.312  10.822  71.031  1.00  0.00    -0.404 C  
HETATM   20  C   UNL     1     -11.747   9.400  71.124  1.00  0.00    -0.418 C  
ENDBRANCH   8   9
ENDBRANCH   7   8
ENDBRANCH   5   7
ENDBRANCH   2   3
TORSDOF 4
ENDMDL
MODEL      298
REMARK 921   NORMALIZED FREE ENERGY PREDICTED BY IDOCK:   -2.94 KCAL/MOL
REMARK 922        TOTAL FREE ENERGY PREDICTED BY IDOCK:   -3.83 KCAL/MOL
REMARK 923 INTER-LIGAND FREE ENERGY PREDICTED BY IDOCK:   -3.74 KCAL/MOL
REMARK 924 INTRA-LIGAND FREE ENERGY PREDICTED BY IDOCK:   -0.08 KCAL/MOL
REMARK 927      BINDING AFFINITY PREDICTED BY RF-SCORE:    0.00 PKD
ROOT
HETATM    1  C   UNL     1      -8.401  17.325  67.733  1.00  0.00    -0.212 C  
HETATM    2  C   UNL     1      -8.096  16.514  66.485  1.00  0.00    -0.341 C  
ENDROOT
BRANCH   2   3
HETATM    3  C   UNL     1      -9.000  15.305  66.363  1.00  0.00    -0.304 C  
HETATM    4  O   UNL     1     -10.022  15.284  65.686  1.00  0.00    -0.325 OA 
HETATM    5  N   UNL     1      -8.558  14.223  67.095  1.00  0.00    -0.216 N  
HETATM    6  H   UNL     1      -7.691  14.303  67.626  1.00  0.00     0.000 HD 
BRANCH   5   7
HETATM    7  C   UNL     1      -9.297  12.975  67.127  1.00  0.00    -0.230 C  
BRANCH   7   8
HETATM    8  C   UNL     1      -9.002  12.116  65.896  1.00  0.00     0.081 C  
BRANCH   8   9
HETATM    9  C   UNL     1      -8.832  10.618  66.176  1.00  0.00    -0.179 C  
HETATM   10  C   UNL     1     -10.074   9.756  65.808  1.00  0.00    -0.308 C  
HETATM   11  C   UNL     1     -10.736   9.267  67.120  1.00  0.00    -0.222 C  
HETATM   12  C   UNL     1      -9.707   9.563  68.175  1.00  0.00    -0.166 A  
HETATM   13  C   UNL     1      -8.644  10.313  67.630  1.00  0.00    -0.118 A  
HETATM   14  C   UNL     1      -7.627  10.626  68.533  1.00  0.00    -0.097 A  
HETATM   15  C   UNL     1      -7.832  10.186  69.839  1.00  0.00    -0.151 A  
HETATM   16  O   UNL     1      -6.785  10.559  70.672  1.00  0.00    -0.333 OA 
HETATM   17  C   UNL     1      -8.890   9.467  70.361  1.00  0.00    -0.290 A  
HETATM   18  C   UNL     1      -9.885   9.128  69.478  1.00  0.00    -0.182 A  
HETATM   19  C   UNL     1      -5.843  11.284  69.839  1.00  0.00    -0.104 C  
HETATM   20  C   UNL     1      -6.362  11.353  68.398  1.00  0.00    -0.046 C  
ENDBRANCH   8   9
ENDBRANCH   7   8
ENDBRANCH   5   7
ENDBRANCH   2   3
TORSDOF 4
ENDMDL
MODEL      299
REMARK 921   NORMALIZED FREE ENERGY PREDICTED BY IDOCK:   -2.92 KCAL/MOL
REMARK 922        TOTAL FREE ENERGY PREDICTED BY IDOCK:   -3.80 KCAL/MOL
REMARK 923 INTER-LIGAND FREE ENERGY PREDICTED BY IDOCK:   -3.83 KCAL/MOL
REMARK 924 INTRA-LIGAND FREE ENERGY PREDICTED BY IDOCK:    0.03 KCAL/MOL
REMARK 927      BINDING AFFINITY PREDICTED BY RF-SCORE:    0.00 PKD
ROOT
HETATM    1  C   UNL     1     -14.391   8.357  71.949  1.00  0.00    -0.561 C  
HETATM    2  C   UNL     1     -13.148   9.001  72.540  1.00  0.00    -0.450 C  
ENDROOT
BRANCH   2   3
HETATM    3  C   UNL     1     -12.256   9.593  71.468  1.00  0.00    -0.399 C  
HETATM    4  O   UNL     1     -12.662  10.316  70.565  1.00  0.00    -0.311 OA 
HETATM    5  N   UNL     1     -10.932   9.233  71.608  1.00  0.00    -0.373 N  
HETATM    6  H   UNL     1     -10.657   8.640  72.391  1.00  0.00     0.000 HD 
BRANCH   5   7
HETATM    7  C   UNL     1      -9.921   9.680  70.669  1.00  0.00    -0.231 C  
BRANCH   7   8
HETATM    8  C   UNL     1      -9.104   8.506  70.123  1.00  0.00    -0.154 C  
BRANCH   8   9
HETATM    9  C   UNL     1      -9.788   7.700  69.012  1.00  0.00    -0.168 C  
HETATM   10  C   UNL     1     -11.212   7.192  69.379  1.00  0.00    -0.080 C  
HETATM   11  C   UNL     1     -11.149   5.656  69.565  1.00  0.00    -0.124 C  
HETATM   12  C   UNL     1      -9.812   5.278  68.991  1.00  0.00    -0.235 A  
HETATM   13  C   UNL     1      -9.065   6.433  68.679  1.00  0.00    -0.127 A  
HETATM   14  C   UNL     1      -7.808   6.183  68.125  1.00  0.00    -0.103 A  
HETATM   15  C   UNL     1      -7.468   4.838  67.998  1.00  0.00    -0.074 A  
HETATM   16  O   UNL     1      -6.198   4.684  67.460  1.00  0.00    -0.036 OA 
HETATM   17  C   UNL     1      -8.206   3.717  68.326  1.00  0.00    -0.090 A  
HETATM   18  C   UNL     1      -9.455   3.947  68.848  1.00  0.00    -0.234 A  
HETATM   19  C   UNL     1      -5.692   6.023  67.221  1.00  0.00    -0.016 C  
HETATM   20  C   UNL     1      -6.736   7.061  67.648  1.00  0.00    -0.068 C  
ENDBRANCH   8   9
ENDBRANCH   7   8
ENDBRANCH   5   7
ENDBRANCH   2   3
TORSDOF 4
ENDMDL
MODEL      300
REMARK 921   NORMALIZED FREE ENERGY PREDICTED BY IDOCK:   -2.89 KCAL/MOL
REMARK 922        TOTAL FREE ENERGY PREDICTED BY IDOCK:   -3.77 KCAL/MOL
REMARK 923 INTER-LIGAND FREE ENERGY PREDICTED BY IDOCK:   -3.07 KCAL/MOL
REMARK 924 INTRA-LIGAND FREE ENERGY PREDICTED BY IDOCK:   -0.70 KCAL/MOL
REMARK 927      BINDING AFFINITY PREDICTED BY RF-SCORE:    0.00 PKD
ROOT
HETATM    1  C   UNL     1      -8.459   8.441  71.004  1.00  0.00    -0.167 C  
HETATM    2  C   UNL     1      -8.044   8.336  72.462  1.00  0.00    -0.209 C  
ENDROOT
BRANCH   2   3
HETATM    3  C   UNL     1      -8.805   7.245  73.187  1.00  0.00    -0.140 C  
HETATM    4  O   UNL     1      -9.671   7.461  74.028  1.00  0.00    -0.273 OA 
HETATM    5  N   UNL     1      -8.422   5.976  72.808  1.00  0.00    -0.122 N  
HETATM    6  H   UNL     1      -7.704   5.865  72.093  1.00  0.00     0.000 HD 
BRANCH   5   7
HETATM    7  C   UNL     1      -9.016   4.794  73.404  1.00  0.00    -0.108 C  
BRANCH   7   8
HETATM    8  C   UNL     1     -10.226   4.309  72.603  1.00  0.00    -0.232 C  
BRANCH   8   9
HETATM    9  C   UNL     1      -9.893   3.422  71.397  1.00  0.00    -0.204 C  
HETATM   10  C   UNL     1      -8.843   2.313  71.694  1.00  0.00    -0.120 C  
HETATM   11  C   UNL     1      -7.526   2.681  70.967  1.00  0.00    -0.033 C  
HETATM   12  C   UNL     1      -7.930   3.780  70.024  1.00  0.00    -0.054 A  
HETATM   13  C   UNL     1      -9.260   4.178  70.271  1.00  0.00    -0.205 A  
HETATM   14  C   UNL     1      -9.732   5.189  69.433  1.00  0.00    -0.248 A  
HETATM   15  C   UNL     1      -8.812   5.675  68.507  1.00  0.00    -0.108 A  
HETATM   16  O   UNL     1      -9.358   6.689  67.731  1.00  0.00    -0.121 OA 
HETATM   17  C   UNL     1      -7.504   5.285  68.289  1.00  0.00    -0.076 A  
HETATM   18  C   UNL     1      -7.034   4.273  69.089  1.00  0.00    -0.050 A  
HETATM   19  C   UNL     1     -10.725   6.860  68.190  1.00  0.00    -0.205 C  
HETATM   20  C   UNL     1     -11.022   5.875  69.327  1.00  0.00    -0.397 C  
ENDBRANCH   8   9
ENDBRANCH   7   8
ENDBRANCH   5   7
ENDBRANCH   2   3
TORSDOF 4
ENDMDL
MODEL      301
REMARK 921   NORMALIZED FREE ENERGY PREDICTED BY IDOCK:   -2.88 KCAL/MOL
REMARK 922        TOTAL FREE ENERGY PREDICTED BY IDOCK:   -3.75 KCAL/MOL
REMARK 923 INTER-LIGAND FREE ENERGY PREDICTED BY IDOCK:   -2.90 KCAL/MOL
REMARK 924 INTRA-LIGAND FREE ENERGY PREDICTED BY IDOCK:   -0.85 KCAL/MOL
REMARK 927      BINDING AFFINITY PREDICTED BY RF-SCORE:    0.00 PKD
ROOT
HETATM    1  C   UNL     1     -11.184   7.590  70.630  1.00  0.00    -0.286 C  
HETATM    2  C   UNL     1     -10.023   8.565  70.714  1.00  0.00    -0.230 C  
ENDROOT
BRANCH   2   3
HETATM    3  C   UNL     1      -8.960   8.266  69.676  1.00  0.00    -0.149 C  
HETATM    4  O   UNL     1      -7.882   8.849  69.617  1.00  0.00    -0.084 OA 
HETATM    5  N   UNL     1      -9.326   7.269  68.798  1.00  0.00    -0.143 N  
HETATM    6  H   UNL     1     -10.232   6.815  68.911  1.00  0.00     0.000 HD 
BRANCH   5   7
HETATM    7  C   UNL     1      -8.454   6.851  67.717  1.00  0.00    -0.123 C  
BRANCH   7   8
HETATM    8  C   UNL     1      -9.174   6.893  66.367  1.00  0.00    -0.186 C  
BRANCH   8   9
HETATM    9  C   UNL     1      -8.661   7.960  65.392  1.00  0.00    -0.078 C  
HETATM   10  C   UNL     1      -7.271   7.641  64.771  1.00  0.00    -0.067 C  
HETATM   11  C   UNL     1      -6.231   8.617  65.373  1.00  0.00    -0.049 C  
HETATM   12  C   UNL     1      -7.070   9.664  66.051  1.00  0.00    -0.097 A  
HETATM   13  C   UNL     1      -8.428   9.287  66.047  1.00  0.00    -0.144 A  
HETATM   14  C   UNL     1      -9.292  10.206  66.645  1.00  0.00    -0.195 A  
HETATM   15  C   UNL     1      -8.680  11.335  67.186  1.00  0.00    -0.151 A  
HETATM   16  O   UNL     1      -9.608  12.182  67.777  1.00  0.00    -0.184 OA 
HETATM   17  C   UNL     1      -7.343  11.681  67.197  1.00  0.00    -0.143 A  
HETATM   18  C   UNL     1      -6.485  10.799  66.589  1.00  0.00    -0.108 A  
HETATM   19  C   UNL     1     -10.904  11.553  67.597  1.00  0.00    -0.227 C  
HETATM   20  C   UNL     1     -10.744  10.229  66.842  1.00  0.00    -0.252 C  
ENDBRANCH   8   9
ENDBRANCH   7   8
ENDBRANCH   5   7
ENDBRANCH   2   3
TORSDOF 4
ENDMDL
MODEL      302
REMARK 921   NORMALIZED FREE ENERGY PREDICTED BY IDOCK:   -2.85 KCAL/MOL
REMARK 922        TOTAL FREE ENERGY PREDICTED BY IDOCK:   -3.72 KCAL/MOL
REMARK 923 INTER-LIGAND FREE ENERGY PREDICTED BY IDOCK:   -4.50 KCAL/MOL
REMARK 924 INTRA-LIGAND FREE ENERGY PREDICTED BY IDOCK:    0.78 KCAL/MOL
REMARK 927      BINDING AFFINITY PREDICTED BY RF-SCORE:    0.00 PKD
ROOT
HETATM    1  C   UNL     1     -14.114   8.852  71.852  1.00  0.00    -0.453 C  
HETATM    2  C   UNL     1     -12.637   8.813  71.500  1.00  0.00    -0.372 C  
ENDROOT
BRANCH   2   3
HETATM    3  C   UNL     1     -12.202  10.058  70.754  1.00  0.00    -0.315 C  
HETATM    4  O   UNL     1     -12.178  11.178  71.253  1.00  0.00    -0.312 OA 
HETATM    5  N   UNL     1     -11.834   9.805  69.450  1.00  0.00    -0.378 N  
HETATM    6  H   UNL     1     -11.864   8.848  69.100  1.00  0.00     0.000 HD 
BRANCH   5   7
HETATM    7  C   UNL     1     -11.407  10.870  68.562  1.00  0.00    -0.299 C  
BRANCH   7   8
HETATM    8  C   UNL     1     -11.055  10.335  67.172  1.00  0.00    -0.165 C  
BRANCH   8   9
HETATM    9  C   UNL     1     -10.083   9.149  67.161  1.00  0.00    -0.301 C  
HETATM   10  C   UNL     1     -10.776   7.759  67.052  1.00  0.00    -0.316 C  
HETATM   11  C   UNL     1     -10.629   7.034  68.413  1.00  0.00    -0.240 C  
HETATM   12  C   UNL     1      -9.600   7.847  69.146  1.00  0.00    -0.153 A  
HETATM   13  C   UNL     1      -9.298   9.024  68.429  1.00  0.00    -0.143 A  
HETATM   14  C   UNL     1      -8.338   9.842  69.026  1.00  0.00    -0.127 A  
HETATM   15  C   UNL     1      -7.851   9.394  70.252  1.00  0.00    -0.156 A  
HETATM   16  O   UNL     1      -6.919  10.276  70.782  1.00  0.00    -0.332 OA 
HETATM   17  C   UNL     1      -8.171   8.245  70.951  1.00  0.00    -0.123 A  
HETATM   18  C   UNL     1      -9.094   7.417  70.363  1.00  0.00    -0.157 A  
HETATM   19  C   UNL     1      -6.798  11.361  69.827  1.00  0.00    -0.025 C  
HETATM   20  C   UNL     1      -7.727  11.114  68.632  1.00  0.00    -0.135 C  
ENDBRANCH   8   9
ENDBRANCH   7   8
ENDBRANCH   5   7
ENDBRANCH   2   3
TORSDOF 4
ENDMDL
MODEL      303
REMARK 921   NORMALIZED FREE ENERGY PREDICTED BY IDOCK:   -2.84 KCAL/MOL
REMARK 922        TOTAL FREE ENERGY PREDICTED BY IDOCK:   -3.71 KCAL/MOL
REMARK 923 INTER-LIGAND FREE ENERGY PREDICTED BY IDOCK:   -3.36 KCAL/MOL
REMARK 924 INTRA-LIGAND FREE ENERGY PREDICTED BY IDOCK:   -0.35 KCAL/MOL
REMARK 927      BINDING AFFINITY PREDICTED BY RF-SCORE:    0.00 PKD
ROOT
HETATM    1  C   UNL     1     -12.112  13.185  70.524  1.00  0.00    -0.385 C  
HETATM    2  C   UNL     1     -11.948  12.929  69.036  1.00  0.00    -0.297 C  
ENDROOT
BRANCH   2   3
HETATM    3  C   UNL     1     -11.477  11.517  68.755  1.00  0.00    -0.287 C  
HETATM    4  O   UNL     1     -10.820  11.201  67.769  1.00  0.00    -0.206 OA 
HETATM    5  N   UNL     1     -11.863  10.615  69.724  1.00  0.00    -0.335 N  
HETATM    6  H   UNL     1     -12.397  10.946  70.527  1.00  0.00     0.000 HD 
BRANCH   5   7
HETATM    7  C   UNL     1     -11.529   9.207  69.627  1.00  0.00     0.199 C  
BRANCH   7   8
HETATM    8  C   UNL     1     -10.110   8.931  70.129  1.00  0.00    -0.212 C  
BRANCH   8   9
HETATM    9  C   UNL     1      -9.969   7.698  71.030  1.00  0.00    -0.188 C  
HETATM   10  C   UNL     1     -11.174   7.467  71.987  1.00  0.00    -0.298 C  
HETATM   11  C   UNL     1     -10.714   7.775  73.433  1.00  0.00    -0.225 C  
HETATM   12  C   UNL     1      -9.216   7.847  73.328  1.00  0.00    -0.346 A  
HETATM   13  C   UNL     1      -8.814   7.794  71.977  1.00  0.00    -0.169 A  
HETATM   14  C   UNL     1      -7.433   7.841  71.777  1.00  0.00    -0.074 A  
HETATM   15  C   UNL     1      -6.666   7.969  72.933  1.00  0.00    -0.083 A  
HETATM   16  O   UNL     1      -5.311   8.029  72.639  1.00  0.00    -0.036 OA 
HETATM   17  C   UNL     1      -7.078   8.037  74.250  1.00  0.00    -0.182 A  
HETATM   18  C   UNL     1      -8.432   7.965  74.464  1.00  0.00    -0.178 A  
HETATM   19  C   UNL     1      -5.203   7.927  71.195  1.00  0.00    -0.026 C  
HETATM   20  C   UNL     1      -6.598   7.797  70.574  1.00  0.00    -0.038 C  
ENDBRANCH   8   9
ENDBRANCH   7   8
ENDBRANCH   5   7
ENDBRANCH   2   3
TORSDOF 4
ENDMDL
MODEL      304
REMARK 921   NORMALIZED FREE ENERGY PREDICTED BY IDOCK:   -2.80 KCAL/MOL
REMARK 922        TOTAL FREE ENERGY PREDICTED BY IDOCK:   -3.66 KCAL/MOL
REMARK 923 INTER-LIGAND FREE ENERGY PREDICTED BY IDOCK:   -3.33 KCAL/MOL
REMARK 924 INTRA-LIGAND FREE ENERGY PREDICTED BY IDOCK:   -0.33 KCAL/MOL
REMARK 927      BINDING AFFINITY PREDICTED BY RF-SCORE:    0.00 PKD
ROOT
HETATM    1  C   UNL     1      -8.486  17.112  67.552  1.00  0.00    -0.206 C  
HETATM    2  C   UNL     1      -8.528  16.300  66.270  1.00  0.00    -0.369 C  
ENDROOT
BRANCH   2   3
HETATM    3  C   UNL     1      -9.020  14.887  66.513  1.00  0.00    -0.253 C  
HETATM    4  O   UNL     1     -10.205  14.572  66.529  1.00  0.00    -0.267 OA 
HETATM    5  N   UNL     1      -7.997  13.986  66.716  1.00  0.00    -0.299 N  
HETATM    6  H   UNL     1      -7.031  14.311  66.675  1.00  0.00     0.000 HD 
BRANCH   5   7
HETATM    7  C   UNL     1      -8.262  12.585  66.987  1.00  0.00    -0.125 C  
BRANCH   7   8
HETATM    8  C   UNL     1      -7.529  12.109  68.244  1.00  0.00    -0.107 C  
BRANCH   8   9
HETATM    9  C   UNL     1      -6.862  10.733  68.123  1.00  0.00    -0.068 C  
HETATM   10  C   UNL     1      -5.851  10.616  66.945  1.00  0.00    -0.062 C  
HETATM   11  C   UNL     1      -6.467   9.695  65.864  1.00  0.00    -0.079 C  
HETATM   12  C   UNL     1      -7.632   9.050  66.560  1.00  0.00    -0.089 A  
HETATM   13  C   UNL     1      -7.836   9.635  67.826  1.00  0.00    -0.094 A  
HETATM   14  C   UNL     1      -8.892   9.091  68.559  1.00  0.00    -0.134 A  
HETATM   15  C   UNL     1      -9.606   8.081  67.917  1.00  0.00    -0.155 A  
HETATM   16  O   UNL     1     -10.648   7.614  68.706  1.00  0.00    -0.204 OA 
HETATM   17  C   UNL     1      -9.404   7.530  66.665  1.00  0.00    -0.222 A  
HETATM   18  C   UNL     1      -8.351   8.037  65.944  1.00  0.00    -0.136 A  
HETATM   19  C   UNL     1     -10.594   8.374  69.941  1.00  0.00    -0.228 C  
HETATM   20  C   UNL     1      -9.433   9.374  69.891  1.00  0.00    -0.235 C  
ENDBRANCH   8   9
ENDBRANCH   7   8
ENDBRANCH   5   7
ENDBRANCH   2   3
TORSDOF 4
ENDMDL
MODEL      305
REMARK 921   NORMALIZED FREE ENERGY PREDICTED BY IDOCK:   -2.78 KCAL/MOL
REMARK 922        TOTAL FREE ENERGY PREDICTED BY IDOCK:   -3.63 KCAL/MOL
REMARK 923 INTER-LIGAND FREE ENERGY PREDICTED BY IDOCK:   -3.29 KCAL/MOL
REMARK 924 INTRA-LIGAND FREE ENERGY PREDICTED BY IDOCK:   -0.34 KCAL/MOL
REMARK 927      BINDING AFFINITY PREDICTED BY RF-SCORE:    0.00 PKD
ROOT
HETATM    1  C   UNL     1      -7.298   2.009  66.256  1.00  0.00    -0.061 C  
HETATM    2  C   UNL     1      -8.813   1.925  66.336  1.00  0.00    -0.121 C  
ENDROOT
BRANCH   2   3
HETATM    3  C   UNL     1      -9.324   2.271  67.719  1.00  0.00    -0.162 C  
HETATM    4  O   UNL     1      -9.982   1.504  68.414  1.00  0.00    -0.028 OA 
HETATM    5  N   UNL     1      -8.977   3.543  68.122  1.00  0.00    -0.120 N  
HETATM    6  H   UNL     1      -8.416   4.126  67.501  1.00  0.00     0.000 HD 
BRANCH   5   7
HETATM    7  C   UNL     1      -9.391   4.072  69.407  1.00  0.00    -0.173 C  
BRANCH   7   8
HETATM    8  C   UNL     1      -8.239   4.785  70.119  1.00  0.00    -0.068 C  
BRANCH   8   9
HETATM    9  C   UNL     1      -8.629   5.527  71.403  1.00  0.00    -0.131 C  
HETATM   10  C   UNL     1      -9.045   4.595  72.576  1.00  0.00    -0.139 C  
HETATM   11  C   UNL     1     -10.571   4.740  72.797  1.00  0.00    -0.272 C  
HETATM   12  C   UNL     1     -10.936   5.961  72.001  1.00  0.00    -0.319 A  
HETATM   13  C   UNL     1      -9.837   6.395  71.232  1.00  0.00    -0.200 A  
HETATM   14  C   UNL     1     -10.075   7.537  70.465  1.00  0.00    -0.188 A  
HETATM   15  C   UNL     1     -11.367   8.053  70.546  1.00  0.00    -0.225 A  
HETATM   16  O   UNL     1     -11.520   9.171  69.738  1.00  0.00    -0.057 OA 
HETATM   17  C   UNL     1     -12.439   7.604  71.293  1.00  0.00    -0.324 A  
HETATM   18  C   UNL     1     -12.212   6.497  72.073  1.00  0.00    -0.343 A  
HETATM   19  C   UNL     1     -10.235   9.389  69.099  1.00  0.00    -0.202 C  
HETATM   20  C   UNL     1      -9.234   8.322  69.557  1.00  0.00    -0.158 C  
ENDBRANCH   8   9
ENDBRANCH   7   8
ENDBRANCH   5   7
ENDBRANCH   2   3
TORSDOF 4
ENDMDL
MODEL      306
REMARK 921   NORMALIZED FREE ENERGY PREDICTED BY IDOCK:   -2.77 KCAL/MOL
REMARK 922        TOTAL FREE ENERGY PREDICTED BY IDOCK:   -3.63 KCAL/MOL
REMARK 923 INTER-LIGAND FREE ENERGY PREDICTED BY IDOCK:   -3.04 KCAL/MOL
REMARK 924 INTRA-LIGAND FREE ENERGY PREDICTED BY IDOCK:   -0.59 KCAL/MOL
REMARK 927      BINDING AFFINITY PREDICTED BY RF-SCORE:    0.00 PKD
ROOT
HETATM    1  C   UNL     1      -9.832  11.359  63.123  1.00  0.00    -0.413 C  
HETATM    2  C   UNL     1     -10.128  10.748  64.481  1.00  0.00    -0.415 C  
ENDROOT
BRANCH   2   3
HETATM    3  C   UNL     1      -8.871  10.236  65.155  1.00  0.00    -0.184 C  
HETATM    4  O   UNL     1      -8.599   9.046  65.276  1.00  0.00    -0.154 OA 
HETATM    5  N   UNL     1      -8.059  11.246  65.624  1.00  0.00    -0.369 N  
HETATM    6  H   UNL     1      -8.337  12.216  65.479  1.00  0.00     0.000 HD 
BRANCH   5   7
HETATM    7  C   UNL     1      -6.818  10.962  66.320  1.00  0.00    -0.123 C  
BRANCH   7   8
HETATM    8  C   UNL     1      -6.993  11.051  67.838  1.00  0.00    -0.073 C  
BRANCH   8   9
HETATM    9  C   UNL     1      -6.597   9.788  68.612  1.00  0.00    -0.051 C  
HETATM   10  C   UNL     1      -5.310   9.092  68.082  1.00  0.00    -0.034 C  
HETATM   11  C   UNL     1      -5.720   7.764  67.398  1.00  0.00    -0.037 C  
HETATM   12  C   UNL     1      -7.145   7.561  67.830  1.00  0.00    -0.085 A  
HETATM   13  C   UNL     1      -7.620   8.698  68.515  1.00  0.00    -0.095 A  
HETATM   14  C   UNL     1      -8.936   8.599  68.969  1.00  0.00    -0.142 A  
HETATM   15  C   UNL     1      -9.591   7.412  68.647  1.00  0.00    -0.146 A  
HETATM   16  O   UNL     1     -10.897   7.409  69.118  1.00  0.00    -0.199 OA 
HETATM   17  C   UNL     1      -9.116   6.313  67.958  1.00  0.00    -0.112 A  
HETATM   18  C   UNL     1      -7.814   6.385  67.528  1.00  0.00    -0.105 A  
HETATM   19  C   UNL     1     -11.089   8.679  69.793  1.00  0.00    -0.067 C  
HETATM   20  C   UNL     1      -9.803   9.510  69.722  1.00  0.00    -0.236 C  
ENDBRANCH   8   9
ENDBRANCH   7   8
ENDBRANCH   5   7
ENDBRANCH   2   3
TORSDOF 4
ENDMDL
MODEL      307
REMARK 921   NORMALIZED FREE ENERGY PREDICTED BY IDOCK:   -2.71 KCAL/MOL
REMARK 922        TOTAL FREE ENERGY PREDICTED BY IDOCK:   -3.55 KCAL/MOL
REMARK 923 INTER-LIGAND FREE ENERGY PREDICTED BY IDOCK:   -3.20 KCAL/MOL
REMARK 924 INTRA-LIGAND FREE ENERGY PREDICTED BY IDOCK:   -0.34 KCAL/MOL
REMARK 927      BINDING AFFINITY PREDICTED BY RF-SCORE:    0.00 PKD
ROOT
HETATM    1  C   UNL     1      -8.317   6.435  72.488  1.00  0.00    -0.116 C  
HETATM    2  C   UNL     1      -8.247   7.926  72.210  1.00  0.00    -0.167 C  
ENDROOT
BRANCH   2   3
HETATM    3  C   UNL     1      -7.718   8.217  70.821  1.00  0.00    -0.079 C  
HETATM    4  O   UNL     1      -7.491   7.351  69.982  1.00  0.00    -0.081 OA 
HETATM    5  N   UNL     1      -7.512   9.561  70.591  1.00  0.00    -0.136 N  
HETATM    6  H   UNL     1      -7.734  10.231  71.327  1.00  0.00     0.000 HD 
BRANCH   5   7
HETATM    7  C   UNL     1      -6.987  10.044  69.328  1.00  0.00    -0.063 C  
BRANCH   7   8
HETATM    8  C   UNL     1      -6.769  11.558  69.352  1.00  0.00    -0.116 C  
BRANCH   8   9
HETATM    9  C   UNL     1      -7.106  12.283  68.044  1.00  0.00    -0.099 C  
HETATM   10  C   UNL     1      -6.096  13.402  67.657  1.00  0.00    -0.129 C  
HETATM   11  C   UNL     1      -6.793  14.773  67.841  1.00  0.00    -0.174 C  
HETATM   12  C   UNL     1      -8.245  14.421  68.001  1.00  0.00    -0.149 A  
HETATM   13  C   UNL     1      -8.406  13.024  68.105  1.00  0.00    -0.164 A  
HETATM   14  C   UNL     1      -9.728  12.597  68.242  1.00  0.00    -0.216 A  
HETATM   15  C   UNL     1     -10.681  13.611  68.293  1.00  0.00    -0.254 A  
HETATM   16  O   UNL     1     -11.961  13.099  68.452  1.00  0.00    -0.341 OA 
HETATM   17  C   UNL     1     -10.504  14.979  68.208  1.00  0.00    -0.237 A  
HETATM   18  C   UNL     1      -9.212  15.413  68.045  1.00  0.00    -0.184 A  
HETATM   19  C   UNL     1     -11.818  11.655  68.501  1.00  0.00    -0.292 C  
HETATM   20  C   UNL     1     -10.340  11.271  68.362  1.00  0.00    -0.207 C  
ENDBRANCH   8   9
ENDBRANCH   7   8
ENDBRANCH   5   7
ENDBRANCH   2   3
TORSDOF 4
ENDMDL
MODEL      308
REMARK 921   NORMALIZED FREE ENERGY PREDICTED BY IDOCK:   -2.69 KCAL/MOL
REMARK 922        TOTAL FREE ENERGY PREDICTED BY IDOCK:   -3.53 KCAL/MOL
REMARK 923 INTER-LIGAND FREE ENERGY PREDICTED BY IDOCK:   -3.10 KCAL/MOL
REMARK 924 INTRA-LIGAND FREE ENERGY PREDICTED BY IDOCK:   -0.42 KCAL/MOL
REMARK 927      BINDING AFFINITY PREDICTED BY RF-SCORE:    0.00 PKD
ROOT
HETATM    1  C   UNL     1     -10.228  13.215  66.272  1.00  0.00    -0.294 C  
HETATM    2  C   UNL     1     -10.239  13.290  67.789  1.00  0.00    -0.228 C  
ENDROOT
BRANCH   2   3
HETATM    3  C   UNL     1     -11.109  12.211  68.401  1.00  0.00    -0.245 C  
HETATM    4  O   UNL     1     -12.260  11.980  68.046  1.00  0.00    -0.454 OA 
HETATM    5  N   UNL     1     -10.475  11.510  69.405  1.00  0.00    -0.441 N  
HETATM    6  H   UNL     1      -9.511  11.743  69.642  1.00  0.00     0.000 HD 
BRANCH   5   7
HETATM    7  C   UNL     1     -11.147  10.449  70.131  1.00  0.00    -0.314 C  
BRANCH   7   8
HETATM    8  C   UNL     1     -10.828   9.074  69.540  1.00  0.00    -0.177 C  
BRANCH   8   9
HETATM    9  C   UNL     1     -10.149   9.100  68.166  1.00  0.00    -0.225 C  
HETATM   10  C   UNL     1     -11.001   8.476  67.023  1.00  0.00     0.207 C  
HETATM   11  C   UNL     1     -10.346   7.138  66.602  1.00  0.00    -0.222 C  
HETATM   12  C   UNL     1      -8.992   7.179  67.251  1.00  0.00    -0.123 A  
HETATM   13  C   UNL     1      -8.893   8.287  68.118  1.00  0.00    -0.139 A  
HETATM   14  C   UNL     1      -7.661   8.419  68.760  1.00  0.00    -0.102 A  
HETATM   15  C   UNL     1      -6.731   7.420  68.479  1.00  0.00    -0.054 A  
HETATM   16  O   UNL     1      -5.546   7.619  69.175  1.00  0.00    -0.024 OA 
HETATM   17  C   UNL     1      -6.850   6.329  67.640  1.00  0.00    -0.069 A  
HETATM   18  C   UNL     1      -8.047   6.201  66.980  1.00  0.00    -0.106 A  
HETATM   19  C   UNL     1      -5.729   8.831  69.951  1.00  0.00    -0.028 C  
HETATM   20  C   UNL     1      -7.129   9.405  69.704  1.00  0.00    -0.064 C  
ENDBRANCH   8   9
ENDBRANCH   7   8
ENDBRANCH   5   7
ENDBRANCH   2   3
TORSDOF 4
ENDMDL
MODEL      309
REMARK 921   NORMALIZED FREE ENERGY PREDICTED BY IDOCK:   -2.68 KCAL/MOL
REMARK 922        TOTAL FREE ENERGY PREDICTED BY IDOCK:   -3.52 KCAL/MOL
REMARK 923 INTER-LIGAND FREE ENERGY PREDICTED BY IDOCK:   -3.17 KCAL/MOL
REMARK 924 INTRA-LIGAND FREE ENERGY PREDICTED BY IDOCK:   -0.35 KCAL/MOL
REMARK 927      BINDING AFFINITY PREDICTED BY RF-SCORE:    0.00 PKD
ROOT
HETATM    1  C   UNL     1     -10.801  12.400  63.665  1.00  0.00    -0.509 C  
HETATM    2  C   UNL     1     -10.917  11.689  65.002  1.00  0.00    -0.334 C  
ENDROOT
BRANCH   2   3
HETATM    3  C   UNL     1      -9.913  10.561  65.129  1.00  0.00    -0.309 C  
HETATM    4  O   UNL     1      -9.113  10.258  64.250  1.00  0.00    -0.200 OA 
HETATM    5  N   UNL     1      -9.989   9.903  66.339  1.00  0.00    -0.230 N  
HETATM    6  H   UNL     1     -10.668  10.215  67.033  1.00  0.00     0.000 HD 
BRANCH   5   7
HETATM    7  C   UNL     1      -9.127   8.778  66.647  1.00  0.00    -0.158 C  
BRANCH   7   8
HETATM    8  C   UNL     1      -9.778   7.448  66.259  1.00  0.00    -0.083 C  
BRANCH   8   9
HETATM    9  C   UNL     1      -9.291   6.232  67.055  1.00  0.00    -0.135 C  
HETATM   10  C   UNL     1      -8.114   6.535  68.026  1.00  0.00    -0.113 C  
HETATM   11  C   UNL     1      -6.834   5.867  67.464  1.00  0.00    -0.060 C  
HETATM   12  C   UNL     1      -7.349   4.942  66.398  1.00  0.00    -0.082 A  
HETATM   13  C   UNL     1      -8.727   5.151  66.186  1.00  0.00    -0.123 A  
HETATM   14  C   UNL     1      -9.302   4.325  65.219  1.00  0.00    -0.165 A  
HETATM   15  C   UNL     1      -8.424   3.447  64.586  1.00  0.00    -0.093 A  
HETATM   16  O   UNL     1      -9.074   2.681  63.628  1.00  0.00    -0.095 OA 
HETATM   17  C   UNL     1      -7.070   3.267  64.793  1.00  0.00    -0.061 A  
HETATM   18  C   UNL     1      -6.496   4.054  65.760  1.00  0.00    -0.033 A  
HETATM   19  C   UNL     1     -10.466   3.094  63.653  1.00  0.00    -0.231 C  
HETATM   20  C   UNL     1     -10.667   4.191  64.705  1.00  0.00    -0.155 C  
ENDBRANCH   8   9
ENDBRANCH   7   8
ENDBRANCH   5   7
ENDBRANCH   2   3
TORSDOF 4
ENDMDL
MODEL      310
REMARK 921   NORMALIZED FREE ENERGY PREDICTED BY IDOCK:   -2.67 KCAL/MOL
REMARK 922        TOTAL FREE ENERGY PREDICTED BY IDOCK:   -3.50 KCAL/MOL
REMARK 923 INTER-LIGAND FREE ENERGY PREDICTED BY IDOCK:   -3.26 KCAL/MOL
REMARK 924 INTRA-LIGAND FREE ENERGY PREDICTED BY IDOCK:   -0.24 KCAL/MOL
REMARK 927      BINDING AFFINITY PREDICTED BY RF-SCORE:    0.00 PKD
ROOT
HETATM    1  C   UNL     1     -12.108  13.411  63.743  1.00  0.00    -0.516 C  
HETATM    2  C   UNL     1     -11.845  11.918  63.837  1.00  0.00    -0.509 C  
ENDROOT
BRANCH   2   3
HETATM    3  C   UNL     1     -10.852  11.588  64.933  1.00  0.00    -0.283 C  
HETATM    4  O   UNL     1     -10.745  12.231  65.972  1.00  0.00    -0.249 OA 
HETATM    5  N   UNL     1     -10.074  10.487  64.644  1.00  0.00    -0.346 N  
HETATM    6  H   UNL     1     -10.224   9.988  63.767  1.00  0.00     0.000 HD 
BRANCH   5   7
HETATM    7  C   UNL     1      -9.047  10.022  65.557  1.00  0.00    -0.186 C  
BRANCH   7   8
HETATM    8  C   UNL     1      -7.667  10.016  64.895  1.00  0.00    -0.138 C  
BRANCH   8   9
HETATM    9  C   UNL     1      -6.903   8.691  65.000  1.00  0.00    -0.072 C  
HETATM   10  C   UNL     1      -7.205   7.689  63.848  1.00  0.00    -0.081 C  
HETATM   11  C   UNL     1      -8.030   6.514  64.428  1.00  0.00    -0.103 C  
HETATM   12  C   UNL     1      -7.904   6.684  65.916  1.00  0.00    -0.102 A  
HETATM   13  C   UNL     1      -7.264   7.903  66.221  1.00  0.00    -0.074 A  
HETATM   14  C   UNL     1      -7.088   8.145  67.584  1.00  0.00    -0.087 A  
HETATM   15  C   UNL     1      -7.601   7.169  68.435  1.00  0.00    -0.118 A  
HETATM   16  O   UNL     1      -7.401   7.501  69.768  1.00  0.00    -0.078 OA 
HETATM   17  C   UNL     1      -8.243   5.986  68.120  1.00  0.00    -0.113 A  
HETATM   18  C   UNL     1      -8.399   5.722  66.782  1.00  0.00    -0.109 A  
HETATM   19  C   UNL     1      -6.708   8.776  69.770  1.00  0.00    -0.045 C  
HETATM   20  C   UNL     1      -6.473   9.246  68.330  1.00  0.00    -0.054 C  
ENDBRANCH   8   9
ENDBRANCH   7   8
ENDBRANCH   5   7
ENDBRANCH   2   3
TORSDOF 4
ENDMDL
MODEL      311
REMARK 921   NORMALIZED FREE ENERGY PREDICTED BY IDOCK:   -2.66 KCAL/MOL
REMARK 922        TOTAL FREE ENERGY PREDICTED BY IDOCK:   -3.48 KCAL/MOL
REMARK 923 INTER-LIGAND FREE ENERGY PREDICTED BY IDOCK:   -3.32 KCAL/MOL
REMARK 924 INTRA-LIGAND FREE ENERGY PREDICTED BY IDOCK:   -0.17 KCAL/MOL
REMARK 927      BINDING AFFINITY PREDICTED BY RF-SCORE:    0.00 PKD
ROOT
HETATM    1  C   UNL     1      -8.636   2.483  70.134  1.00  0.00    -0.104 C  
HETATM    2  C   UNL     1      -7.388   3.129  69.557  1.00  0.00    -0.045 C  
ENDROOT
BRANCH   2   3
HETATM    3  C   UNL     1      -7.690   4.472  68.923  1.00  0.00    -0.070 C  
HETATM    4  O   UNL     1      -7.735   4.659  67.712  1.00  0.00    -0.081 OA 
HETATM    5  N   UNL     1      -7.908   5.470  69.849  1.00  0.00    -0.081 N  
HETATM    6  H   UNL     1      -7.870   5.244  70.843  1.00  0.00     0.000 HD 
BRANCH   5   7
HETATM    7  C   UNL     1      -8.191   6.834  69.443  1.00  0.00    -0.128 C  
BRANCH   7   8
HETATM    8  C   UNL     1      -7.013   7.764  69.742  1.00  0.00    -0.047 C  
BRANCH   8   9
HETATM    9  C   UNL     1      -6.959   8.301  71.178  1.00  0.00    -0.057 C  
HETATM   10  C   UNL     1      -5.956   7.550  72.101  1.00  0.00    -0.039 C  
HETATM   11  C   UNL     1      -6.767   6.723  73.129  1.00  0.00    -0.071 C  
HETATM   12  C   UNL     1      -8.165   7.257  73.001  1.00  0.00    -0.131 A  
HETATM   13  C   UNL     1      -8.256   8.146  71.909  1.00  0.00    -0.180 A  
HETATM   14  C   UNL     1      -9.519   8.708  71.716  1.00  0.00    -0.354 A  
HETATM   15  C   UNL     1     -10.504   8.281  72.604  1.00  0.00    -0.303 A  
HETATM   16  O   UNL     1     -11.729   8.872  72.326  1.00  0.00    -0.354 OA 
HETATM   17  C   UNL     1     -10.403   7.394  73.659  1.00  0.00    -0.367 A  
HETATM   18  C   UNL     1      -9.160   6.854  73.878  1.00  0.00    -0.211 A  
HETATM   19  C   UNL     1     -11.511   9.742  71.185  1.00  0.00    -0.398 C  
HETATM   20  C   UNL     1     -10.045   9.667  70.742  1.00  0.00    -0.293 C  
ENDBRANCH   8   9
ENDBRANCH   7   8
ENDBRANCH   5   7
ENDBRANCH   2   3
TORSDOF 4
ENDMDL
MODEL      312
REMARK 921   NORMALIZED FREE ENERGY PREDICTED BY IDOCK:   -2.65 KCAL/MOL
REMARK 922        TOTAL FREE ENERGY PREDICTED BY IDOCK:   -3.47 KCAL/MOL
REMARK 923 INTER-LIGAND FREE ENERGY PREDICTED BY IDOCK:   -4.15 KCAL/MOL
REMARK 924 INTRA-LIGAND FREE ENERGY PREDICTED BY IDOCK:    0.68 KCAL/MOL
REMARK 927      BINDING AFFINITY PREDICTED BY RF-SCORE:    0.00 PKD
ROOT
HETATM    1  C   UNL     1      -5.133  15.061  71.869  1.00  0.00    -0.129 C  
HETATM    2  C   UNL     1      -5.789  13.733  71.531  1.00  0.00    -0.087 C  
ENDROOT
BRANCH   2   3
HETATM    3  C   UNL     1      -6.083  13.611  70.050  1.00  0.00    -0.137 C  
HETATM    4  O   UNL     1      -6.394  14.558  69.336  1.00  0.00    -0.109 OA 
HETATM    5  N   UNL     1      -5.967  12.320  69.581  1.00  0.00    -0.108 N  
HETATM    6  H   UNL     1      -5.691  11.579  70.225  1.00  0.00     0.000 HD 
BRANCH   5   7
HETATM    7  C   UNL     1      -6.230  11.989  68.193  1.00  0.00    -0.053 C  
BRANCH   7   8
HETATM    8  C   UNL     1      -7.118  13.041  67.524  1.00  0.00    -0.158 C  
BRANCH   8   9
HETATM    9  C   UNL     1      -8.621  12.739  67.559  1.00  0.00    -0.187 C  
HETATM   10  C   UNL     1      -9.005  11.352  66.967  1.00  0.00    -0.166 C  
HETATM   11  C   UNL     1      -9.740  11.582  65.623  1.00  0.00    -0.261 C  
HETATM   12  C   UNL     1     -10.054  13.051  65.630  1.00  0.00    -0.276 A  
HETATM   13  C   UNL     1      -9.428  13.684  66.723  1.00  0.00    -0.275 A  
HETATM   14  C   UNL     1      -9.672  15.055  66.824  1.00  0.00    -0.253 A  
HETATM   15  C   UNL     1     -10.464  15.595  65.813  1.00  0.00    -0.366 A  
HETATM   16  O   UNL     1     -10.638  16.962  65.979  1.00  0.00    -0.304 OA 
HETATM   17  C   UNL     1     -11.056  14.963  64.736  1.00  0.00    -0.395 A  
HETATM   18  C   UNL     1     -10.846  13.610  64.640  1.00  0.00    -0.416 A  
HETATM   19  C   UNL     1      -9.911  17.321  67.183  1.00  0.00    -0.269 C  
HETATM   20  C   UNL     1      -9.249  16.076  67.786  1.00  0.00    -0.205 C  
ENDBRANCH   8   9
ENDBRANCH   7   8
ENDBRANCH   5   7
ENDBRANCH   2   3
TORSDOF 4
ENDMDL
MODEL      313
REMARK 921   NORMALIZED FREE ENERGY PREDICTED BY IDOCK:   -2.65 KCAL/MOL
REMARK 922        TOTAL FREE ENERGY PREDICTED BY IDOCK:   -3.47 KCAL/MOL
REMARK 923 INTER-LIGAND FREE ENERGY PREDICTED BY IDOCK:   -3.01 KCAL/MOL
REMARK 924 INTRA-LIGAND FREE ENERGY PREDICTED BY IDOCK:   -0.46 KCAL/MOL
REMARK 927      BINDING AFFINITY PREDICTED BY RF-SCORE:    0.00 PKD
ROOT
HETATM    1  C   UNL     1      -9.970  11.356  63.559  1.00  0.00    -0.424 C  
HETATM    2  C   UNL     1     -10.801  12.205  64.506  1.00  0.00    -0.356 C  
ENDROOT
BRANCH   2   3
HETATM    3  C   UNL     1     -10.505  11.883  65.957  1.00  0.00    -0.245 C  
HETATM    4  O   UNL     1     -10.895  12.566  66.899  1.00  0.00    -0.239 OA 
HETATM    5  N   UNL     1      -9.749  10.742  66.115  1.00  0.00    -0.199 N  
HETATM    6  H   UNL     1      -9.470  10.212  65.290  1.00  0.00     0.000 HD 
BRANCH   5   7
HETATM    7  C   UNL     1      -9.342  10.276  67.427  1.00  0.00    -0.145 C  
BRANCH   7   8
HETATM    8  C   UNL     1      -7.837  10.454  67.643  1.00  0.00    -0.105 C  
BRANCH   8   9
HETATM    9  C   UNL     1      -6.962   9.339  67.058  1.00  0.00    -0.085 C  
HETATM   10  C   UNL     1      -6.550   9.565  65.574  1.00  0.00    -0.073 C  
HETATM   11  C   UNL     1      -7.312   8.542  64.696  1.00  0.00    -0.092 C  
HETATM   12  C   UNL     1      -7.869   7.560  65.687  1.00  0.00    -0.110 A  
HETATM   13  C   UNL     1      -7.658   8.015  67.005  1.00  0.00    -0.096 A  
HETATM   14  C   UNL     1      -8.131   7.160  68.002  1.00  0.00    -0.120 A  
HETATM   15  C   UNL     1      -8.770   6.008  67.547  1.00  0.00    -0.107 A  
HETATM   16  O   UNL     1      -9.225   5.229  68.601  1.00  0.00    -0.110 OA 
HETATM   17  C   UNL     1      -8.984   5.585  66.249  1.00  0.00    -0.140 A  
HETATM   18  C   UNL     1      -8.501   6.403  65.258  1.00  0.00    -0.102 A  
HETATM   19  C   UNL     1      -8.847   5.928  69.816  1.00  0.00    -0.128 C  
HETATM   20  C   UNL     1      -8.110   7.225  69.465  1.00  0.00    -0.129 C  
ENDBRANCH   8   9
ENDBRANCH   7   8
ENDBRANCH   5   7
ENDBRANCH   2   3
TORSDOF 4
ENDMDL
MODEL      314
REMARK 921   NORMALIZED FREE ENERGY PREDICTED BY IDOCK:   -2.65 KCAL/MOL
REMARK 922        TOTAL FREE ENERGY PREDICTED BY IDOCK:   -3.47 KCAL/MOL
REMARK 923 INTER-LIGAND FREE ENERGY PREDICTED BY IDOCK:   -3.14 KCAL/MOL
REMARK 924 INTRA-LIGAND FREE ENERGY PREDICTED BY IDOCK:   -0.33 KCAL/MOL
REMARK 927      BINDING AFFINITY PREDICTED BY RF-SCORE:    0.00 PKD
ROOT
HETATM    1  C   UNL     1     -11.676  13.175  65.406  1.00  0.00    -0.383 C  
HETATM    2  C   UNL     1     -11.480  12.717  66.841  1.00  0.00    -0.396 C  
ENDROOT
BRANCH   2   3
HETATM    3  C   UNL     1     -10.766  11.383  66.914  1.00  0.00    -0.265 C  
HETATM    4  O   UNL     1     -10.413  10.743  65.929  1.00  0.00    -0.252 OA 
HETATM    5  N   UNL     1     -10.552  10.954  68.207  1.00  0.00    -0.178 N  
HETATM    6  H   UNL     1     -10.859  11.541  68.983  1.00  0.00     0.000 HD 
BRANCH   5   7
HETATM    7  C   UNL     1      -9.903   9.688  68.489  1.00  0.00    -0.157 C  
BRANCH   7   8
HETATM    8  C   UNL     1     -10.901   8.647  69.003  1.00  0.00    -0.043 C  
BRANCH   8   9
HETATM    9  C   UNL     1     -10.281   7.490  69.795  1.00  0.00    -0.211 C  
HETATM   10  C   UNL     1      -9.692   7.906  71.174  1.00  0.00    -0.182 C  
HETATM   11  C   UNL     1      -8.147   7.822  71.090  1.00  0.00    -0.095 C  
HETATM   12  C   UNL     1      -7.896   7.062  69.818  1.00  0.00    -0.115 A  
HETATM   13  C   UNL     1      -9.101   6.877  69.108  1.00  0.00    -0.136 A  
HETATM   14  C   UNL     1      -8.972   6.166  67.914  1.00  0.00    -0.112 A  
HETATM   15  C   UNL     1      -7.673   5.780  67.586  1.00  0.00    -0.097 A  
HETATM   16  O   UNL     1      -7.635   5.100  66.377  1.00  0.00    -0.086 OA 
HETATM   17  C   UNL     1      -6.500   5.986  68.285  1.00  0.00    -0.046 A  
HETATM   18  C   UNL     1      -6.615   6.660  69.475  1.00  0.00    -0.048 A  
HETATM   19  C   UNL     1      -9.005   5.041  65.900  1.00  0.00    -0.141 C  
HETATM   20  C   UNL     1      -9.937   5.740  66.897  1.00  0.00    -0.200 C  
ENDBRANCH   8   9
ENDBRANCH   7   8
ENDBRANCH   5   7
ENDBRANCH   2   3
TORSDOF 4
ENDMDL
MODEL      315
REMARK 921   NORMALIZED FREE ENERGY PREDICTED BY IDOCK:   -2.62 KCAL/MOL
REMARK 922        TOTAL FREE ENERGY PREDICTED BY IDOCK:   -3.43 KCAL/MOL
REMARK 923 INTER-LIGAND FREE ENERGY PREDICTED BY IDOCK:   -2.97 KCAL/MOL
REMARK 924 INTRA-LIGAND FREE ENERGY PREDICTED BY IDOCK:   -0.47 KCAL/MOL
REMARK 927      BINDING AFFINITY PREDICTED BY RF-SCORE:    0.00 PKD
ROOT
HETATM    1  C   UNL     1      -8.390  10.100  69.035  1.00  0.00    -0.138 C  
HETATM    2  C   UNL     1      -8.199   9.575  70.447  1.00  0.00    -0.220 C  
ENDROOT
BRANCH   2   3
HETATM    3  C   UNL     1      -9.424   8.834  70.945  1.00  0.00    -0.216 C  
HETATM    4  O   UNL     1     -10.371   9.380  71.500  1.00  0.00    -0.327 OA 
HETATM    5  N   UNL     1      -9.366   7.477  70.712  1.00  0.00    -0.162 N  
HETATM    6  H   UNL     1      -8.554   7.088  70.232  1.00  0.00     0.000 HD 
BRANCH   5   7
HETATM    7  C   UNL     1     -10.433   6.588  71.133  1.00  0.00    -0.220 C  
BRANCH   7   8
HETATM    8  C   UNL     1     -10.849   5.637  70.009  1.00  0.00    -0.366 C  
BRANCH   8   9
HETATM    9  C   UNL     1     -10.119   4.289  69.996  1.00  0.00    -0.057 C  
HETATM   10  C   UNL     1      -9.401   3.941  71.332  1.00  0.00    -0.208 C  
HETATM   11  C   UNL     1      -7.872   4.038  71.104  1.00  0.00    -0.063 C  
HETATM   12  C   UNL     1      -7.734   4.106  69.609  1.00  0.00    -0.053 A  
HETATM   13  C   UNL     1      -9.001   4.238  69.002  1.00  0.00    -0.157 A  
HETATM   14  C   UNL     1      -8.977   4.296  67.608  1.00  0.00    -0.135 A  
HETATM   15  C   UNL     1      -7.710   4.252  67.029  1.00  0.00    -0.092 A  
HETATM   16  O   UNL     1      -7.780   4.337  65.646  1.00  0.00    -0.088 OA 
HETATM   17  C   UNL     1      -6.476   4.141  67.641  1.00  0.00    -0.038 A  
HETATM   18  C   UNL     1      -6.485   4.055  69.011  1.00  0.00    -0.037 A  
HETATM   19  C   UNL     1      -9.190   4.436  65.315  1.00  0.00    -0.155 C  
HETATM   20  C   UNL     1     -10.031   4.411  66.596  1.00  0.00    -0.234 C  
ENDBRANCH   8   9
ENDBRANCH   7   8
ENDBRANCH   5   7
ENDBRANCH   2   3
TORSDOF 4
ENDMDL
MODEL      316
REMARK 921   NORMALIZED FREE ENERGY PREDICTED BY IDOCK:   -2.61 KCAL/MOL
REMARK 922        TOTAL FREE ENERGY PREDICTED BY IDOCK:   -3.42 KCAL/MOL
REMARK 923 INTER-LIGAND FREE ENERGY PREDICTED BY IDOCK:   -2.77 KCAL/MOL
REMARK 924 INTRA-LIGAND FREE ENERGY PREDICTED BY IDOCK:   -0.65 KCAL/MOL
REMARK 927      BINDING AFFINITY PREDICTED BY RF-SCORE:    0.00 PKD
ROOT
HETATM    1  C   UNL     1      -9.090   8.186  71.571  1.00  0.00    -0.203 C  
HETATM    2  C   UNL     1      -8.703   9.422  70.779  1.00  0.00    -0.216 C  
ENDROOT
BRANCH   2   3
HETATM    3  C   UNL     1      -8.000   9.065  69.485  1.00  0.00    -0.099 C  
HETATM    4  O   UNL     1      -7.660   7.925  69.186  1.00  0.00    -0.094 OA 
HETATM    5  N   UNL     1      -7.776  10.156  68.672  1.00  0.00    -0.088 N  
HETATM    6  H   UNL     1      -8.096  11.076  68.975  1.00  0.00     0.000 HD 
BRANCH   5   7
HETATM    7  C   UNL     1      -7.095  10.027  67.398  1.00  0.00    -0.084 C  
BRANCH   7   8
HETATM    8  C   UNL     1      -7.842  10.764  66.284  1.00  0.00    -0.156 C  
BRANCH   8   9
HETATM    9  C   UNL     1      -8.929   9.943  65.579  1.00  0.00    -0.209 C  
HETATM   10  C   UNL     1     -10.334  10.047  66.238  1.00  0.00    -0.235 C  
HETATM   11  C   UNL     1     -10.657   8.691  66.913  1.00  0.00    -0.270 C  
HETATM   12  C   UNL     1      -9.618   7.756  66.361  1.00  0.00    -0.235 A  
HETATM   13  C   UNL     1      -8.661   8.470  65.610  1.00  0.00    -0.213 A  
HETATM   14  C   UNL     1      -7.658   7.684  65.043  1.00  0.00    -0.097 A  
HETATM   15  C   UNL     1      -7.730   6.323  65.333  1.00  0.00    -0.097 A  
HETATM   16  O   UNL     1      -6.684   5.622  64.748  1.00  0.00    -0.044 OA 
HETATM   17  C   UNL     1      -8.666   5.641  66.087  1.00  0.00    -0.136 A  
HETATM   18  C   UNL     1      -9.674   6.398  66.629  1.00  0.00    -0.197 A  
HETATM   19  C   UNL     1      -5.890   6.601  64.029  1.00  0.00    -0.031 C  
HETATM   20  C   UNL     1      -6.504   7.996  64.195  1.00  0.00    -0.062 C  
ENDBRANCH   8   9
ENDBRANCH   7   8
ENDBRANCH   5   7
ENDBRANCH   2   3
TORSDOF 4
ENDMDL
MODEL      317
REMARK 921   NORMALIZED FREE ENERGY PREDICTED BY IDOCK:   -2.56 KCAL/MOL
REMARK 922        TOTAL FREE ENERGY PREDICTED BY IDOCK:   -3.36 KCAL/MOL
REMARK 923 INTER-LIGAND FREE ENERGY PREDICTED BY IDOCK:   -2.87 KCAL/MOL
REMARK 924 INTRA-LIGAND FREE ENERGY PREDICTED BY IDOCK:   -0.49 KCAL/MOL
REMARK 927      BINDING AFFINITY PREDICTED BY RF-SCORE:    0.00 PKD
ROOT
HETATM    1  C   UNL     1      -6.887   4.932  67.299  1.00  0.00    -0.056 C  
HETATM    2  C   UNL     1      -6.266   4.323  68.545  1.00  0.00    -0.032 C  
ENDROOT
BRANCH   2   3
HETATM    3  C   UNL     1      -7.069   4.644  69.789  1.00  0.00    -0.053 C  
HETATM    4  O   UNL     1      -8.217   4.255  69.979  1.00  0.00    -0.061 OA 
HETATM    5  N   UNL     1      -6.378   5.423  70.692  1.00  0.00    -0.026 N  
HETATM    6  H   UNL     1      -5.420   5.701  70.480  1.00  0.00     0.000 HD 
BRANCH   5   7
HETATM    7  C   UNL     1      -6.981   5.857  71.938  1.00  0.00    -0.081 C  
BRANCH   7   8
HETATM    8  C   UNL     1      -6.537   7.273  72.314  1.00  0.00    -0.051 C  
BRANCH   8   9
HETATM    9  C   UNL     1      -7.678   8.245  72.640  1.00  0.00    -0.169 C  
HETATM   10  C   UNL     1      -8.240   8.106  74.084  1.00  0.00    -0.310 C  
HETATM   11  C   UNL     1      -9.657   7.488  73.998  1.00  0.00    -0.175 C  
HETATM   12  C   UNL     1     -10.009   7.592  72.541  1.00  0.00    -0.263 A  
HETATM   13  C   UNL     1      -8.893   8.025  71.794  1.00  0.00    -0.184 A  
HETATM   14  C   UNL     1      -9.126   8.166  70.425  1.00  0.00    -0.150 A  
HETATM   15  C   UNL     1     -10.408   7.825  69.999  1.00  0.00    -0.221 A  
HETATM   16  O   UNL     1     -10.543   7.974  68.625  1.00  0.00    -0.191 OA 
HETATM   17  C   UNL     1     -11.486   7.385  70.743  1.00  0.00    -0.313 A  
HETATM   18  C   UNL     1     -11.280   7.267  72.095  1.00  0.00    -0.288 A  
HETATM   19  C   UNL     1      -9.261   8.449  68.140  1.00  0.00    -0.137 C  
HETATM   20  C   UNL     1      -8.280   8.595  69.308  1.00  0.00    -0.113 C  
ENDBRANCH   8   9
ENDBRANCH   7   8
ENDBRANCH   5   7
ENDBRANCH   2   3
TORSDOF 4
ENDMDL
MODEL      318
REMARK 921   NORMALIZED FREE ENERGY PREDICTED BY IDOCK:   -2.55 KCAL/MOL
REMARK 922        TOTAL FREE ENERGY PREDICTED BY IDOCK:   -3.35 KCAL/MOL
REMARK 923 INTER-LIGAND FREE ENERGY PREDICTED BY IDOCK:   -3.06 KCAL/MOL
REMARK 924 INTRA-LIGAND FREE ENERGY PREDICTED BY IDOCK:   -0.30 KCAL/MOL
REMARK 927      BINDING AFFINITY PREDICTED BY RF-SCORE:    0.00 PKD
ROOT
HETATM    1  C   UNL     1      -9.131   1.785  69.542  1.00  0.00    -0.157 C  
HETATM    2  C   UNL     1      -9.472   2.452  70.863  1.00  0.00    -0.214 C  
ENDROOT
BRANCH   2   3
HETATM    3  C   UNL     1      -8.569   3.637  71.145  1.00  0.00    -0.072 C  
HETATM    4  O   UNL     1      -8.116   3.899  72.254  1.00  0.00    -0.081 OA 
HETATM    5  N   UNL     1      -8.309   4.396  70.025  1.00  0.00    -0.062 N  
HETATM    6  H   UNL     1      -8.706   4.115  69.129  1.00  0.00     0.000 HD 
BRANCH   5   7
HETATM    7  C   UNL     1      -7.483   5.587  70.090  1.00  0.00    -0.070 C  
BRANCH   7   8
HETATM    8  C   UNL     1      -8.077   6.729  69.262  1.00  0.00    -0.120 C  
BRANCH   8   9
HETATM    9  C   UNL     1      -8.065   8.101  69.947  1.00  0.00    -0.115 C  
HETATM   10  C   UNL     1      -8.791   8.132  71.323  1.00  0.00    -0.176 C  
HETATM   11  C   UNL     1     -10.101   8.943  71.165  1.00  0.00    -0.341 C  
HETATM   12  C   UNL     1      -9.945   9.625  69.835  1.00  0.00    -0.273 A  
HETATM   13  C   UNL     1      -8.797   9.150  69.169  1.00  0.00    -0.146 A  
HETATM   14  C   UNL     1      -8.558   9.737  67.925  1.00  0.00    -0.125 A  
HETATM   15  C   UNL     1      -9.505  10.672  67.515  1.00  0.00    -0.153 A  
HETATM   16  O   UNL     1      -9.202  11.188  66.262  1.00  0.00    -0.182 OA 
HETATM   17  C   UNL     1     -10.637  11.114  68.174  1.00  0.00    -0.227 A  
HETATM   18  C   UNL     1     -10.870  10.565  69.410  1.00  0.00    -0.291 A  
HETATM   19  C   UNL     1      -7.971  10.541  65.844  1.00  0.00    -0.154 C  
HETATM   20  C   UNL     1      -7.500   9.562  66.926  1.00  0.00    -0.094 C  
ENDBRANCH   8   9
ENDBRANCH   7   8
ENDBRANCH   5   7
ENDBRANCH   2   3
TORSDOF 4
ENDMDL
MODEL      319
REMARK 921   NORMALIZED FREE ENERGY PREDICTED BY IDOCK:   -2.54 KCAL/MOL
REMARK 922        TOTAL FREE ENERGY PREDICTED BY IDOCK:   -3.34 KCAL/MOL
REMARK 923 INTER-LIGAND FREE ENERGY PREDICTED BY IDOCK:   -2.95 KCAL/MOL
REMARK 924 INTRA-LIGAND FREE ENERGY PREDICTED BY IDOCK:   -0.39 KCAL/MOL
REMARK 927      BINDING AFFINITY PREDICTED BY RF-SCORE:    0.00 PKD
ROOT
HETATM    1  C   UNL     1      -5.991   3.997  67.373  1.00  0.00    -0.024 C  
HETATM    2  C   UNL     1      -5.724   3.513  68.787  1.00  0.00    -0.022 C  
ENDROOT
BRANCH   2   3
HETATM    3  C   UNL     1      -7.005   3.353  69.580  1.00  0.00    -0.041 C  
HETATM    4  O   UNL     1      -7.722   2.359  69.523  1.00  0.00    -0.043 OA 
HETATM    5  N   UNL     1      -7.288   4.443  70.375  1.00  0.00    -0.048 N  
HETATM    6  H   UNL     1      -6.643   5.232  70.387  1.00  0.00     0.000 HD 
BRANCH   5   7
HETATM    7  C   UNL     1      -8.484   4.494  71.196  1.00  0.00    -0.106 C  
BRANCH   7   8
HETATM    8  C   UNL     1      -8.188   5.066  72.584  1.00  0.00    -0.112 C  
BRANCH   8   9
HETATM    9  C   UNL     1      -9.218   6.077  73.102  1.00  0.00    -0.132 C  
HETATM   10  C   UNL     1     -10.590   5.450  73.484  1.00  0.00    -0.310 C  
HETATM   11  C   UNL     1     -11.639   5.896  72.435  1.00  0.00    -0.341 C  
HETATM   12  C   UNL     1     -10.953   7.004  71.687  1.00  0.00    -0.258 A  
HETATM   13  C   UNL     1      -9.601   7.099  72.077  1.00  0.00    -0.158 A  
HETATM   14  C   UNL     1      -8.880   8.113  71.444  1.00  0.00    -0.185 A  
HETATM   15  C   UNL     1      -9.591   8.852  70.501  1.00  0.00    -0.202 A  
HETATM   16  O   UNL     1      -8.794   9.822  69.908  1.00  0.00    -0.201 OA 
HETATM   17  C   UNL     1     -10.914   8.734  70.118  1.00  0.00    -0.236 A  
HETATM   18  C   UNL     1     -11.642   7.758  70.751  1.00  0.00    -0.270 A  
HETATM   19  C   UNL     1      -7.483   9.698  70.518  1.00  0.00    -0.132 C  
HETATM   20  C   UNL     1      -7.492   8.569  71.555  1.00  0.00    -0.123 C  
ENDBRANCH   8   9
ENDBRANCH   7   8
ENDBRANCH   5   7
ENDBRANCH   2   3
TORSDOF 4
ENDMDL
MODEL      320
REMARK 921   NORMALIZED FREE ENERGY PREDICTED BY IDOCK:   -2.53 KCAL/MOL
REMARK 922        TOTAL FREE ENERGY PREDICTED BY IDOCK:   -3.32 KCAL/MOL
REMARK 923 INTER-LIGAND FREE ENERGY PREDICTED BY IDOCK:   -3.64 KCAL/MOL
REMARK 924 INTRA-LIGAND FREE ENERGY PREDICTED BY IDOCK:    0.32 KCAL/MOL
REMARK 927      BINDING AFFINITY PREDICTED BY RF-SCORE:    0.00 PKD
ROOT
HETATM    1  C   UNL     1      -9.353   2.910  70.138  1.00  0.00    -0.212 C  
HETATM    2  C   UNL     1      -9.691   2.347  71.508  1.00  0.00    -0.225 C  
ENDROOT
BRANCH   2   3
HETATM    3  C   UNL     1      -9.657   3.417  72.580  1.00  0.00    -0.127 C  
HETATM    4  O   UNL     1      -9.468   3.184  73.770  1.00  0.00    -0.091 OA 
HETATM    5  N   UNL     1      -9.864   4.687  72.085  1.00  0.00    -0.168 N  
HETATM    6  H   UNL     1     -10.001   4.813  71.082  1.00  0.00     0.000 HD 
BRANCH   5   7
HETATM    7  C   UNL     1      -9.891   5.847  72.955  1.00  0.00    -0.167 C  
BRANCH   7   8
HETATM    8  C   UNL     1     -10.938   6.866  72.500  1.00  0.00    -0.294 C  
BRANCH   8   9
HETATM    9  C   UNL     1     -10.483   8.329  72.551  1.00  0.00    -0.406 C  
HETATM   10  C   UNL     1     -11.532   9.342  72.005  1.00  0.00    -0.271 C  
HETATM   11  C   UNL     1     -11.013   9.902  70.658  1.00  0.00    -0.405 C  
HETATM   12  C   UNL     1      -9.573   9.474  70.619  1.00  0.00    -0.292 A  
HETATM   13  C   UNL     1      -9.289   8.601  71.689  1.00  0.00    -0.333 A  
HETATM   14  C   UNL     1      -7.967   8.158  71.747  1.00  0.00    -0.149 A  
HETATM   15  C   UNL     1      -7.139   8.613  70.722  1.00  0.00    -0.061 A  
HETATM   16  O   UNL     1      -5.852   8.108  70.846  1.00  0.00    -0.033 OA 
HETATM   17  C   UNL     1      -7.439   9.456  69.669  1.00  0.00    -0.084 A  
HETATM   18  C   UNL     1      -8.729   9.921  69.615  1.00  0.00    -0.218 A  
HETATM   19  C   UNL     1      -5.855   7.276  72.035  1.00  0.00    -0.037 C  
HETATM   20  C   UNL     1      -7.248   7.280  72.674  1.00  0.00    -0.068 C  
ENDBRANCH   8   9
ENDBRANCH   7   8
ENDBRANCH   5   7
ENDBRANCH   2   3
TORSDOF 4
ENDMDL
MODEL      321
REMARK 921   NORMALIZED FREE ENERGY PREDICTED BY IDOCK:   -2.49 KCAL/MOL
REMARK 922        TOTAL FREE ENERGY PREDICTED BY IDOCK:   -3.28 KCAL/MOL
REMARK 923 INTER-LIGAND FREE ENERGY PREDICTED BY IDOCK:   -2.58 KCAL/MOL
REMARK 924 INTRA-LIGAND FREE ENERGY PREDICTED BY IDOCK:   -0.70 KCAL/MOL
REMARK 927      BINDING AFFINITY PREDICTED BY RF-SCORE:    0.00 PKD
ROOT
HETATM    1  C   UNL     1      -8.507   3.165  69.952  1.00  0.00    -0.093 C  
HETATM    2  C   UNL     1      -7.322   4.040  70.321  1.00  0.00    -0.042 C  
ENDROOT
BRANCH   2   3
HETATM    3  C   UNL     1      -7.452   5.436  69.748  1.00  0.00    -0.066 C  
HETATM    4  O   UNL     1      -6.744   5.871  68.845  1.00  0.00    -0.055 OA 
HETATM    5  N   UNL     1      -8.449   6.176  70.347  1.00  0.00    -0.131 N  
HETATM    6  H   UNL     1      -9.011   5.750  71.084  1.00  0.00     0.000 HD 
BRANCH   5   7
HETATM    7  C   UNL     1      -8.717   7.547  69.955  1.00  0.00    -0.140 C  
BRANCH   7   8
HETATM    8  C   UNL     1     -10.207   7.772  69.683  1.00  0.00    -0.206 C  
BRANCH   8   9
HETATM    9  C   UNL     1     -10.625   7.640  68.214  1.00  0.00    -0.175 C  
HETATM   10  C   UNL     1     -11.095   6.212  67.811  1.00  0.00    -0.306 C  
HETATM   11  C   UNL     1     -10.019   5.587  66.889  1.00  0.00    -0.204 C  
HETATM   12  C   UNL     1      -9.143   6.750  66.516  1.00  0.00    -0.171 A  
HETATM   13  C   UNL     1      -9.499   7.894  67.260  1.00  0.00    -0.188 A  
HETATM   14  C   UNL     1      -8.748   9.034  66.973  1.00  0.00    -0.124 A  
HETATM   15  C   UNL     1      -7.740   8.863  66.027  1.00  0.00    -0.098 A  
HETATM   16  O   UNL     1      -7.031  10.038  65.820  1.00  0.00    -0.099 OA 
HETATM   17  C   UNL     1      -7.392   7.728  65.319  1.00  0.00    -0.078 A  
HETATM   18  C   UNL     1      -8.140   6.605  65.571  1.00  0.00    -0.124 A  
HETATM   19  C   UNL     1      -7.631  11.033  66.690  1.00  0.00    -0.146 C  
HETATM   20  C   UNL     1      -8.787  10.408  67.481  1.00  0.00    -0.134 C  
ENDBRANCH   8   9
ENDBRANCH   7   8
ENDBRANCH   5   7
ENDBRANCH   2   3
TORSDOF 4
ENDMDL
MODEL      322
REMARK 921   NORMALIZED FREE ENERGY PREDICTED BY IDOCK:   -2.40 KCAL/MOL
REMARK 922        TOTAL FREE ENERGY PREDICTED BY IDOCK:   -3.17 KCAL/MOL
REMARK 923 INTER-LIGAND FREE ENERGY PREDICTED BY IDOCK:   -2.91 KCAL/MOL
REMARK 924 INTRA-LIGAND FREE ENERGY PREDICTED BY IDOCK:   -0.26 KCAL/MOL
REMARK 927      BINDING AFFINITY PREDICTED BY RF-SCORE:    0.00 PKD
ROOT
HETATM    1  C   UNL     1      -7.449   2.274  66.310  1.00  0.00    -0.066 C  
HETATM    2  C   UNL     1      -8.699   2.233  65.449  1.00  0.00    -0.119 C  
ENDROOT
BRANCH   2   3
HETATM    3  C   UNL     1      -9.477   3.532  65.521  1.00  0.00    -0.147 C  
HETATM    4  O   UNL     1     -10.357   3.844  64.726  1.00  0.00    -0.213 OA 
HETATM    5  N   UNL     1      -9.093   4.334  66.574  1.00  0.00    -0.121 N  
HETATM    6  H   UNL     1      -8.363   4.008  67.207  1.00  0.00     0.000 HD 
BRANCH   5   7
HETATM    7  C   UNL     1      -9.702   5.630  66.802  1.00  0.00    -0.154 C  
BRANCH   7   8
HETATM    8  C   UNL     1      -9.211   6.260  68.108  1.00  0.00    -0.110 C  
BRANCH   8   9
HETATM    9  C   UNL     1      -8.923   7.764  68.035  1.00  0.00    -0.126 C  
HETATM   10  C   UNL     1     -10.103   8.662  68.507  1.00  0.00    -0.211 C  
HETATM   11  C   UNL     1     -10.701   9.372  67.267  1.00  0.00    -0.258 C  
HETATM   12  C   UNL     1      -9.678   9.142  66.191  1.00  0.00    -0.357 A  
HETATM   13  C   UNL     1      -8.685   8.247  66.638  1.00  0.00    -0.150 A  
HETATM   14  C   UNL     1      -7.678   7.980  65.709  1.00  0.00    -0.093 A  
HETATM   15  C   UNL     1      -7.824   8.606  64.473  1.00  0.00    -0.132 A  
HETATM   16  O   UNL     1      -6.794   8.269  63.606  1.00  0.00    -0.078 OA 
HETATM   17  C   UNL     1      -8.815   9.469  64.045  1.00  0.00    -0.243 A  
HETATM   18  C   UNL     1      -9.798   9.762  64.957  1.00  0.00    -0.243 A  
HETATM   19  C   UNL     1      -5.924   7.368  64.340  1.00  0.00    -0.037 C  
HETATM   20  C   UNL     1      -6.474   7.146  65.754  1.00  0.00    -0.047 C  
ENDBRANCH   8   9
ENDBRANCH   7   8
ENDBRANCH   5   7
ENDBRANCH   2   3
TORSDOF 4
ENDMDL
MODEL      323
REMARK 921   NORMALIZED FREE ENERGY PREDICTED BY IDOCK:   -2.40 KCAL/MOL
REMARK 922        TOTAL FREE ENERGY PREDICTED BY IDOCK:   -3.16 KCAL/MOL
REMARK 923 INTER-LIGAND FREE ENERGY PREDICTED BY IDOCK:   -2.81 KCAL/MOL
REMARK 924 INTRA-LIGAND FREE ENERGY PREDICTED BY IDOCK:   -0.35 KCAL/MOL
REMARK 927      BINDING AFFINITY PREDICTED BY RF-SCORE:    0.00 PKD
ROOT
HETATM    1  C   UNL     1      -7.480   2.259  66.409  1.00  0.00    -0.066 C  
HETATM    2  C   UNL     1      -8.895   2.485  65.906  1.00  0.00    -0.131 C  
ENDROOT
BRANCH   2   3
HETATM    3  C   UNL     1      -9.368   3.900  66.170  1.00  0.00    -0.175 C  
HETATM    4  O   UNL     1     -10.378   4.385  65.670  1.00  0.00    -0.257 OA 
HETATM    5  N   UNL     1      -8.545   4.593  67.030  1.00  0.00    -0.105 N  
HETATM    6  H   UNL     1      -7.727   4.126  67.422  1.00  0.00     0.000 HD 
BRANCH   5   7
HETATM    7  C   UNL     1      -8.813   5.972  67.392  1.00  0.00    -0.106 C  
BRANCH   7   8
HETATM    8  C   UNL     1      -7.894   6.447  68.520  1.00  0.00    -0.105 C  
BRANCH   8   9
HETATM    9  C   UNL     1      -8.362   7.711  69.251  1.00  0.00    -0.134 C  
HETATM   10  C   UNL     1      -9.656   7.517  70.093  1.00  0.00    -0.168 C  
HETATM   11  C   UNL     1     -10.811   8.275  69.393  1.00  0.00    -0.095 C  
HETATM   12  C   UNL     1     -10.115   9.140  68.381  1.00  0.00    -0.220 A  
HETATM   13  C   UNL     1      -8.743   8.818  68.318  1.00  0.00    -0.135 A  
HETATM   14  C   UNL     1      -8.005   9.581  67.412  1.00  0.00    -0.106 A  
HETATM   15  C   UNL     1      -8.737  10.516  66.683  1.00  0.00    -0.133 A  
HETATM   16  O   UNL     1      -7.930  11.213  65.794  1.00  0.00    -0.078 OA 
HETATM   17  C   UNL     1     -10.087  10.806  66.744  1.00  0.00    -0.267 A  
HETATM   18  C   UNL     1     -10.821  10.082  67.650  1.00  0.00    -0.336 A  
HETATM   19  C   UNL     1      -6.587  10.691  65.970  1.00  0.00    -0.128 C  
HETATM   20  C   UNL     1      -6.586   9.598  67.045  1.00  0.00    -0.067 C  
ENDBRANCH   8   9
ENDBRANCH   7   8
ENDBRANCH   5   7
ENDBRANCH   2   3
TORSDOF 4
ENDMDL
MODEL      324
REMARK 921   NORMALIZED FREE ENERGY PREDICTED BY IDOCK:   -2.39 KCAL/MOL
REMARK 922        TOTAL FREE ENERGY PREDICTED BY IDOCK:   -3.15 KCAL/MOL
REMARK 923 INTER-LIGAND FREE ENERGY PREDICTED BY IDOCK:   -2.14 KCAL/MOL
REMARK 924 INTRA-LIGAND FREE ENERGY PREDICTED BY IDOCK:   -1.00 KCAL/MOL
REMARK 927      BINDING AFFINITY PREDICTED BY RF-SCORE:    0.00 PKD
ROOT
HETATM    1  C   UNL     1      -8.348   5.225  68.928  1.00  0.00    -0.092 C  
HETATM    2  C   UNL     1      -9.208   6.453  68.689  1.00  0.00    -0.125 C  
ENDROOT
BRANCH   2   3
HETATM    3  C   UNL     1      -9.208   7.383  69.886  1.00  0.00    -0.144 C  
HETATM    4  O   UNL     1      -8.459   8.347  70.000  1.00  0.00    -0.120 OA 
HETATM    5  N   UNL     1     -10.139   7.034  70.841  1.00  0.00    -0.193 N  
HETATM    6  H   UNL     1     -10.742   6.228  70.678  1.00  0.00     0.000 HD 
BRANCH   5   7
HETATM    7  C   UNL     1     -10.281   7.787  72.073  1.00  0.00    -0.201 C  
BRANCH   7   8
HETATM    8  C   UNL     1     -10.203   6.875  73.300  1.00  0.00    -0.286 C  
BRANCH   8   9
HETATM    9  C   UNL     1      -8.856   6.888  74.033  1.00  0.00    -0.198 C  
HETATM   10  C   UNL     1      -8.281   8.312  74.284  1.00  0.00    -0.241 C  
HETATM   11  C   UNL     1      -7.050   8.510  73.365  1.00  0.00    -0.059 C  
HETATM   12  C   UNL     1      -6.746   7.125  72.867  1.00  0.00    -0.064 A  
HETATM   13  C   UNL     1      -7.761   6.227  73.255  1.00  0.00    -0.099 A  
HETATM   14  C   UNL     1      -7.560   4.907  72.850  1.00  0.00    -0.092 A  
HETATM   15  C   UNL     1      -6.411   4.683  72.094  1.00  0.00    -0.026 A  
HETATM   16  O   UNL     1      -6.302   3.351  71.717  1.00  0.00    -0.014 OA 
HETATM   17  C   UNL     1      -5.433   5.580  71.707  1.00  0.00    -0.016 A  
HETATM   18  C   UNL     1      -5.604   6.877  72.122  1.00  0.00    -0.037 A  
HETATM   19  C   UNL     1      -7.459   2.675  72.274  1.00  0.00    -0.051 C  
HETATM   20  C   UNL     1      -8.330   3.675  73.043  1.00  0.00    -0.086 C  
ENDBRANCH   8   9
ENDBRANCH   7   8
ENDBRANCH   5   7
ENDBRANCH   2   3
TORSDOF 4
ENDMDL
MODEL      325
REMARK 921   NORMALIZED FREE ENERGY PREDICTED BY IDOCK:   -2.36 KCAL/MOL
REMARK 922        TOTAL FREE ENERGY PREDICTED BY IDOCK:   -3.11 KCAL/MOL
REMARK 923 INTER-LIGAND FREE ENERGY PREDICTED BY IDOCK:   -2.88 KCAL/MOL
REMARK 924 INTRA-LIGAND FREE ENERGY PREDICTED BY IDOCK:   -0.23 KCAL/MOL
REMARK 927      BINDING AFFINITY PREDICTED BY RF-SCORE:    0.00 PKD
ROOT
HETATM    1  C   UNL     1      -8.218  12.470  67.040  1.00  0.00    -0.125 C  
HETATM    2  C   UNL     1      -8.324  11.889  68.439  1.00  0.00    -0.157 C  
ENDROOT
BRANCH   2   3
HETATM    3  C   UNL     1      -9.254  10.693  68.484  1.00  0.00    -0.170 C  
HETATM    4  O   UNL     1      -9.533  10.010  67.505  1.00  0.00    -0.146 OA 
HETATM    5  N   UNL     1      -9.760  10.449  69.743  1.00  0.00    -0.416 N  
HETATM    6  H   UNL     1      -9.476  11.048  70.518  1.00  0.00     0.000 HD 
BRANCH   5   7
HETATM    7  C   UNL     1     -10.687   9.362  69.991  1.00  0.00    -0.239 C  
BRANCH   7   8
HETATM    8  C   UNL     1      -9.955   8.083  70.405  1.00  0.00    -0.188 C  
BRANCH   8   9
HETATM    9  C   UNL     1      -9.416   8.080  71.840  1.00  0.00    -0.240 C  
HETATM   10  C   UNL     1      -7.990   8.685  71.986  1.00  0.00    -0.115 C  
HETATM   11  C   UNL     1      -7.002   7.534  72.301  1.00  0.00    -0.064 C  
HETATM   12  C   UNL     1      -7.895   6.379  72.653  1.00  0.00    -0.104 A  
HETATM   13  C   UNL     1      -9.244   6.701  72.398  1.00  0.00    -0.140 A  
HETATM   14  C   UNL     1     -10.156   5.691  72.708  1.00  0.00    -0.205 A  
HETATM   15  C   UNL     1      -9.596   4.508  73.186  1.00  0.00    -0.130 A  
HETATM   16  O   UNL     1     -10.570   3.554  73.448  1.00  0.00    -0.162 OA 
HETATM   17  C   UNL     1      -8.268   4.201  73.414  1.00  0.00    -0.090 A  
HETATM   18  C   UNL     1      -7.362   5.195  73.139  1.00  0.00    -0.091 A  
HETATM   19  C   UNL     1     -11.842   4.171  73.119  1.00  0.00     0.205 C  
HETATM   20  C   UNL     1     -11.616   5.604  72.621  1.00  0.00    -0.307 C  
ENDBRANCH   8   9
ENDBRANCH   7   8
ENDBRANCH   5   7
ENDBRANCH   2   3
TORSDOF 4
ENDMDL
MODEL      326
REMARK 921   NORMALIZED FREE ENERGY PREDICTED BY IDOCK:   -2.30 KCAL/MOL
REMARK 922        TOTAL FREE ENERGY PREDICTED BY IDOCK:   -3.04 KCAL/MOL
REMARK 923 INTER-LIGAND FREE ENERGY PREDICTED BY IDOCK:   -2.63 KCAL/MOL
REMARK 924 INTRA-LIGAND FREE ENERGY PREDICTED BY IDOCK:   -0.41 KCAL/MOL
REMARK 927      BINDING AFFINITY PREDICTED BY RF-SCORE:    0.00 PKD
ROOT
HETATM    1  C   UNL     1     -11.544   7.838  70.809  1.00  0.00    -0.270 C  
HETATM    2  C   UNL     1     -11.188   9.314  70.852  1.00  0.00    -0.372 C  
ENDROOT
BRANCH   2   3
HETATM    3  C   UNL     1     -10.481   9.760  69.587  1.00  0.00    -0.242 C  
HETATM    4  O   UNL     1     -10.274  10.935  69.301  1.00  0.00    -0.217 OA 
HETATM    5  N   UNL     1     -10.094   8.709  68.785  1.00  0.00    -0.191 N  
HETATM    6  H   UNL     1     -10.285   7.754  69.088  1.00  0.00     0.000 HD 
BRANCH   5   7
HETATM    7  C   UNL     1      -9.422   8.928  67.518  1.00  0.00    -0.141 C  
BRANCH   7   8
HETATM    8  C   UNL     1      -7.939   9.250  67.717  1.00  0.00    -0.100 C  
BRANCH   8   9
HETATM    9  C   UNL     1      -6.988   8.061  67.535  1.00  0.00    -0.075 C  
HETATM   10  C   UNL     1      -6.806   7.610  66.057  1.00  0.00    -0.061 C  
HETATM   11  C   UNL     1      -7.511   6.243  65.874  1.00  0.00    -0.082 C  
HETATM   12  C   UNL     1      -7.784   5.787  67.279  1.00  0.00    -0.101 A  
HETATM   13  C   UNL     1      -7.479   6.812  68.199  1.00  0.00    -0.099 A  
HETATM   14  C   UNL     1      -7.688   6.477  69.537  1.00  0.00    -0.100 A  
HETATM   15  C   UNL     1      -8.199   5.200  69.761  1.00  0.00    -0.089 A  
HETATM   16  O   UNL     1      -8.395   4.960  71.114  1.00  0.00    -0.108 OA 
HETATM   17  C   UNL     1      -8.510   4.213  68.845  1.00  0.00    -0.099 A  
HETATM   18  C   UNL     1      -8.285   4.518  67.526  1.00  0.00    -0.100 A  
HETATM   19  C   UNL     1      -7.976   6.165  71.805  1.00  0.00    -0.103 C  
HETATM   20  C   UNL     1      -7.492   7.209  70.791  1.00  0.00    -0.080 C  
ENDBRANCH   8   9
ENDBRANCH   7   8
ENDBRANCH   5   7
ENDBRANCH   2   3
TORSDOF 4
ENDMDL
MODEL      327
REMARK 921   NORMALIZED FREE ENERGY PREDICTED BY IDOCK:   -2.23 KCAL/MOL
REMARK 922        TOTAL FREE ENERGY PREDICTED BY IDOCK:   -2.95 KCAL/MOL
REMARK 923 INTER-LIGAND FREE ENERGY PREDICTED BY IDOCK:   -3.83 KCAL/MOL
REMARK 924 INTRA-LIGAND FREE ENERGY PREDICTED BY IDOCK:    0.88 KCAL/MOL
REMARK 927      BINDING AFFINITY PREDICTED BY RF-SCORE:    0.00 PKD
ROOT
HETATM    1  C   UNL     1      -9.466  20.736  67.344  1.00  0.00    -0.451 C  
HETATM    2  C   UNL     1     -10.360  19.700  66.684  1.00  0.00    -0.598 C  
ENDROOT
BRANCH   2   3
HETATM    3  C   UNL     1      -9.560  18.545  66.117  1.00  0.00    -0.194 C  
HETATM    4  O   UNL     1      -8.335  18.536  66.041  1.00  0.00    -0.476 OA 
HETATM    5  N   UNL     1     -10.349  17.498  65.691  1.00  0.00    -0.221 N  
HETATM    6  H   UNL     1     -11.361  17.563  65.796  1.00  0.00     0.000 HD 
BRANCH   5   7
HETATM    7  C   UNL     1      -9.774  16.307  65.096  1.00  0.00     0.601 C  
BRANCH   7   8
HETATM    8  C   UNL     1     -10.758  15.134  65.124  1.00  0.00    -0.442 C  
BRANCH   8   9
HETATM    9  C   UNL     1     -10.653  14.229  66.357  1.00  0.00    -0.286 C  
HETATM   10  C   UNL     1     -12.021  13.709  66.884  1.00  0.00    -0.454 C  
HETATM   11  C   UNL     1     -12.327  14.414  68.228  1.00  0.00    -0.015 C  
HETATM   12  C   UNL     1     -11.019  15.052  68.607  1.00  0.00    -0.261 A  
HETATM   13  C   UNL     1     -10.090  14.933  67.553  1.00  0.00    -0.228 A  
HETATM   14  C   UNL     1      -8.835  15.485  67.816  1.00  0.00    -0.173 A  
HETATM   15  C   UNL     1      -8.702  16.100  69.059  1.00  0.00    -0.254 A  
HETATM   16  O   UNL     1      -7.433  16.639  69.227  1.00  0.00    -0.241 OA 
HETATM   17  C   UNL     1      -9.631  16.223  70.075  1.00  0.00     0.545 A  
HETATM   18  C   UNL     1     -10.861  15.661  69.841  1.00  0.00    -0.324 A  
HETATM   19  C   UNL     1      -6.702  16.344  68.008  1.00  0.00    -0.134 C  
HETATM   20  C   UNL     1      -7.599  15.570  67.034  1.00  0.00    -0.228 C  
ENDBRANCH   8   9
ENDBRANCH   7   8
ENDBRANCH   5   7
ENDBRANCH   2   3
TORSDOF 4
ENDMDL
MODEL      328
REMARK 921   NORMALIZED FREE ENERGY PREDICTED BY IDOCK:   -2.21 KCAL/MOL
REMARK 922        TOTAL FREE ENERGY PREDICTED BY IDOCK:   -2.92 KCAL/MOL
REMARK 923 INTER-LIGAND FREE ENERGY PREDICTED BY IDOCK:   -2.54 KCAL/MOL
REMARK 924 INTRA-LIGAND FREE ENERGY PREDICTED BY IDOCK:   -0.39 KCAL/MOL
REMARK 927      BINDING AFFINITY PREDICTED BY RF-SCORE:    0.00 PKD
ROOT
HETATM    1  C   UNL     1      -7.223   2.077  66.350  1.00  0.00    -0.056 C  
HETATM    2  C   UNL     1      -8.285   1.967  65.269  1.00  0.00    -0.082 C  
ENDROOT
BRANCH   2   3
HETATM    3  C   UNL     1      -9.227   3.154  65.280  1.00  0.00    -0.150 C  
HETATM    4  O   UNL     1      -9.887   3.509  64.309  1.00  0.00    -0.156 OA 
HETATM    5  N   UNL     1      -9.267   3.800  66.497  1.00  0.00    -0.156 N  
HETATM    6  H   UNL     1      -8.703   3.445  67.268  1.00  0.00     0.000 HD 
BRANCH   5   7
HETATM    7  C   UNL     1     -10.092   4.975  66.705  1.00  0.00    -0.239 C  
BRANCH   7   8
HETATM    8  C   UNL     1     -10.194   5.333  68.190  1.00  0.00    -0.204 C  
BRANCH   8   9
HETATM    9  C   UNL     1     -10.194   6.836  68.495  1.00  0.00    -0.186 C  
HETATM   10  C   UNL     1     -10.154   7.743  67.232  1.00  0.00    -0.307 C  
HETATM   11  C   UNL     1      -8.761   8.416  67.159  1.00  0.00    -0.131 C  
HETATM   12  C   UNL     1      -8.164   8.158  68.513  1.00  0.00    -0.125 A  
HETATM   13  C   UNL     1      -8.981   7.279  69.253  1.00  0.00    -0.135 A  
HETATM   14  C   UNL     1      -8.515   6.988  70.537  1.00  0.00    -0.133 A  
HETATM   15  C   UNL     1      -7.300   7.579  70.878  1.00  0.00    -0.068 A  
HETATM   16  O   UNL     1      -6.903   7.220  72.159  1.00  0.00    -0.058 OA 
HETATM   17  C   UNL     1      -6.502   8.425  70.133  1.00  0.00    -0.038 A  
HETATM   18  C   UNL     1      -6.961   8.741  68.879  1.00  0.00    -0.062 A  
HETATM   19  C   UNL     1      -7.939   6.343  72.675  1.00  0.00    -0.104 C  
HETATM   20  C   UNL     1      -9.041   6.160  71.625  1.00  0.00    -0.147 C  
ENDBRANCH   8   9
ENDBRANCH   7   8
ENDBRANCH   5   7
ENDBRANCH   2   3
TORSDOF 4
ENDMDL
MODEL      329
REMARK 921   NORMALIZED FREE ENERGY PREDICTED BY IDOCK:   -2.15 KCAL/MOL
REMARK 922        TOTAL FREE ENERGY PREDICTED BY IDOCK:   -2.86 KCAL/MOL
REMARK 923 INTER-LIGAND FREE ENERGY PREDICTED BY IDOCK:   -2.58 KCAL/MOL
REMARK 924 INTRA-LIGAND FREE ENERGY PREDICTED BY IDOCK:   -0.28 KCAL/MOL
REMARK 927      BINDING AFFINITY PREDICTED BY RF-SCORE:    0.00 PKD
ROOT
HETATM    1  C   UNL     1      -8.067  12.538  66.960  1.00  0.00    -0.105 C  
HETATM    2  C   UNL     1      -8.150  11.720  68.237  1.00  0.00    -0.154 C  
ENDROOT
BRANCH   2   3
HETATM    3  C   UNL     1      -8.839  10.390  68.010  1.00  0.00    -0.130 C  
HETATM    4  O   UNL     1      -8.871   9.814  66.928  1.00  0.00    -0.136 OA 
HETATM    5  N   UNL     1      -9.432   9.888  69.149  1.00  0.00    -0.184 N  
HETATM    6  H   UNL     1      -9.357  10.410  70.021  1.00  0.00     0.000 HD 
BRANCH   5   7
HETATM    7  C   UNL     1     -10.162   8.634  69.135  1.00  0.00    -0.208 C  
BRANCH   7   8
HETATM    8  C   UNL     1      -9.297   7.475  69.633  1.00  0.00    -0.153 C  
BRANCH   8   9
HETATM    9  C   UNL     1     -10.076   6.260  70.152  1.00  0.00    -0.222 C  
HETATM   10  C   UNL     1     -10.879   6.529  71.457  1.00  0.00    -0.288 C  
HETATM   11  C   UNL     1     -10.190   5.770  72.618  1.00  0.00    -0.212 C  
HETATM   12  C   UNL     1      -9.236   4.839  71.926  1.00  0.00    -0.171 A  
HETATM   13  C   UNL     1      -9.188   5.120  70.544  1.00  0.00    -0.191 A  
HETATM   14  C   UNL     1      -8.335   4.295  69.809  1.00  0.00    -0.077 A  
HETATM   15  C   UNL     1      -7.635   3.347  70.553  1.00  0.00    -0.040 A  
HETATM   16  O   UNL     1      -6.797   2.587  69.748  1.00  0.00    -0.033 OA 
HETATM   17  C   UNL     1      -7.680   3.097  71.911  1.00  0.00    -0.053 A  
HETATM   18  C   UNL     1      -8.535   3.883  72.643  1.00  0.00    -0.099 A  
HETATM   19  C   UNL     1      -6.978   3.080  68.394  1.00  0.00    -0.049 C  
HETATM   20  C   UNL     1      -8.001   4.222  68.385  1.00  0.00    -0.078 C  
ENDBRANCH   8   9
ENDBRANCH   7   8
ENDBRANCH   5   7
ENDBRANCH   2   3
TORSDOF 4
ENDMDL
MODEL      330
REMARK 921   NORMALIZED FREE ENERGY PREDICTED BY IDOCK:   -1.90 KCAL/MOL
REMARK 922        TOTAL FREE ENERGY PREDICTED BY IDOCK:   -2.55 KCAL/MOL
REMARK 923 INTER-LIGAND FREE ENERGY PREDICTED BY IDOCK:   -2.60 KCAL/MOL
REMARK 924 INTRA-LIGAND FREE ENERGY PREDICTED BY IDOCK:    0.05 KCAL/MOL
REMARK 927      BINDING AFFINITY PREDICTED BY RF-SCORE:    0.00 PKD
ROOT
HETATM    1  C   UNL     1      -9.436   2.864  70.277  1.00  0.00    -0.200 C  
HETATM    2  C   UNL     1      -8.191   2.810  71.145  1.00  0.00    -0.073 C  
ENDROOT
BRANCH   2   3
HETATM    3  C   UNL     1      -7.188   3.878  70.760  1.00  0.00    -0.037 C  
HETATM    4  O   UNL     1      -5.978   3.766  70.919  1.00  0.00    -0.013 OA 
HETATM    5  N   UNL     1      -7.776   4.998  70.210  1.00  0.00    -0.066 N  
HETATM    6  H   UNL     1      -8.788   5.022  70.092  1.00  0.00     0.000 HD 
BRANCH   5   7
HETATM    7  C   UNL     1      -6.987   6.143  69.796  1.00  0.00    -0.070 C  
BRANCH   7   8
HETATM    8  C   UNL     1      -7.434   7.420  70.511  1.00  0.00    -0.082 C  
BRANCH   8   9
HETATM    9  C   UNL     1      -8.626   8.140  69.869  1.00  0.00    -0.130 C  
HETATM   10  C   UNL     1      -9.922   8.117  70.729  1.00  0.00    -0.209 C  
HETATM   11  C   UNL     1     -10.947   7.180  70.043  1.00  0.00    -0.287 C  
HETATM   12  C   UNL     1     -10.369   6.954  68.675  1.00  0.00    -0.200 A  
HETATM   13  C   UNL     1      -9.073   7.503  68.589  1.00  0.00    -0.134 A  
HETATM   14  C   UNL     1      -8.456   7.355  67.346  1.00  0.00    -0.119 A  
HETATM   15  C   UNL     1      -9.195   6.658  66.392  1.00  0.00    -0.151 A  
HETATM   16  O   UNL     1      -8.499   6.539  65.197  1.00  0.00    -0.128 OA 
HETATM   17  C   UNL     1     -10.459   6.109  66.499  1.00  0.00    -0.195 A  
HETATM   18  C   UNL     1     -11.089   6.271  67.707  1.00  0.00    -0.361 A  
HETATM   19  C   UNL     1      -7.229   7.212  65.398  1.00  0.00    -0.070 C  
HETATM   20  C   UNL     1      -7.155   7.777  66.821  1.00  0.00    -0.080 C  
ENDBRANCH   8   9
ENDBRANCH   7   8
ENDBRANCH   5   7
ENDBRANCH   2   3
TORSDOF 4
ENDMDL
MODEL      331
REMARK 921   NORMALIZED FREE ENERGY PREDICTED BY IDOCK:   -1.80 KCAL/MOL
REMARK 922        TOTAL FREE ENERGY PREDICTED BY IDOCK:   -2.42 KCAL/MOL
REMARK 923 INTER-LIGAND FREE ENERGY PREDICTED BY IDOCK:   -3.09 KCAL/MOL
REMARK 924 INTRA-LIGAND FREE ENERGY PREDICTED BY IDOCK:    0.67 KCAL/MOL
REMARK 927      BINDING AFFINITY PREDICTED BY RF-SCORE:    0.00 PKD
ROOT
HETATM    1  C   UNL     1      -8.048   8.944  69.475  1.00  0.00    -0.101 C  
HETATM    2  C   UNL     1      -8.273  10.440  69.609  1.00  0.00    -0.099 C  
ENDROOT
BRANCH   2   3
HETATM    3  C   UNL     1      -7.662  11.207  68.454  1.00  0.00    -0.125 C  
HETATM    4  O   UNL     1      -7.645  12.432  68.382  1.00  0.00    -0.117 OA 
HETATM    5  N   UNL     1      -7.123  10.388  67.485  1.00  0.00    -0.085 N  
HETATM    6  H   UNL     1      -7.158   9.377  67.613  1.00  0.00     0.000 HD 
BRANCH   5   7
HETATM    7  C   UNL     1      -6.510  10.930  66.287  1.00  0.00    -0.129 C  
BRANCH   7   8
HETATM    8  C   UNL     1      -7.521  11.709  65.442  1.00  0.00     1.252 C  
BRANCH   8   9
HETATM    9  C   UNL     1      -8.986  11.539  65.863  1.00  0.00    -0.152 C  
HETATM   10  C   UNL     1      -9.675  10.273  65.277  1.00  0.00    -0.354 C  
HETATM   11  C   UNL     1     -10.707  10.727  64.215  1.00  0.00    -0.096 C  
HETATM   12  C   UNL     1     -10.831  12.208  64.443  1.00  0.00    -0.372 A  
HETATM   13  C   UNL     1      -9.867  12.646  65.373  1.00  0.00    -0.157 A  
HETATM   14  C   UNL     1      -9.912  14.011  65.662  1.00  0.00    -0.309 A  
HETATM   15  C   UNL     1     -10.874  14.738  64.963  1.00  0.00    -0.425 A  
HETATM   16  O   UNL     1     -10.834  16.085  65.295  1.00  0.00    -0.384 OA 
HETATM   17  C   UNL     1     -11.801  14.294  64.039  1.00  0.00    -0.267 A  
HETATM   18  C   UNL     1     -11.786  12.949  63.765  1.00  0.00    -0.557 A  
HETATM   19  C   UNL     1      -9.776  16.230  66.278  1.00  0.00    -0.304 C  
HETATM   20  C   UNL     1      -9.131  14.868  66.559  1.00  0.00    -0.309 C  
ENDBRANCH   8   9
ENDBRANCH   7   8
ENDBRANCH   5   7
ENDBRANCH   2   3
TORSDOF 4
ENDMDL
