MODEL        1
REMARK 921   NORMALIZED FREE ENERGY PREDICTED BY IDOCK:   -7.06 KCAL/MOL
REMARK 922        TOTAL FREE ENERGY PREDICTED BY IDOCK:  -12.40 KCAL/MOL
REMARK 923 INTER-LIGAND FREE ENERGY PREDICTED BY IDOCK:  -10.77 KCAL/MOL
REMARK 924 INTRA-LIGAND FREE ENERGY PREDICTED BY IDOCK:   -1.63 KCAL/MOL
REMARK 927      BINDING AFFINITY PREDICTED BY RF-SCORE:    0.00 PKD
ROOT
HETATM    1  C   UNK A   1     -11.817  14.840  66.341  1.00  0.00    -0.231 C  
HETATM    2  C   UNK A   1     -10.649  15.456  65.547  1.00  0.00    -0.400 C  
HETATM    3  C   UNK A   1      -9.376  15.001  66.250  1.00  0.00    -0.341 C  
HETATM    4  C   UNK A   1      -9.844  14.560  67.626  1.00  0.00    -0.223 C  
HETATM    5  C   UNK A   1     -11.184  13.879  67.362  1.00  0.00    -0.312 C  
HETATM    6  N   UNK A   1     -11.166  12.579  66.674  1.00  0.00    -0.290 N  
HETATM    7  C   UNK A   1     -10.797  11.350  67.221  1.00  0.00    -0.263 C  
HETATM    8  C   UNK A   1     -12.166  12.564  65.569  1.00  0.00    -0.377 C  
HETATM    9  C   UNK A   1     -11.680  12.179  64.157  1.00  0.00    -0.396 C  
HETATM   10  C   UNK A   1     -12.758  13.978  65.517  1.00  0.00    -0.517 C  
HETATM   11  O   UNK A   1     -11.051  10.321  66.583  1.00  0.00    -0.045 OA 
HETATM   12  O   UNK A   1     -10.359  11.890  64.088  1.00  0.00    -0.286 OA 
HETATM   13  O   UNK A   1     -12.397  12.172  63.173  1.00  0.00    -0.474 OA 
ENDROOT
BRANCH   7  14
HETATM   14  C   UNK A   1     -10.025  11.258  68.566  1.00  0.00    -0.202 C  
HETATM   15  C   UNK A   1      -8.514  11.352  68.299  1.00  0.00    -0.154 C  
BRANCH  14  16
HETATM   16  N   UNK A   1     -10.372   9.994  69.261  1.00  0.00    -0.204 NA 
HETATM   17  H   UNK A   1      -9.549   9.402  69.365  1.00  0.00     0.000 HD 
BRANCH  16  18
HETATM   18  C   UNK A   0     -11.044  10.206  70.581  1.00  0.00    -0.322 C  
BRANCH  18  19
HETATM   19  C   UNK A   0     -12.426  10.828  70.384  1.00  0.00    -0.430 C  
BRANCH  19  20
HETATM   20  C   UNK A   0     -13.058  11.398  71.663  1.00  0.00    -0.498 C  
BRANCH  20  21
HETATM   21  C   UNK A   0     -13.155  12.894  71.487  1.00  0.00    -0.390 A  
HETATM   22  C   UNK A   0     -14.034  13.645  72.280  1.00  0.00    -0.661 A  
HETATM   23  C   UNK A   0     -12.238  13.560  70.660  1.00  0.00    -0.434 A  
HETATM   24  C   UNK A   0     -13.962  15.036  72.287  1.00  0.00    -0.611 A  
HETATM   25  C   UNK A   0     -12.171  14.952  70.667  1.00  0.00    -0.379 A  
HETATM   26  C   UNK A   0     -13.019  15.687  71.491  1.00  0.00    -0.549 A  
ENDBRANCH  20  21
ENDBRANCH  19  20
ENDBRANCH  18  19
BRANCH  18  27
HETATM   27  C   UNK A   0     -11.146   8.863  71.332  1.00  0.00    -0.306 C  
HETATM   28  O   UNK A   0     -10.565   8.581  72.371  1.00  0.00    -0.329 OA 
BRANCH  27  29
HETATM   29  O   UNK A   0     -11.998   8.034  70.655  1.00  0.00    -0.185 OA 
BRANCH  29  30
HETATM   30  C   UNK A   0     -12.779   7.135  71.458  1.00  0.00    -0.393 C  
HETATM   31  C   UNK A   0     -14.218   7.609  71.562  1.00  0.00    -0.564 C  
ENDBRANCH  29  30
ENDBRANCH  27  29
ENDBRANCH  18  27
ENDBRANCH  16  18
ENDBRANCH  14  16
ENDBRANCH   7  14
TORSDOF 9
ENDMDL
MODEL        2
REMARK 921   NORMALIZED FREE ENERGY PREDICTED BY IDOCK:   -6.87 KCAL/MOL
REMARK 922        TOTAL FREE ENERGY PREDICTED BY IDOCK:  -12.11 KCAL/MOL
REMARK 923 INTER-LIGAND FREE ENERGY PREDICTED BY IDOCK:  -10.60 KCAL/MOL
REMARK 924 INTRA-LIGAND FREE ENERGY PREDICTED BY IDOCK:   -1.51 KCAL/MOL
REMARK 927      BINDING AFFINITY PREDICTED BY RF-SCORE:    0.00 PKD
ROOT
HETATM    1  C   UNK A   1     -11.514  13.871  66.029  1.00  0.00    -0.345 C  
HETATM    2  C   UNK A   1     -10.134  14.523  65.813  1.00  0.00    -0.365 C  
HETATM    3  C   UNK A   1      -9.335  14.247  67.080  1.00  0.00    -0.249 C  
HETATM    4  C   UNK A   1     -10.386  13.881  68.114  1.00  0.00    -0.247 C  
HETATM    5  C   UNK A   1     -11.408  13.060  67.332  1.00  0.00    -0.305 C  
HETATM    6  N   UNK A   1     -11.011  11.715  66.890  1.00  0.00    -0.277 N  
HETATM    7  C   UNK A   1     -10.898  10.574  67.685  1.00  0.00    -0.300 C  
HETATM    8  C   UNK A   1     -11.359  11.517  65.454  1.00  0.00    -0.078 C  
HETATM    9  C   UNK A   1     -10.242  11.062  64.493  1.00  0.00    -0.344 C  
HETATM   10  C   UNK A   1     -11.911  12.862  64.965  1.00  0.00    -0.411 C  
HETATM   11  O   UNK A   1     -10.775   9.477  67.127  1.00  0.00    -0.255 OA 
HETATM   12  O   UNK A   1      -9.038  10.890  65.089  1.00  0.00    -0.197 OA 
HETATM   13  O   UNK A   1     -10.400  10.908  63.296  1.00  0.00    -0.325 OA 
ENDROOT
BRANCH   7  14
HETATM   14  C   UNK A   1     -10.860  10.665  69.236  1.00  0.00    -0.239 C  
HETATM   15  C   UNK A   1      -9.788   9.708  69.781  1.00  0.00    -0.253 C  
BRANCH  14  16
HETATM   16  N   UNK A   1     -12.199  10.349  69.792  1.00  0.00    -0.515 NA 
HETATM   17  H   UNK A   1     -12.540   9.460  69.426  1.00  0.00     0.000 HD 
BRANCH  16  18
HETATM   18  C   UNK A   0     -12.240  10.357  71.287  1.00  0.00    -0.389 C  
BRANCH  18  19
HETATM   19  C   UNK A   0     -12.997  11.584  71.794  1.00  0.00    -0.500 C  
BRANCH  19  20
HETATM   20  C   UNK A   0     -13.105  12.733  70.780  1.00  0.00     0.140 C  
BRANCH  20  21
HETATM   21  C   UNK A   0     -12.893  14.022  71.536  1.00  0.00    -0.440 A  
HETATM   22  C   UNK A   0     -13.178  14.094  72.906  1.00  0.00    -0.553 A  
HETATM   23  C   UNK A   0     -12.241  15.096  70.913  1.00  0.00    -0.398 A  
HETATM   24  C   UNK A   0     -12.771  15.198  73.652  1.00  0.00    -0.683 A  
HETATM   25  C   UNK A   0     -11.837  16.200  71.661  1.00  0.00    -0.557 A  
HETATM   26  C   UNK A   0     -12.086  16.243  73.031  1.00  0.00    -0.629 A  
ENDBRANCH  20  21
ENDBRANCH  19  20
ENDBRANCH  18  19
BRANCH  18  27
HETATM   27  C   UNK A   0     -12.895   9.057  71.795  1.00  0.00    -0.374 C  
HETATM   28  O   UNK A   0     -14.075   8.919  72.082  1.00  0.00    -0.434 OA 
BRANCH  27  29
HETATM   29  O   UNK A   0     -11.945   8.075  71.868  1.00  0.00    -0.284 OA 
BRANCH  29  30
HETATM   30  C   UNK A   0     -12.335   6.779  71.389  1.00  0.00    -0.353 C  
HETATM   31  C   UNK A   0     -11.644   6.455  70.076  1.00  0.00    -0.446 C  
ENDBRANCH  29  30
ENDBRANCH  27  29
ENDBRANCH  18  27
ENDBRANCH  16  18
ENDBRANCH  14  16
ENDBRANCH   7  14
TORSDOF 9
ENDMDL
MODEL        3
REMARK 921   NORMALIZED FREE ENERGY PREDICTED BY IDOCK:   -6.83 KCAL/MOL
REMARK 922        TOTAL FREE ENERGY PREDICTED BY IDOCK:  -12.05 KCAL/MOL
REMARK 923 INTER-LIGAND FREE ENERGY PREDICTED BY IDOCK:  -10.93 KCAL/MOL
REMARK 924 INTRA-LIGAND FREE ENERGY PREDICTED BY IDOCK:   -1.13 KCAL/MOL
REMARK 927      BINDING AFFINITY PREDICTED BY RF-SCORE:    0.00 PKD
ROOT
HETATM    1  C   UNK A   1      -7.721  18.408  68.524  1.00  0.00    -0.321 C  
HETATM    2  C   UNK A   1      -6.841  18.306  67.263  1.00  0.00    -0.209 C  
HETATM    3  C   UNK A   1      -6.750  16.823  66.931  1.00  0.00    -0.256 C  
HETATM    4  C   UNK A   1      -7.162  16.125  68.215  1.00  0.00    -0.136 C  
HETATM    5  C   UNK A   1      -8.284  16.997  68.770  1.00  0.00    -0.245 C  
HETATM    6  N   UNK A   1      -9.571  16.991  68.057  1.00  0.00    -0.254 N  
HETATM    7  C   UNK A   1     -10.529  15.978  68.072  1.00  0.00    -0.275 C  
HETATM    8  C   UNK A   1     -10.053  18.386  67.845  1.00  0.00    -0.362 C  
HETATM    9  C   UNK A   1     -10.410  18.820  66.410  1.00  0.00    -0.439 C  
HETATM   10  C   UNK A   1      -8.940  19.301  68.374  1.00  0.00    -0.397 C  
HETATM   11  O   UNK A   1     -11.649  16.219  67.606  1.00  0.00    -0.016 OA 
HETATM   12  O   UNK A   1     -10.238  17.850  65.481  1.00  0.00    -0.576 OA 
HETATM   13  O   UNK A   1     -10.773  19.943  66.113  1.00  0.00    -0.442 OA 
ENDROOT
BRANCH   7  14
HETATM   14  C   UNK A   1     -10.196  14.553  68.596  1.00  0.00    -0.243 C  
HETATM   15  C   UNK A   1     -10.863  13.504  67.691  1.00  0.00    -0.273 C  
BRANCH  14  16
HETATM   16  N   UNK A   1     -10.646  14.416  70.002  1.00  0.00    -0.437 NA 
HETATM   17  H   UNK A   1     -10.375  15.233  70.549  1.00  0.00     0.000 HD 
BRANCH  16  18
HETATM   18  C   UNK A   0     -12.112  14.152  70.135  1.00  0.00    -0.346 C  
BRANCH  18  19
HETATM   19  C   UNK A   0     -12.354  12.831  70.866  1.00  0.00    -0.356 C  
BRANCH  19  20
HETATM   20  C   UNK A   0     -12.227  11.580  69.984  1.00  0.00    -0.354 C  
BRANCH  20  21
HETATM   21  C   UNK A   0     -11.892  10.421  70.892  1.00  0.00    -0.475 A  
HETATM   22  C   UNK A   0     -12.893   9.811  71.659  1.00  0.00    -0.519 A  
HETATM   23  C   UNK A   0     -10.619   9.836  70.834  1.00  0.00    -0.344 A  
HETATM   24  C   UNK A   0     -12.642   8.607  72.315  1.00  0.00    -0.457 A  
HETATM   25  C   UNK A   0     -10.370   8.634  71.493  1.00  0.00    -0.341 A  
HETATM   26  C   UNK A   0     -11.384   8.012  72.217  1.00  0.00    -0.413 A  
ENDBRANCH  20  21
ENDBRANCH  19  20
ENDBRANCH  18  19
BRANCH  18  27
HETATM   27  C   UNK A   0     -12.785  15.323  70.878  1.00  0.00    -0.435 C  
HETATM   28  O   UNK A   0     -13.984  15.567  70.888  1.00  0.00    -0.489 OA 
BRANCH  27  29
HETATM   29  O   UNK A   0     -11.828  16.046  71.536  1.00  0.00    -0.430 OA 
BRANCH  29  30
HETATM   30  C   UNK A   0     -12.108  16.369  72.907  1.00  0.00    -0.474 C  
HETATM   31  C   UNK A   0     -12.066  15.126  73.778  1.00  0.00    -0.614 C  
ENDBRANCH  29  30
ENDBRANCH  27  29
ENDBRANCH  18  27
ENDBRANCH  16  18
ENDBRANCH  14  16
ENDBRANCH   7  14
TORSDOF 9
ENDMDL
MODEL        4
REMARK 921   NORMALIZED FREE ENERGY PREDICTED BY IDOCK:   -6.81 KCAL/MOL
REMARK 922        TOTAL FREE ENERGY PREDICTED BY IDOCK:  -12.03 KCAL/MOL
REMARK 923 INTER-LIGAND FREE ENERGY PREDICTED BY IDOCK:  -10.28 KCAL/MOL
REMARK 924 INTRA-LIGAND FREE ENERGY PREDICTED BY IDOCK:   -1.75 KCAL/MOL
REMARK 927      BINDING AFFINITY PREDICTED BY RF-SCORE:    0.00 PKD
ROOT
HETATM    1  C   UNK A   1      -9.782  15.282  68.009  1.00  0.00    -0.211 C  
HETATM    2  C   UNK A   1      -8.439  15.437  67.268  1.00  0.00    -0.214 C  
HETATM    3  C   UNK A   1      -7.788  14.060  67.284  1.00  0.00    -0.143 C  
HETATM    4  C   UNK A   1      -8.516  13.313  68.388  1.00  0.00    -0.128 C  
HETATM    5  C   UNK A   1      -9.965  13.774  68.256  1.00  0.00    -0.243 C  
HETATM    6  N   UNK A   1     -10.728  13.305  67.089  1.00  0.00    -0.258 N  
HETATM    7  C   UNK A   1     -11.254  12.028  66.894  1.00  0.00    -0.320 C  
HETATM    8  C   UNK A   1     -11.439  14.445  66.443  1.00  0.00    -0.360 C  
HETATM    9  C   UNK A   1     -11.217  14.677  64.936  1.00  0.00    -0.396 C  
HETATM   10  C   UNK A   1     -11.000  15.702  67.205  1.00  0.00    -0.275 C  
HETATM   11  O   UNK A   1     -12.060  11.857  65.971  1.00  0.00    -0.500 OA 
HETATM   12  O   UNK A   1     -10.374  13.788  64.359  1.00  0.00    -0.415 OA 
HETATM   13  O   UNK A   1     -11.712  15.598  64.312  1.00  0.00    -0.375 OA 
ENDROOT
BRANCH   7  14
HETATM   14  C   UNK A   1     -10.802  10.822  67.763  1.00  0.00    -0.269 C  
HETATM   15  C   UNK A   1     -10.535   9.608  66.858  1.00  0.00    -0.282 C  
BRANCH  14  16
HETATM   16  N   UNK A   1     -11.836  10.518  68.781  1.00  0.00    -0.674 NA 
HETATM   17  H   UNK A   1     -12.167   9.558  68.685  1.00  0.00     0.000 HD 
BRANCH  16  18
HETATM   18  C   UNK A   0     -11.390  10.786  70.183  1.00  0.00    -0.309 C  
BRANCH  18  19
HETATM   19  C   UNK A   0     -12.361  11.738  70.881  1.00  0.00    -0.420 C  
BRANCH  19  20
HETATM   20  C   UNK A   0     -12.668  13.024  70.100  1.00  0.00     0.102 C  
BRANCH  20  21
HETATM   21  C   UNK A   0     -12.669  14.163  71.090  1.00  0.00    -0.431 A  
HETATM   22  C   UNK A   0     -13.175  13.976  72.383  1.00  0.00    -0.585 A  
HETATM   23  C   UNK A   0     -11.998  15.356  70.781  1.00  0.00    -0.402 A  
HETATM   24  C   UNK A   0     -12.969  14.942  73.366  1.00  0.00    -0.597 A  
HETATM   25  C   UNK A   0     -11.797  16.321  71.765  1.00  0.00    -0.510 A  
HETATM   26  C   UNK A   0     -12.265  16.107  73.059  1.00  0.00    -0.641 A  
ENDBRANCH  20  21
ENDBRANCH  19  20
ENDBRANCH  18  19
BRANCH  18  27
HETATM   27  C   UNK A   0     -11.272   9.456  70.954  1.00  0.00    -0.325 C  
HETATM   28  O   UNK A   0     -10.478   9.221  71.853  1.00  0.00    -0.305 OA 
BRANCH  27  29
HETATM   29  O   UNK A   0     -12.206   8.577  70.477  1.00  0.00    -0.002 OA 
BRANCH  29  30
HETATM   30  C   UNK A   0     -12.054   7.208  70.882  1.00  0.00    -0.326 C  
HETATM   31  C   UNK A   0     -11.472   6.371  69.757  1.00  0.00    -0.468 C  
ENDBRANCH  29  30
ENDBRANCH  27  29
ENDBRANCH  18  27
ENDBRANCH  16  18
ENDBRANCH  14  16
ENDBRANCH   7  14
TORSDOF 9
ENDMDL
MODEL        5
REMARK 921   NORMALIZED FREE ENERGY PREDICTED BY IDOCK:   -6.71 KCAL/MOL
REMARK 922        TOTAL FREE ENERGY PREDICTED BY IDOCK:  -11.87 KCAL/MOL
REMARK 923 INTER-LIGAND FREE ENERGY PREDICTED BY IDOCK:   -9.20 KCAL/MOL
REMARK 924 INTRA-LIGAND FREE ENERGY PREDICTED BY IDOCK:   -2.67 KCAL/MOL
REMARK 927      BINDING AFFINITY PREDICTED BY RF-SCORE:    0.00 PKD
ROOT
HETATM    1  C   UNK A   1      -7.953  10.933  66.448  1.00  0.00    -0.157 C  
HETATM    2  C   UNK A   1      -7.014  10.996  67.668  1.00  0.00    -0.083 C  
HETATM    3  C   UNK A   1      -7.318  12.316  68.365  1.00  0.00    -0.109 C  
HETATM    4  C   UNK A   1      -8.040  13.139  67.313  1.00  0.00    -0.151 C  
HETATM    5  C   UNK A   1      -8.918  12.124  66.585  1.00  0.00    -0.198 C  
HETATM    6  N   UNK A   1     -10.073  11.574  67.311  1.00  0.00    -0.197 N  
HETATM    7  C   UNK A   1     -11.276  12.224  67.581  1.00  0.00    -0.290 C  
HETATM    8  C   UNK A   1     -10.112  10.090  67.173  1.00  0.00    -0.212 C  
HETATM    9  C   UNK A   1     -10.182   9.244  68.459  1.00  0.00    -0.201 C  
HETATM   10  C   UNK A   1      -8.845   9.705  66.398  1.00  0.00    -0.168 C  
HETATM   11  O   UNK A   1     -12.228  11.554  68.000  1.00  0.00    -0.582 OA 
HETATM   12  O   UNK A   1     -10.200   9.973  69.600  1.00  0.00    -0.211 OA 
HETATM   13  O   UNK A   1     -10.177   8.026  68.470  1.00  0.00    -0.198 OA 
ENDROOT
BRANCH   7  14
HETATM   14  C   UNK A   1     -11.419  13.764  67.429  1.00  0.00    -0.345 C  
HETATM   15  C   UNK A   1     -11.562  14.407  68.818  1.00  0.00    -0.348 C  
BRANCH  14  16
HETATM   16  N   UNK A   1     -12.585  14.079  66.567  1.00  0.00    -0.503 NA 
HETATM   17  H   UNK A   1     -13.111  14.867  66.945  1.00  0.00     0.000 HD 
BRANCH  16  18
HETATM   18  C   UNK A   0     -12.220  14.323  65.137  1.00  0.00    -0.421 C  
BRANCH  18  19
HETATM   19  C   UNK A   0     -10.811  14.909  65.037  1.00  0.00    -0.439 C  
BRANCH  19  20
HETATM   20  C   UNK A   0     -10.761  16.442  64.964  1.00  0.00    -0.279 C  
BRANCH  20  21
HETATM   21  C   UNK A   0      -9.971  16.924  66.156  1.00  0.00    -0.332 A  
HETATM   22  C   UNK A   0     -10.597  17.667  67.167  1.00  0.00    -0.277 A  
HETATM   23  C   UNK A   0      -8.655  16.478  66.347  1.00  0.00    -0.347 A  
HETATM   24  C   UNK A   0      -9.938  17.913  68.370  1.00  0.00    -0.367 A  
HETATM   25  C   UNK A   0      -7.998  16.729  67.550  1.00  0.00    -0.189 A  
HETATM   26  C   UNK A   0      -8.644  17.429  68.565  1.00  0.00    -0.270 A  
ENDBRANCH  20  21
ENDBRANCH  19  20
ENDBRANCH  18  19
BRANCH  18  27
HETATM   27  C   UNK A   0     -12.326  13.006  64.343  1.00  0.00    -0.376 C  
HETATM   28  O   UNK A   0     -13.319  12.297  64.267  1.00  0.00    -0.777 OA 
BRANCH  27  29
HETATM   29  O   UNK A   0     -11.131  12.757  63.725  1.00  0.00    -0.410 OA 
BRANCH  29  30
HETATM   30  C   UNK A   0     -10.735  11.379  63.640  1.00  0.00    -0.401 C  
HETATM   31  C   UNK A   0      -9.343  11.250  63.047  1.00  0.00    -0.359 C  
ENDBRANCH  29  30
ENDBRANCH  27  29
ENDBRANCH  18  27
ENDBRANCH  16  18
ENDBRANCH  14  16
ENDBRANCH   7  14
TORSDOF 9
ENDMDL
MODEL        6
REMARK 921   NORMALIZED FREE ENERGY PREDICTED BY IDOCK:   -6.60 KCAL/MOL
REMARK 922        TOTAL FREE ENERGY PREDICTED BY IDOCK:  -11.70 KCAL/MOL
REMARK 923 INTER-LIGAND FREE ENERGY PREDICTED BY IDOCK:  -10.17 KCAL/MOL
REMARK 924 INTRA-LIGAND FREE ENERGY PREDICTED BY IDOCK:   -1.53 KCAL/MOL
REMARK 927      BINDING AFFINITY PREDICTED BY RF-SCORE:    0.00 PKD
ROOT
HETATM    1  C   UNK A   1      -8.953  18.608  66.208  1.00  0.00    -0.228 C  
HETATM    2  C   UNK A   1      -8.541  19.941  66.863  1.00  0.00    -0.391 C  
HETATM    3  C   UNK A   1      -9.462  20.124  68.062  1.00  0.00    -0.389 C  
HETATM    4  C   UNK A   1     -10.623  19.182  67.791  1.00  0.00    -0.498 C  
HETATM    5  C   UNK A   1      -9.967  17.955  67.163  1.00  0.00    -0.327 C  
HETATM    6  N   UNK A   1      -9.146  17.099  68.034  1.00  0.00    -0.234 N  
HETATM    7  C   UNK A   1      -9.607  16.199  68.995  1.00  0.00    -0.251 C  
HETATM    8  C   UNK A   1      -7.843  16.793  67.378  1.00  0.00    -0.171 C  
HETATM    9  C   UNK A   1      -6.550  17.098  68.160  1.00  0.00    -0.158 C  
HETATM   10  C   UNK A   1      -7.829  17.596  66.071  1.00  0.00    -0.201 C  
HETATM   11  O   UNK A   1      -8.804  15.394  69.481  1.00  0.00    -0.258 OA 
HETATM   12  O   UNK A   1      -6.759  17.625  69.390  1.00  0.00    -0.248 OA 
HETATM   13  O   UNK A   1      -5.431  16.928  67.711  1.00  0.00    -0.112 OA 
ENDROOT
BRANCH   7  14
HETATM   14  C   UNK A   1     -11.075  16.236  69.504  1.00  0.00    -0.330 C  
HETATM   15  C   UNK A   1     -11.165  15.528  70.866  1.00  0.00    -0.409 C  
BRANCH  14  16
HETATM   16  N   UNK A   1     -11.970  15.600  68.506  1.00  0.00    -0.509 NA 
HETATM   17  H   UNK A   1     -12.281  16.282  67.814  1.00  0.00     0.000 HD 
BRANCH  16  18
HETATM   18  C   UNK A   0     -11.366  14.406  67.840  1.00  0.00    -0.301 C  
BRANCH  18  19
HETATM   19  C   UNK A   0     -11.971  13.118  68.399  1.00  0.00    -0.324 C  
BRANCH  19  20
HETATM   20  C   UNK A   0     -10.948  12.018  68.718  1.00  0.00    -0.282 C  
BRANCH  20  21
HETATM   21  C   UNK A   0     -11.441  11.287  69.944  1.00  0.00    -0.373 A  
HETATM   22  C   UNK A   0     -12.478  11.824  70.719  1.00  0.00    -0.405 A  
HETATM   23  C   UNK A   0     -10.990   9.986  70.209  1.00  0.00    -0.377 A  
HETATM   24  C   UNK A   0     -13.091  11.054  71.706  1.00  0.00    -0.554 A  
HETATM   25  C   UNK A   0     -11.602   9.220  71.199  1.00  0.00    -0.397 A  
HETATM   26  C   UNK A   0     -12.661   9.747  71.933  1.00  0.00    -0.501 A  
ENDBRANCH  20  21
ENDBRANCH  19  20
ENDBRANCH  18  19
BRANCH  18  27
HETATM   27  C   UNK A   0     -11.580  14.498  66.316  1.00  0.00    -0.360 C  
HETATM   28  O   UNK A   0     -10.987  15.251  65.557  1.00  0.00    -0.336 OA 
BRANCH  27  29
HETATM   29  O   UNK A   0     -12.538  13.595  65.942  1.00  0.00    -0.460 OA 
BRANCH  29  30
HETATM   30  C   UNK A   0     -12.297  12.886  64.716  1.00  0.00    -0.459 C  
HETATM   31  C   UNK A   0     -11.238  11.814  64.909  1.00  0.00    -0.328 C  
ENDBRANCH  29  30
ENDBRANCH  27  29
ENDBRANCH  18  27
ENDBRANCH  16  18
ENDBRANCH  14  16
ENDBRANCH   7  14
TORSDOF 9
ENDMDL
MODEL        7
REMARK 921   NORMALIZED FREE ENERGY PREDICTED BY IDOCK:   -6.52 KCAL/MOL
REMARK 922        TOTAL FREE ENERGY PREDICTED BY IDOCK:  -11.59 KCAL/MOL
REMARK 923 INTER-LIGAND FREE ENERGY PREDICTED BY IDOCK:  -10.13 KCAL/MOL
REMARK 924 INTRA-LIGAND FREE ENERGY PREDICTED BY IDOCK:   -1.46 KCAL/MOL
REMARK 927      BINDING AFFINITY PREDICTED BY RF-SCORE:    0.00 PKD
ROOT
HETATM    1  C   UNK A   1     -11.282   6.910  72.150  1.00  0.00    -0.293 C  
HETATM    2  C   UNK A   1     -10.573   5.577  71.840  1.00  0.00    -0.293 C  
HETATM    3  C   UNK A   1     -10.563   5.449  70.322  1.00  0.00    -0.329 C  
HETATM    4  C   UNK A   1     -11.631   6.424  69.856  1.00  0.00    -0.422 C  
HETATM    5  C   UNK A   1     -11.483   7.616  70.798  1.00  0.00    -0.277 C  
HETATM    6  N   UNK A   1     -10.288   8.460  70.648  1.00  0.00    -0.194 N  
HETATM    7  C   UNK A   1     -10.045   9.394  69.640  1.00  0.00    -0.206 C  
HETATM    8  C   UNK A   1      -9.660   8.709  71.977  1.00  0.00    -0.314 C  
HETATM    9  C   UNK A   1      -8.165   8.376  72.147  1.00  0.00    -0.147 C  
HETATM   10  C   UNK A   1     -10.467   7.881  72.986  1.00  0.00    -0.410 C  
HETATM   11  O   UNK A   1      -9.102  10.181  69.781  1.00  0.00    -0.203 OA 
HETATM   12  O   UNK A   1      -7.580   7.881  71.031  1.00  0.00    -0.078 OA 
HETATM   13  O   UNK A   1      -7.558   8.500  73.195  1.00  0.00    -0.316 OA 
ENDROOT
BRANCH   7  14
HETATM   14  C   UNK A   1     -10.888   9.416  68.335  1.00  0.00    -0.109 C  
HETATM   15  C   UNK A   1      -9.984   9.779  67.145  1.00  0.00    -0.252 C  
BRANCH  14  16
HETATM   16  N   UNK A   1     -12.007  10.380  68.475  1.00  0.00    -0.759 NA 
HETATM   17  H   UNK A   1     -12.839   9.916  68.838  1.00  0.00     0.000 HD 
BRANCH  16  18
HETATM   18  C   UNK A   0     -11.663  11.576  69.304  1.00  0.00    -0.330 C  
BRANCH  18  19
HETATM   19  C   UNK A   0     -11.911  12.862  68.515  1.00  0.00    -0.350 C  
BRANCH  19  20
HETATM   20  C   UNK A   0     -10.711  13.343  67.685  1.00  0.00    -0.257 C  
BRANCH  20  21
HETATM   21  C   UNK A   0     -11.063  13.142  66.230  1.00  0.00    -0.308 A  
HETATM   22  C   UNK A   0     -10.052  13.018  65.268  1.00  0.00    -0.247 A  
HETATM   23  C   UNK A   0     -12.394  12.897  65.862  1.00  0.00    -0.378 A  
HETATM   24  C   UNK A   0     -10.359  12.604  63.973  1.00  0.00    -0.414 A  
HETATM   25  C   UNK A   0     -12.698  12.487  64.566  1.00  0.00    -0.440 A  
HETATM   26  C   UNK A   0     -11.681  12.324  63.629  1.00  0.00    -0.591 A  
ENDBRANCH  20  21
ENDBRANCH  19  20
ENDBRANCH  18  19
BRANCH  18  27
HETATM   27  C   UNK A   0     -12.490  11.561  70.605  1.00  0.00    -0.314 C  
HETATM   28  O   UNK A   0     -12.927  10.562  71.160  1.00  0.00    -0.372 OA 
BRANCH  27  29
HETATM   29  O   UNK A   0     -12.653  12.845  71.049  1.00  0.00    -0.366 OA 
BRANCH  29  30
HETATM   30  C   UNK A   0     -13.463  13.012  72.223  1.00  0.00    -0.547 C  
HETATM   31  C   UNK A   0     -13.256  14.387  72.834  1.00  0.00    -0.613 C  
ENDBRANCH  29  30
ENDBRANCH  27  29
ENDBRANCH  18  27
ENDBRANCH  16  18
ENDBRANCH  14  16
ENDBRANCH   7  14
TORSDOF 9
ENDMDL
MODEL        8
REMARK 921   NORMALIZED FREE ENERGY PREDICTED BY IDOCK:   -6.52 KCAL/MOL
REMARK 922        TOTAL FREE ENERGY PREDICTED BY IDOCK:  -11.58 KCAL/MOL
REMARK 923 INTER-LIGAND FREE ENERGY PREDICTED BY IDOCK:   -9.54 KCAL/MOL
REMARK 924 INTRA-LIGAND FREE ENERGY PREDICTED BY IDOCK:   -2.04 KCAL/MOL
REMARK 927      BINDING AFFINITY PREDICTED BY RF-SCORE:    0.00 PKD
ROOT
HETATM    1  C   UNK A   1      -9.975  13.177  66.800  1.00  0.00    -0.250 C  
HETATM    2  C   UNK A   1     -11.201  12.837  67.670  1.00  0.00    -0.323 C  
HETATM    3  C   UNK A   1     -11.551  14.114  68.423  1.00  0.00    -0.353 C  
HETATM    4  C   UNK A   1     -10.294  14.961  68.329  1.00  0.00    -0.232 C  
HETATM    5  C   UNK A   1      -9.772  14.698  66.919  1.00  0.00    -0.242 C  
HETATM    6  N   UNK A   1     -10.536  15.255  65.792  1.00  0.00    -0.326 N  
HETATM    7  C   UNK A   1     -10.574  16.589  65.388  1.00  0.00    -0.276 C  
HETATM    8  C   UNK A   1     -10.746  14.215  64.745  1.00  0.00    -0.419 C  
HETATM    9  C   UNK A   1     -12.188  13.942  64.273  1.00  0.00    -0.408 C  
HETATM   10  C   UNK A   1     -10.160  12.917  65.315  1.00  0.00    -0.254 C  
HETATM   11  O   UNK A   1     -11.080  16.859  64.292  1.00  0.00    -1.135 OA 
HETATM   12  O   UNK A   1     -13.124  14.705  64.888  1.00  0.00    -0.419 OA 
HETATM   13  O   UNK A   1     -12.483  13.090  63.455  1.00  0.00    -0.694 OA 
ENDROOT
BRANCH   7  14
HETATM   14  C   UNK A   1     -10.058  17.732  66.306  1.00  0.00    -0.344 C  
HETATM   15  C   UNK A   1     -10.739  19.053  65.915  1.00  0.00    -0.404 C  
BRANCH  14  16
HETATM   16  N   UNK A   1      -8.582  17.834  66.202  1.00  0.00    -0.488 NA 
HETATM   17  H   UNK A   1      -8.291  17.865  65.225  1.00  0.00     0.000 HD 
BRANCH  16  18
HETATM   18  C   UNK A   0      -8.010  18.988  66.962  1.00  0.00    -0.256 C  
BRANCH  18  19
HETATM   19  C   UNK A   0      -7.390  18.509  68.275  1.00  0.00    -0.294 C  
BRANCH  19  20
HETATM   20  C   UNK A   0      -6.001  17.869  68.129  1.00  0.00    -0.170 C  
BRANCH  20  21
HETATM   21  C   UNK A   0      -6.137  16.412  68.498  1.00  0.00    -0.123 A  
HETATM   22  C   UNK A   0      -6.465  16.042  69.809  1.00  0.00    -0.164 A  
HETATM   23  C   UNK A   0      -6.114  15.433  67.493  1.00  0.00    -0.095 A  
HETATM   24  C   UNK A   0      -6.817  14.725  70.101  1.00  0.00    -0.066 A  
HETATM   25  C   UNK A   0      -6.464  14.117  67.790  1.00  0.00    -0.181 A  
HETATM   26  C   UNK A   0      -6.831  13.768  69.087  1.00  0.00    -0.102 A  
ENDBRANCH  20  21
ENDBRANCH  19  20
ENDBRANCH  18  19
BRANCH  18  27
HETATM   27  C   UNK A   0      -6.966  19.716  66.092  1.00  0.00    -0.250 C  
HETATM   28  O   UNK A   0      -6.386  20.751  66.390  1.00  0.00    -0.224 OA 
BRANCH  27  29
HETATM   29  O   UNK A   0      -6.780  19.014  64.932  1.00  0.00    -0.478 OA 
BRANCH  29  30
HETATM   30  C   UNK A   0      -5.432  18.943  64.442  1.00  0.00    -0.242 C  
HETATM   31  C   UNK A   0      -5.299  19.668  63.115  1.00  0.00    -0.331 C  
ENDBRANCH  29  30
ENDBRANCH  27  29
ENDBRANCH  18  27
ENDBRANCH  16  18
ENDBRANCH  14  16
ENDBRANCH   7  14
TORSDOF 9
ENDMDL
MODEL        9
REMARK 921   NORMALIZED FREE ENERGY PREDICTED BY IDOCK:   -6.50 KCAL/MOL
REMARK 922        TOTAL FREE ENERGY PREDICTED BY IDOCK:  -11.56 KCAL/MOL
REMARK 923 INTER-LIGAND FREE ENERGY PREDICTED BY IDOCK:  -10.38 KCAL/MOL
REMARK 924 INTRA-LIGAND FREE ENERGY PREDICTED BY IDOCK:   -1.18 KCAL/MOL
REMARK 927      BINDING AFFINITY PREDICTED BY RF-SCORE:    0.00 PKD
ROOT
HETATM    1  C   UNK A   1      -9.297   7.417  69.549  1.00  0.00    -0.156 C  
HETATM    2  C   UNK A   1      -8.094   7.551  70.503  1.00  0.00    -0.106 C  
HETATM    3  C   UNK A   1      -8.098   8.997  70.983  1.00  0.00    -0.199 C  
HETATM    4  C   UNK A   1      -8.968   9.726  69.974  1.00  0.00    -0.255 C  
HETATM    5  C   UNK A   1     -10.085   8.734  69.660  1.00  0.00    -0.204 C  
HETATM    6  N   UNK A   1     -11.082   8.472  70.710  1.00  0.00    -0.250 N  
HETATM    7  C   UNK A   1     -12.120   9.316  71.104  1.00  0.00    -0.316 C  
HETATM    8  C   UNK A   1     -11.293   7.006  70.870  1.00  0.00    -0.295 C  
HETATM    9  C   UNK A   1     -11.136   6.400  72.279  1.00  0.00    -0.265 C  
HETATM   10  C   UNK A   1     -10.288   6.330  69.928  1.00  0.00    -0.249 C  
HETATM   11  O   UNK A   1     -13.004   8.859  71.839  1.00  0.00    -0.333 OA 
HETATM   12  O   UNK A   1     -10.814   7.302  73.235  1.00  0.00    -0.350 OA 
HETATM   13  O   UNK A   1     -11.244   5.211  72.521  1.00  0.00    -0.226 OA 
ENDROOT
BRANCH   7  14
HETATM   14  C   UNK A   1     -12.148  10.815  70.695  1.00  0.00    -0.370 C  
HETATM   15  C   UNK A   1     -13.111  11.582  71.617  1.00  0.00    -0.478 C  
BRANCH  14  16
HETATM   16  N   UNK A   1     -12.549  10.941  69.273  1.00  0.00    -0.610 NA 
HETATM   17  H   UNK A   1     -13.550  10.777  69.164  1.00  0.00     0.000 HD 
BRANCH  16  18
HETATM   18  C   UNK A   0     -12.157  12.247  68.657  1.00  0.00    -0.088 C  
BRANCH  18  19
HETATM   19  C   UNK A   0     -11.359  13.089  69.652  1.00  0.00    -0.176 C  
BRANCH  19  20
HETATM   20  C   UNK A   0     -11.515  14.606  69.474  1.00  0.00    -0.334 C  
BRANCH  20  21
HETATM   21  C   UNK A   0     -12.127  15.147  70.744  1.00  0.00    -0.387 A  
HETATM   22  C   UNK A   0     -13.518  15.270  70.862  1.00  0.00    -0.441 A  
HETATM   23  C   UNK A   0     -11.321  15.356  71.872  1.00  0.00    -0.466 A  
HETATM   24  C   UNK A   0     -14.097  15.545  72.100  1.00  0.00    -0.621 A  
HETATM   25  C   UNK A   0     -11.903  15.634  73.107  1.00  0.00    -0.540 A  
HETATM   26  C   UNK A   0     -13.289  15.711  73.224  1.00  0.00    -0.618 A  
ENDBRANCH  20  21
ENDBRANCH  19  20
ENDBRANCH  18  19
BRANCH  18  27
HETATM   27  C   UNK A   0     -11.343  11.991  67.373  1.00  0.00    -0.327 C  
HETATM   28  O   UNK A   0     -10.157  11.693  67.329  1.00  0.00    -0.196 OA 
BRANCH  27  29
HETATM   29  O   UNK A   0     -12.159  12.142  66.286  1.00  0.00    -0.626 OA 
BRANCH  29  30
HETATM   30  C   UNK A   0     -12.494  13.492  65.927  1.00  0.00    -0.429 C  
HETATM   31  C   UNK A   0     -12.104  13.784  64.489  1.00  0.00    -0.463 C  
ENDBRANCH  29  30
ENDBRANCH  27  29
ENDBRANCH  18  27
ENDBRANCH  16  18
ENDBRANCH  14  16
ENDBRANCH   7  14
TORSDOF 9
ENDMDL
MODEL       10
REMARK 921   NORMALIZED FREE ENERGY PREDICTED BY IDOCK:   -6.50 KCAL/MOL
REMARK 922        TOTAL FREE ENERGY PREDICTED BY IDOCK:  -11.55 KCAL/MOL
REMARK 923 INTER-LIGAND FREE ENERGY PREDICTED BY IDOCK:   -9.80 KCAL/MOL
REMARK 924 INTRA-LIGAND FREE ENERGY PREDICTED BY IDOCK:   -1.75 KCAL/MOL
REMARK 927      BINDING AFFINITY PREDICTED BY RF-SCORE:    0.00 PKD
ROOT
HETATM    1  C   UNK A   1     -11.786  14.624  66.290  1.00  0.00    -0.299 C  
HETATM    2  C   UNK A   1     -11.083  15.503  65.237  1.00  0.00    -0.344 C  
HETATM    3  C   UNK A   1      -9.588  15.321  65.467  1.00  0.00    -0.243 C  
HETATM    4  C   UNK A   1      -9.492  14.751  66.872  1.00  0.00    -0.253 C  
HETATM    5  C   UNK A   1     -10.681  13.799  66.970  1.00  0.00    -0.283 C  
HETATM    6  N   UNK A   1     -10.625  12.554  66.189  1.00  0.00    -0.249 N  
HETATM    7  C   UNK A   1      -9.862  11.422  66.476  1.00  0.00    -0.208 C  
HETATM    8  C   UNK A   1     -11.903  12.349  65.449  1.00  0.00    -0.406 C  
HETATM    9  C   UNK A   1     -11.829  12.118  63.926  1.00  0.00    -0.466 C  
HETATM   10  C   UNK A   1     -12.750  13.600  65.717  1.00  0.00    -0.470 C  
HETATM   11  O   UNK A   1     -10.097  10.380  65.852  1.00  0.00    -0.247 OA 
HETATM   12  O   UNK A   1     -10.571  12.129  63.426  1.00  0.00    -0.436 OA 
HETATM   13  O   UNK A   1     -12.807  11.981  63.214  1.00  0.00    -0.732 OA 
ENDROOT
BRANCH   7  14
HETATM   14  C   UNK A   1      -8.697  11.466  67.503  1.00  0.00    -0.140 C  
HETATM   15  C   UNK A   1      -7.754  10.276  67.264  1.00  0.00    -0.095 C  
BRANCH  14  16
HETATM   16  N   UNK A   1      -9.242  11.453  68.883  1.00  0.00    -0.382 NA 
HETATM   17  H   UNK A   1      -9.755  12.313  69.077  1.00  0.00     0.000 HD 
BRANCH  16  18
HETATM   18  C   UNK A   0     -10.086  10.254  69.179  1.00  0.00    -0.218 C  
BRANCH  18  19
HETATM   19  C   UNK A   0      -9.473   9.435  70.314  1.00  0.00    -0.294 C  
BRANCH  19  20
HETATM   20  C   UNK A   0      -9.542   7.914  70.114  1.00  0.00    -0.175 C  
BRANCH  20  21
HETATM   21  C   UNK A   0     -10.039   7.312  71.407  1.00  0.00    -0.196 A  
HETATM   22  C   UNK A   0     -10.704   6.079  71.404  1.00  0.00    -0.314 A  
HETATM   23  C   UNK A   0      -9.676   7.894  72.630  1.00  0.00    -0.304 A  
HETATM   24  C   UNK A   0     -10.957   5.413  72.602  1.00  0.00    -0.321 A  
HETATM   25  C   UNK A   0      -9.933   7.227  73.826  1.00  0.00    -0.368 A  
HETATM   26  C   UNK A   0     -10.555   5.981  73.811  1.00  0.00    -0.265 A  
ENDBRANCH  20  21
ENDBRANCH  19  20
ENDBRANCH  18  19
BRANCH  18  27
HETATM   27  C   UNK A   0     -11.517  10.703  69.535  1.00  0.00    -0.291 C  
HETATM   28  O   UNK A   0     -12.340  11.153  68.750  1.00  0.00    -0.539 OA 
BRANCH  27  29
HETATM   29  O   UNK A   0     -11.728  10.510  70.873  1.00  0.00    -0.338 OA 
BRANCH  29  30
HETATM   30  C   UNK A   0     -13.096  10.363  71.285  1.00  0.00    -0.399 C  
HETATM   31  C   UNK A   0     -13.272   9.131  72.154  1.00  0.00    -0.524 C  
ENDBRANCH  29  30
ENDBRANCH  27  29
ENDBRANCH  18  27
ENDBRANCH  16  18
ENDBRANCH  14  16
ENDBRANCH   7  14
TORSDOF 9
ENDMDL
MODEL       11
REMARK 921   NORMALIZED FREE ENERGY PREDICTED BY IDOCK:   -6.50 KCAL/MOL
REMARK 922        TOTAL FREE ENERGY PREDICTED BY IDOCK:  -11.55 KCAL/MOL
REMARK 923 INTER-LIGAND FREE ENERGY PREDICTED BY IDOCK:  -10.09 KCAL/MOL
REMARK 924 INTRA-LIGAND FREE ENERGY PREDICTED BY IDOCK:   -1.46 KCAL/MOL
REMARK 927      BINDING AFFINITY PREDICTED BY RF-SCORE:    0.00 PKD
ROOT
HETATM    1  C   UNK A   1     -11.531   7.007  71.706  1.00  0.00    -0.301 C  
HETATM    2  C   UNK A   1     -10.839   5.631  71.653  1.00  0.00    -0.301 C  
HETATM    3  C   UNK A   1     -10.430   5.422  70.201  1.00  0.00    -0.361 C  
HETATM    4  C   UNK A   1     -11.279   6.414  69.425  1.00  0.00    -0.459 C  
HETATM    5  C   UNK A   1     -11.324   7.647  70.322  1.00  0.00    -0.181 C  
HETATM    6  N   UNK A   1     -10.089   8.433  70.468  1.00  0.00    -0.188 N  
HETATM    7  C   UNK A   1      -9.536   9.300  69.526  1.00  0.00    -0.173 C  
HETATM    8  C   UNK A   1      -9.828   8.726  71.906  1.00  0.00    -0.324 C  
HETATM    9  C   UNK A   1      -8.453   8.341  72.486  1.00  0.00    -0.187 C  
HETATM   10  C   UNK A   1     -10.918   7.987  72.692  1.00  0.00    -0.448 C  
HETATM   11  O   UNK A   1      -8.623  10.054  69.884  1.00  0.00    -0.194 OA 
HETATM   12  O   UNK A   1      -7.618   7.763  71.590  1.00  0.00    -0.079 OA 
HETATM   13  O   UNK A   1      -8.143   8.495  73.653  1.00  0.00    -0.381 OA 
ENDROOT
BRANCH   7  14
HETATM   14  C   UNK A   1      -9.996   9.288  68.042  1.00  0.00    -0.182 C  
HETATM   15  C   UNK A   1      -9.106   8.328  67.235  1.00  0.00    -0.157 C  
BRANCH  14  16
HETATM   16  N   UNK A   1      -9.945  10.663  67.487  1.00  0.00    -0.168 NA 
HETATM   17  H   UNK A   1      -9.572  10.656  66.538  1.00  0.00     0.000 HD 
BRANCH  16  18
HETATM   18  C   UNK A   0     -11.261  11.373  67.534  1.00  0.00    -0.292 C  
BRANCH  18  19
HETATM   19  C   UNK A   0     -11.294  12.362  68.699  1.00  0.00    -0.332 C  
BRANCH  19  20
HETATM   20  C   UNK A   0     -11.995  11.838  69.961  1.00  0.00    -0.421 C  
BRANCH  20  21
HETATM   21  C   UNK A   0     -12.463  13.040  70.747  1.00  0.00    -0.384 A  
HETATM   22  C   UNK A   0     -12.253  14.334  70.253  1.00  0.00    -0.407 A  
HETATM   23  C   UNK A   0     -13.269  12.860  71.881  1.00  0.00    -0.521 A  
HETATM   24  C   UNK A   0     -12.881  15.426  70.850  1.00  0.00    -0.536 A  
HETATM   25  C   UNK A   0     -13.893  13.954  72.477  1.00  0.00    -0.620 A  
HETATM   26  C   UNK A   0     -13.713  15.231  71.952  1.00  0.00    -0.601 A  
ENDBRANCH  20  21
ENDBRANCH  19  20
ENDBRANCH  18  19
BRANCH  18  27
HETATM   27  C   UNK A   0     -11.510  12.092  66.193  1.00  0.00    -0.371 C  
HETATM   28  O   UNK A   0     -12.604  12.395  65.739  1.00  0.00    -0.532 OA 
BRANCH  27  29
HETATM   29  O   UNK A   0     -10.308  12.348  65.591  1.00  0.00    -0.248 OA 
BRANCH  29  30
HETATM   30  C   UNK A   0     -10.283  12.253  64.158  1.00  0.00    -0.349 C  
HETATM   31  C   UNK A   0     -10.075  10.817  63.713  1.00  0.00    -0.391 C  
ENDBRANCH  29  30
ENDBRANCH  27  29
ENDBRANCH  18  27
ENDBRANCH  16  18
ENDBRANCH  14  16
ENDBRANCH   7  14
TORSDOF 9
ENDMDL
MODEL       12
REMARK 921   NORMALIZED FREE ENERGY PREDICTED BY IDOCK:   -6.49 KCAL/MOL
REMARK 922        TOTAL FREE ENERGY PREDICTED BY IDOCK:  -11.54 KCAL/MOL
REMARK 923 INTER-LIGAND FREE ENERGY PREDICTED BY IDOCK:  -10.75 KCAL/MOL
REMARK 924 INTRA-LIGAND FREE ENERGY PREDICTED BY IDOCK:   -0.78 KCAL/MOL
REMARK 927      BINDING AFFINITY PREDICTED BY RF-SCORE:    0.00 PKD
ROOT
HETATM    1  C   UNK A   1      -9.322  11.292  65.150  1.00  0.00    -0.211 C  
HETATM    2  C   UNK A   1     -10.282  10.129  65.466  1.00  0.00    -0.288 C  
HETATM    3  C   UNK A   1     -10.600  10.236  66.952  1.00  0.00    -0.282 C  
HETATM    4  C   UNK A   1      -9.497  11.119  67.508  1.00  0.00    -0.178 C  
HETATM    5  C   UNK A   1      -9.269  12.163  66.418  1.00  0.00    -0.207 C  
HETATM    6  N   UNK A   1     -10.318  13.172  66.208  1.00  0.00    -0.282 N  
HETATM    7  C   UNK A   1     -10.593  14.272  67.021  1.00  0.00    -0.280 C  
HETATM    8  C   UNK A   1     -10.635  13.297  64.757  1.00  0.00    -0.386 C  
HETATM    9  C   UNK A   1     -12.105  13.145  64.320  1.00  0.00    -0.414 C  
HETATM   10  C   UNK A   1      -9.797  12.224  64.049  1.00  0.00    -0.194 C  
HETATM   11  O   UNK A   1     -11.353  15.148  66.590  1.00  0.00    -0.320 OA 
HETATM   12  O   UNK A   1     -12.963  12.908  65.340  1.00  0.00    -0.615 OA 
HETATM   13  O   UNK A   1     -12.475  13.187  63.160  1.00  0.00    -0.686 OA 
ENDROOT
BRANCH   7  14
HETATM   14  C   UNK A   1     -10.020  14.381  68.461  1.00  0.00    -0.237 C  
HETATM   15  C   UNK A   1      -8.484  14.422  68.402  1.00  0.00    -0.165 C  
BRANCH  14  16
HETATM   16  N   UNK A   1     -10.497  13.241  69.280  1.00  0.00    -0.425 NA 
HETATM   17  H   UNK A   1      -9.887  13.094  70.084  1.00  0.00     0.000 HD 
BRANCH  16  18
HETATM   18  C   UNK A   0     -11.923  13.374  69.713  1.00  0.00    -0.330 C  
BRANCH  18  19
HETATM   19  C   UNK A   0     -12.321  12.203  70.611  1.00  0.00    -0.385 C  
BRANCH  19  20
HETATM   20  C   UNK A   0     -12.509  10.868  69.874  1.00  0.00    -0.292 C  
BRANCH  20  21
HETATM   21  C   UNK A   0     -11.871   9.793  70.720  1.00  0.00    -0.400 A  
HETATM   22  C   UNK A   0     -10.478   9.641  70.738  1.00  0.00    -0.375 A  
HETATM   23  C   UNK A   0     -12.653   9.064  71.627  1.00  0.00    -0.414 A  
HETATM   24  C   UNK A   0      -9.872   8.815  71.683  1.00  0.00    -0.378 A  
HETATM   25  C   UNK A   0     -12.045   8.235  72.568  1.00  0.00    -0.400 A  
HETATM   26  C   UNK A   0     -10.657   8.125  72.608  1.00  0.00    -0.414 A  
ENDBRANCH  20  21
ENDBRANCH  19  20
ENDBRANCH  18  19
BRANCH  18  27
HETATM   27  C   UNK A   0     -12.120  14.718  70.442  1.00  0.00    -0.321 C  
HETATM   28  O   UNK A   0     -12.448  15.773  69.917  1.00  0.00    -0.300 OA 
BRANCH  27  29
HETATM   29  O   UNK A   0     -11.877  14.545  71.778  1.00  0.00    -0.306 OA 
BRANCH  29  30
HETATM   30  C   UNK A   0     -11.858  15.736  72.579  1.00  0.00    -0.499 C  
HETATM   31  C   UNK A   0     -12.489  15.487  73.938  1.00  0.00    -0.769 C  
ENDBRANCH  29  30
ENDBRANCH  27  29
ENDBRANCH  18  27
ENDBRANCH  16  18
ENDBRANCH  14  16
ENDBRANCH   7  14
TORSDOF 9
ENDMDL
MODEL       13
REMARK 921   NORMALIZED FREE ENERGY PREDICTED BY IDOCK:   -6.46 KCAL/MOL
REMARK 922        TOTAL FREE ENERGY PREDICTED BY IDOCK:  -11.50 KCAL/MOL
REMARK 923 INTER-LIGAND FREE ENERGY PREDICTED BY IDOCK:   -8.97 KCAL/MOL
REMARK 924 INTRA-LIGAND FREE ENERGY PREDICTED BY IDOCK:   -2.53 KCAL/MOL
REMARK 927      BINDING AFFINITY PREDICTED BY RF-SCORE:    0.00 PKD
ROOT
HETATM    1  C   UNK A   1      -9.896  13.974  65.914  1.00  0.00    -0.302 C  
HETATM    2  C   UNK A   1     -10.837  14.625  64.881  1.00  0.00    -0.436 C  
HETATM    3  C   UNK A   1     -12.249  14.428  65.416  1.00  0.00    -0.362 C  
HETATM    4  C   UNK A   1     -12.111  13.314  66.439  1.00  0.00    -0.454 C  
HETATM    5  C   UNK A   1     -10.774  13.596  67.119  1.00  0.00    -0.277 C  
HETATM    6  N   UNK A   1     -10.693  14.766  68.008  1.00  0.00    -0.244 N  
HETATM    7  C   UNK A   1     -11.222  14.875  69.294  1.00  0.00    -0.284 C  
HETATM    8  C   UNK A   1      -9.478  15.570  67.696  1.00  0.00    -0.208 C  
HETATM    9  C   UNK A   1      -9.658  17.072  67.402  1.00  0.00    -0.246 C  
HETATM   10  C   UNK A   1      -8.832  14.903  66.475  1.00  0.00    -0.256 C  
HETATM   11  O   UNK A   1     -10.876  15.835  69.994  1.00  0.00    -0.286 OA 
HETATM   12  O   UNK A   1     -10.942  17.497  67.463  1.00  0.00    -0.265 OA 
HETATM   13  O   UNK A   1      -8.744  17.817  67.096  1.00  0.00    -0.235 OA 
ENDROOT
BRANCH   7  14
HETATM   14  C   UNK A   1     -12.272  13.863  69.829  1.00  0.00    -0.332 C  
HETATM   15  C   UNK A   1     -13.029  14.485  71.014  1.00  0.00    -0.423 C  
BRANCH  14  16
HETATM   16  N   UNK A   1     -11.601  12.600  70.222  1.00  0.00    -0.538 NA 
HETATM   17  H   UNK A   1     -11.359  12.613  71.212  1.00  0.00     0.000 HD 
BRANCH  16  18
HETATM   18  C   UNK A   0     -12.390  11.376  69.885  1.00  0.00    -0.214 C  
BRANCH  18  19
HETATM   19  C   UNK A   0     -11.587  10.458  68.963  1.00  0.00    -0.220 C  
BRANCH  19  20
HETATM   20  C   UNK A   0     -10.064  10.626  69.064  1.00  0.00    -0.226 C  
BRANCH  20  21
HETATM   21  C   UNK A   0      -9.494  10.399  67.684  1.00  0.00    -0.165 A  
HETATM   22  C   UNK A   0     -10.329  10.012  66.628  1.00  0.00    -0.281 A  
HETATM   23  C   UNK A   0      -8.163  10.751  67.414  1.00  0.00    -0.116 A  
HETATM   24  C   UNK A   0      -9.858  10.027  65.316  1.00  0.00    -0.388 A  
HETATM   25  C   UNK A   0      -7.695  10.762  66.102  1.00  0.00    -0.149 A  
HETATM   26  C   UNK A   0      -8.545  10.418  65.054  1.00  0.00    -0.190 A  
ENDBRANCH  20  21
ENDBRANCH  19  20
ENDBRANCH  18  19
BRANCH  18  27
HETATM   27  C   UNK A   0     -12.788  10.642  71.181  1.00  0.00    -0.420 C  
HETATM   28  O   UNK A   0     -13.237  11.168  72.189  1.00  0.00    -0.481 OA 
BRANCH  27  29
HETATM   29  O   UNK A   0     -12.567   9.301  71.024  1.00  0.00    -0.278 OA 
BRANCH  29  30
HETATM   30  C   UNK A   0     -11.968   8.621  72.138  1.00  0.00    -0.379 C  
HETATM   31  C   UNK A   0     -10.574   8.131  71.790  1.00  0.00    -0.313 C  
ENDBRANCH  29  30
ENDBRANCH  27  29
ENDBRANCH  18  27
ENDBRANCH  16  18
ENDBRANCH  14  16
ENDBRANCH   7  14
TORSDOF 9
ENDMDL
MODEL       14
REMARK 921   NORMALIZED FREE ENERGY PREDICTED BY IDOCK:   -6.44 KCAL/MOL
REMARK 922        TOTAL FREE ENERGY PREDICTED BY IDOCK:  -11.46 KCAL/MOL
REMARK 923 INTER-LIGAND FREE ENERGY PREDICTED BY IDOCK:   -9.69 KCAL/MOL
REMARK 924 INTRA-LIGAND FREE ENERGY PREDICTED BY IDOCK:   -1.78 KCAL/MOL
REMARK 927      BINDING AFFINITY PREDICTED BY RF-SCORE:    0.00 PKD
ROOT
HETATM    1  C   UNK A   1     -11.186   8.238  72.358  1.00  0.00    -0.451 C  
HETATM    2  C   UNK A   1     -12.515   7.533  72.019  1.00  0.00    -0.289 C  
HETATM    3  C   UNK A   1     -13.331   8.539  71.217  1.00  0.00    -0.168 C  
HETATM    4  C   UNK A   1     -12.678   9.877  71.516  1.00  0.00    -0.515 C  
HETATM    5  C   UNK A   1     -11.186   9.559  71.571  1.00  0.00    -0.367 C  
HETATM    6  N   UNK A   1     -10.512   9.227  70.306  1.00  0.00    -0.211 N  
HETATM    7  C   UNK A   1     -10.153  10.116  69.293  1.00  0.00    -0.222 C  
HETATM    8  C   UNK A   1      -9.679   8.002  70.469  1.00  0.00    -0.178 C  
HETATM    9  C   UNK A   1      -9.903   6.836  69.485  1.00  0.00    -0.157 C  
HETATM   10  C   UNK A   1      -9.943   7.500  71.895  1.00  0.00    -0.204 C  
HETATM   11  O   UNK A   1      -9.394   9.717  68.401  1.00  0.00    -0.132 OA 
HETATM   12  O   UNK A   1     -10.861   7.073  68.558  1.00  0.00    -0.198 OA 
HETATM   13  O   UNK A   1      -9.311   5.774  69.548  1.00  0.00    -0.128 OA 
ENDROOT
BRANCH   7  14
HETATM   14  C   UNK A   1     -10.733  11.556  69.232  1.00  0.00    -0.125 C  
HETATM   15  C   UNK A   1     -11.979  11.571  68.331  1.00  0.00    -0.268 C  
BRANCH  14  16
HETATM   16  N   UNK A   1      -9.698  12.496  68.736  1.00  0.00    -0.416 NA 
HETATM   17  H   UNK A   1      -9.033  12.014  68.132  1.00  0.00     0.000 HD 
BRANCH  16  18
HETATM   18  C   UNK A   0     -10.264  13.697  68.049  1.00  0.00    -0.248 C  
BRANCH  18  19
HETATM   19  C   UNK A   0     -10.388  14.865  69.028  1.00  0.00    -0.245 C  
BRANCH  19  20
HETATM   20  C   UNK A   0     -11.831  15.303  69.321  1.00  0.00    -0.353 C  
BRANCH  20  21
HETATM   21  C   UNK A   0     -12.071  15.101  70.798  1.00  0.00    -0.387 A  
HETATM   22  C   UNK A   0     -11.795  16.131  71.707  1.00  0.00    -0.581 A  
HETATM   23  C   UNK A   0     -12.740  13.952  71.245  1.00  0.00    -0.444 A  
HETATM   24  C   UNK A   0     -12.228  16.038  73.029  1.00  0.00    -0.637 A  
HETATM   25  C   UNK A   0     -13.169  13.861  72.567  1.00  0.00    -0.601 A  
HETATM   26  C   UNK A   0     -12.928  14.909  73.453  1.00  0.00    -0.597 A  
ENDBRANCH  20  21
ENDBRANCH  19  20
ENDBRANCH  18  19
BRANCH  18  27
HETATM   27  C   UNK A   0      -9.373  14.077  66.850  1.00  0.00    -0.257 C  
HETATM   28  O   UNK A   0      -8.227  14.496  66.918  1.00  0.00    -0.171 OA 
BRANCH  27  29
HETATM   29  O   UNK A   0     -10.067  13.863  65.690  1.00  0.00    -0.310 OA 
BRANCH  29  30
HETATM   30  C   UNK A   0     -11.275  14.622  65.524  1.00  0.00    -0.343 C  
HETATM   31  C   UNK A   0     -12.434  13.719  65.139  1.00  0.00    -0.483 C  
ENDBRANCH  29  30
ENDBRANCH  27  29
ENDBRANCH  18  27
ENDBRANCH  16  18
ENDBRANCH  14  16
ENDBRANCH   7  14
TORSDOF 9
ENDMDL
MODEL       15
REMARK 921   NORMALIZED FREE ENERGY PREDICTED BY IDOCK:   -6.43 KCAL/MOL
REMARK 922        TOTAL FREE ENERGY PREDICTED BY IDOCK:  -11.45 KCAL/MOL
REMARK 923 INTER-LIGAND FREE ENERGY PREDICTED BY IDOCK:  -10.03 KCAL/MOL
REMARK 924 INTRA-LIGAND FREE ENERGY PREDICTED BY IDOCK:   -1.42 KCAL/MOL
REMARK 927      BINDING AFFINITY PREDICTED BY RF-SCORE:    0.00 PKD
ROOT
HETATM    1  C   UNK A   1      -7.720   9.526  66.145  1.00  0.00    -0.101 C  
HETATM    2  C   UNK A   1      -7.006   9.112  67.447  1.00  0.00    -0.078 C  
HETATM    3  C   UNK A   1      -7.058  10.330  68.360  1.00  0.00    -0.078 C  
HETATM    4  C   UNK A   1      -7.360  11.488  67.425  1.00  0.00    -0.123 C  
HETATM    5  C   UNK A   1      -8.345  10.905  66.416  1.00  0.00    -0.162 C  
HETATM    6  N   UNK A   1      -9.706  10.601  66.887  1.00  0.00    -0.175 N  
HETATM    7  C   UNK A   1     -10.722  11.518  67.152  1.00  0.00    -0.254 C  
HETATM    8  C   UNK A   1     -10.112   9.236  66.447  1.00  0.00    -0.267 C  
HETATM    9  C   UNK A   1     -10.608   8.246  67.520  1.00  0.00    -0.221 C  
HETATM   10  C   UNK A   1      -8.885   8.633  65.751  1.00  0.00    -0.231 C  
HETATM   11  O   UNK A   1     -11.871  11.092  67.321  1.00  0.00    -0.525 OA 
HETATM   12  O   UNK A   1     -10.616   8.752  68.776  1.00  0.00    -0.211 OA 
HETATM   13  O   UNK A   1     -10.927   7.095  67.284  1.00  0.00    -0.310 OA 
ENDROOT
BRANCH   7  14
HETATM   14  C   UNK A   1     -10.427  13.036  67.301  1.00  0.00    -0.238 C  
HETATM   15  C   UNK A   1     -11.539  13.697  68.132  1.00  0.00    -0.367 C  
BRANCH  14  16
HETATM   16  N   UNK A   1     -10.313  13.661  65.960  1.00  0.00    -0.297 NA 
HETATM   17  H   UNK A   1     -10.315  12.950  65.230  1.00  0.00     0.000 HD 
BRANCH  16  18
HETATM   18  C   UNK A   0     -11.359  14.697  65.695  1.00  0.00    -0.338 C  
BRANCH  18  19
HETATM   19  C   UNK A   0     -10.710  16.044  65.376  1.00  0.00    -0.399 C  
BRANCH  19  20
HETATM   20  C   UNK A   0      -9.393  16.310  66.120  1.00  0.00    -0.374 C  
BRANCH  20  21
HETATM   21  C   UNK A   0      -9.523  17.651  66.800  1.00  0.00    -0.285 A  
HETATM   22  C   UNK A   0     -10.374  18.632  66.273  1.00  0.00    -0.483 A  
HETATM   23  C   UNK A   0      -8.936  17.854  68.058  1.00  0.00    -0.267 A  
HETATM   24  C   UNK A   0     -10.675  19.774  67.014  1.00  0.00    -0.542 A  
HETATM   25  C   UNK A   0      -9.237  18.998  68.794  1.00  0.00    -0.388 A  
HETATM   26  C   UNK A   0     -10.118  19.947  68.281  1.00  0.00    -0.571 A  
ENDBRANCH  20  21
ENDBRANCH  19  20
ENDBRANCH  18  19
BRANCH  18  27
HETATM   27  C   UNK A   0     -12.265  14.234  64.536  1.00  0.00    -0.455 C  
HETATM   28  O   UNK A   0     -12.652  14.934  63.611  1.00  0.00    -0.724 OA 
BRANCH  27  29
HETATM   29  O   UNK A   0     -12.564  12.910  64.701  1.00  0.00    -0.585 OA 
BRANCH  29  30
HETATM   30  C   UNK A   0     -12.414  12.076  63.542  1.00  0.00    -0.540 C  
HETATM   31  C   UNK A   0     -10.962  11.675  63.346  1.00  0.00    -0.442 C  
ENDBRANCH  29  30
ENDBRANCH  27  29
ENDBRANCH  18  27
ENDBRANCH  16  18
ENDBRANCH  14  16
ENDBRANCH   7  14
TORSDOF 9
ENDMDL
MODEL       16
REMARK 921   NORMALIZED FREE ENERGY PREDICTED BY IDOCK:   -6.43 KCAL/MOL
REMARK 922        TOTAL FREE ENERGY PREDICTED BY IDOCK:  -11.44 KCAL/MOL
REMARK 923 INTER-LIGAND FREE ENERGY PREDICTED BY IDOCK:   -9.97 KCAL/MOL
REMARK 924 INTRA-LIGAND FREE ENERGY PREDICTED BY IDOCK:   -1.47 KCAL/MOL
REMARK 927      BINDING AFFINITY PREDICTED BY RF-SCORE:    0.00 PKD
ROOT
HETATM    1  C   UNK A   1      -6.857  17.741  69.065  1.00  0.00    -0.244 C  
HETATM    2  C   UNK A   1      -5.589  17.200  68.374  1.00  0.00    -0.136 C  
HETATM    3  C   UNK A   1      -6.036  15.994  67.558  1.00  0.00    -0.189 C  
HETATM    4  C   UNK A   1      -7.381  15.615  68.154  1.00  0.00    -0.123 C  
HETATM    5  C   UNK A   1      -8.039  16.956  68.470  1.00  0.00    -0.244 C  
HETATM    6  N   UNK A   1      -8.489  17.780  67.337  1.00  0.00    -0.224 N  
HETATM    7  C   UNK A   1      -9.614  17.563  66.542  1.00  0.00    -0.285 C  
HETATM    8  C   UNK A   1      -8.031  19.188  67.508  1.00  0.00    -0.257 C  
HETATM    9  C   UNK A   1      -7.237  19.837  66.357  1.00  0.00    -0.255 C  
HETATM   10  C   UNK A   1      -7.164  19.199  68.773  1.00  0.00    -0.368 C  
HETATM   11  O   UNK A   1      -9.979  18.466  65.780  1.00  0.00    -0.523 OA 
HETATM   12  O   UNK A   1      -7.043  19.023  65.293  1.00  0.00    -0.485 OA 
HETATM   13  O   UNK A   1      -6.779  20.964  66.402  1.00  0.00    -0.257 OA 
ENDROOT
BRANCH   7  14
HETATM   14  C   UNK A   1     -10.365  16.203  66.551  1.00  0.00    -0.308 C  
HETATM   15  C   UNK A   1     -10.994  15.954  65.170  1.00  0.00    -0.389 C  
BRANCH  14  16
HETATM   16  N   UNK A   1     -11.394  16.202  67.619  1.00  0.00    -0.146 NA 
HETATM   17  H   UNK A   1     -12.268  16.602  67.279  1.00  0.00     0.000 HD 
BRANCH  16  18
HETATM   18  C   UNK A   0     -11.627  14.853  68.221  1.00  0.00    -0.334 C  
BRANCH  18  19
HETATM   19  C   UNK A   0     -10.635  13.836  67.655  1.00  0.00    -0.244 C  
BRANCH  19  20
HETATM   20  C   UNK A   0     -11.191  12.411  67.516  1.00  0.00    -0.348 C  
BRANCH  20  21
HETATM   21  C   UNK A   0     -11.318  12.119  66.041  1.00  0.00    -0.410 A  
HETATM   22  C   UNK A   0     -12.389  12.644  65.305  1.00  0.00    -0.528 A  
HETATM   23  C   UNK A   0     -10.270  11.476  65.365  1.00  0.00    -0.311 A  
HETATM   24  C   UNK A   0     -12.387  12.575  63.913  1.00  0.00    -0.576 A  
HETATM   25  C   UNK A   0     -10.274  11.405  63.973  1.00  0.00    -0.398 A  
HETATM   26  C   UNK A   0     -11.321  11.968  63.249  1.00  0.00    -0.396 A  
ENDBRANCH  20  21
ENDBRANCH  19  20
ENDBRANCH  18  19
BRANCH  18  27
HETATM   27  C   UNK A   0     -11.508  14.942  69.756  1.00  0.00    -0.295 C  
HETATM   28  O   UNK A   0     -10.696  15.619  70.370  1.00  0.00    -0.317 OA 
BRANCH  27  29
HETATM   29  O   UNK A   0     -12.464  14.146  70.327  1.00  0.00    -0.342 OA 
BRANCH  29  30
HETATM   30  C   UNK A   0     -12.886  14.511  71.650  1.00  0.00    -0.338 C  
HETATM   31  C   UNK A   0     -13.618  13.363  72.322  1.00  0.00    -0.703 C  
ENDBRANCH  29  30
ENDBRANCH  27  29
ENDBRANCH  18  27
ENDBRANCH  16  18
ENDBRANCH  14  16
ENDBRANCH   7  14
TORSDOF 9
ENDMDL
MODEL       17
REMARK 921   NORMALIZED FREE ENERGY PREDICTED BY IDOCK:   -6.42 KCAL/MOL
REMARK 922        TOTAL FREE ENERGY PREDICTED BY IDOCK:  -11.44 KCAL/MOL
REMARK 923 INTER-LIGAND FREE ENERGY PREDICTED BY IDOCK:  -10.93 KCAL/MOL
REMARK 924 INTRA-LIGAND FREE ENERGY PREDICTED BY IDOCK:   -0.51 KCAL/MOL
REMARK 927      BINDING AFFINITY PREDICTED BY RF-SCORE:    0.00 PKD
ROOT
HETATM    1  C   UNK A   1     -10.035  11.160  66.241  1.00  0.00    -0.261 C  
HETATM    2  C   UNK A   1     -11.232  10.967  67.192  1.00  0.00    -0.290 C  
HETATM    3  C   UNK A   1     -11.085  12.029  68.274  1.00  0.00    -0.290 C  
HETATM    4  C   UNK A   1      -9.632  12.462  68.181  1.00  0.00    -0.218 C  
HETATM    5  C   UNK A   1      -9.338  12.458  66.684  1.00  0.00    -0.227 C  
HETATM    6  N   UNK A   1      -9.965  13.505  65.862  1.00  0.00    -0.345 N  
HETATM    7  C   UNK A   1      -9.597  14.849  65.798  1.00  0.00    -0.276 C  
HETATM    8  C   UNK A   1     -10.585  12.906  64.645  1.00  0.00    -0.363 C  
HETATM    9  C   UNK A   1     -12.070  13.210  64.364  1.00  0.00    -0.410 C  
HETATM   10  C   UNK A   1     -10.412  11.388  64.787  1.00  0.00    -0.366 C  
HETATM   11  O   UNK A   1     -10.073  15.547  64.895  1.00  0.00    -0.351 OA 
HETATM   12  O   UNK A   1     -12.654  14.012  65.286  1.00  0.00    -0.495 OA 
HETATM   13  O   UNK A   1     -12.691  12.744  63.426  1.00  0.00    -0.698 OA 
ENDROOT
BRANCH   7  14
HETATM   14  C   UNK A   1      -8.666  15.487  66.865  1.00  0.00    -0.250 C  
HETATM   15  C   UNK A   1      -7.440  14.586  67.084  1.00  0.00    -0.002 C  
BRANCH  14  16
HETATM   16  N   UNK A   1      -9.415  15.694  68.129  1.00  0.00    -0.194 NA 
HETATM   17  H   UNK A   1      -8.777  15.755  68.921  1.00  0.00     0.000 HD 
BRANCH  16  18
HETATM   18  C   UNK A   0     -10.330  16.877  68.093  1.00  0.00    -0.336 C  
BRANCH  18  19
HETATM   19  C   UNK A   0     -11.531  16.652  69.011  1.00  0.00     0.015 C  
BRANCH  19  20
HETATM   20  C   UNK A   0     -11.811  15.180  69.348  1.00  0.00    -0.357 C  
BRANCH  20  21
HETATM   21  C   UNK A   0     -12.122  15.108  70.824  1.00  0.00    -0.387 A  
HETATM   22  C   UNK A   0     -11.821  16.188  71.664  1.00  0.00    -0.557 A  
HETATM   23  C   UNK A   0     -12.877  14.038  71.325  1.00  0.00    -0.430 A  
HETATM   24  C   UNK A   0     -12.311  16.223  72.968  1.00  0.00    -0.581 A  
HETATM   25  C   UNK A   0     -13.363  14.074  72.631  1.00  0.00    -0.643 A  
HETATM   26  C   UNK A   0     -13.095  15.173  73.445  1.00  0.00    -0.588 A  
ENDBRANCH  20  21
ENDBRANCH  19  20
ENDBRANCH  18  19
BRANCH  18  27
HETATM   27  C   UNK A   0      -9.554  18.145  68.501  1.00  0.00    -0.339 C  
HETATM   28  O   UNK A   0      -8.372  18.188  68.813  1.00  0.00    -0.289 OA 
BRANCH  27  29
HETATM   29  O   UNK A   0     -10.396  19.222  68.453  1.00  0.00    -0.399 OA 
BRANCH  29  30
HETATM   30  C   UNK A   0      -9.969  20.325  67.640  1.00  0.00    -0.410 C  
HETATM   31  C   UNK A   0     -10.082  19.988  66.163  1.00  0.00    -0.588 C  
ENDBRANCH  29  30
ENDBRANCH  27  29
ENDBRANCH  18  27
ENDBRANCH  16  18
ENDBRANCH  14  16
ENDBRANCH   7  14
TORSDOF 9
ENDMDL
MODEL       18
REMARK 921   NORMALIZED FREE ENERGY PREDICTED BY IDOCK:   -6.42 KCAL/MOL
REMARK 922        TOTAL FREE ENERGY PREDICTED BY IDOCK:  -11.43 KCAL/MOL
REMARK 923 INTER-LIGAND FREE ENERGY PREDICTED BY IDOCK:   -9.81 KCAL/MOL
REMARK 924 INTRA-LIGAND FREE ENERGY PREDICTED BY IDOCK:   -1.62 KCAL/MOL
REMARK 927      BINDING AFFINITY PREDICTED BY RF-SCORE:    0.00 PKD
ROOT
HETATM    1  C   UNK A   1     -11.630  12.043  65.982  1.00  0.00    -0.371 C  
HETATM    2  C   UNK A   1     -11.313  11.708  64.511  1.00  0.00    -0.310 C  
HETATM    3  C   UNK A   1     -10.531  12.897  63.968  1.00  0.00    -0.395 C  
HETATM    4  C   UNK A   1     -10.822  14.019  64.950  1.00  0.00    -0.421 C  
HETATM    5  C   UNK A   1     -10.847  13.326  66.310  1.00  0.00    -0.284 C  
HETATM    6  N   UNK A   1      -9.568  12.842  66.853  1.00  0.00    -0.234 N  
HETATM    7  C   UNK A   1      -8.552  13.617  67.413  1.00  0.00    -0.209 C  
HETATM    8  C   UNK A   1      -9.711  11.442  67.345  1.00  0.00    -0.181 C  
HETATM    9  C   UNK A   1      -8.727  10.382  66.810  1.00  0.00    -0.127 C  
HETATM   10  C   UNK A   1     -11.140  11.013  66.985  1.00  0.00    -0.311 C  
HETATM   11  O   UNK A   1      -7.644  13.043  68.027  1.00  0.00    -0.112 OA 
HETATM   12  O   UNK A   1      -7.820  10.866  65.930  1.00  0.00    -0.153 OA 
HETATM   13  O   UNK A   1      -8.775   9.203  67.109  1.00  0.00    -0.122 OA 
ENDROOT
BRANCH   7  14
HETATM   14  C   UNK A   1      -8.508  15.158  67.223  1.00  0.00    -0.198 C  
HETATM   15  C   UNK A   1      -7.046  15.635  67.227  1.00  0.00    -0.242 C  
BRANCH  14  16
HETATM   16  N   UNK A   1      -9.294  15.820  68.293  1.00  0.00    -0.191 NA 
HETATM   17  H   UNK A   1      -8.720  16.494  68.798  1.00  0.00     0.000 HD 
BRANCH  16  18
HETATM   18  C   UNK A   0     -10.552  16.461  67.798  1.00  0.00    -0.321 C  
BRANCH  18  19
HETATM   19  C   UNK A   0     -11.725  16.114  68.715  1.00  0.00    -0.231 C  
BRANCH  19  20
HETATM   20  C   UNK A   0     -11.663  14.707  69.327  1.00  0.00    -0.348 C  
BRANCH  20  21
HETATM   21  C   UNK A   0     -12.053  14.831  70.780  1.00  0.00    -0.374 A  
HETATM   22  C   UNK A   0     -11.645  15.942  71.530  1.00  0.00    -0.537 A  
HETATM   23  C   UNK A   0     -12.974  13.929  71.334  1.00  0.00    -0.430 A  
HETATM   24  C   UNK A   0     -12.189  16.178  72.791  1.00  0.00    -0.628 A  
HETATM   25  C   UNK A   0     -13.513  14.166  72.597  1.00  0.00    -0.634 A  
HETATM   26  C   UNK A   0     -13.135  15.297  73.316  1.00  0.00    -0.630 A  
ENDBRANCH  20  21
ENDBRANCH  19  20
ENDBRANCH  18  19
BRANCH  18  27
HETATM   27  C   UNK A   0     -10.356  17.987  67.708  1.00  0.00    -0.393 C  
HETATM   28  O   UNK A   0     -10.724  18.700  66.785  1.00  0.00    -0.385 OA 
BRANCH  27  29
HETATM   29  O   UNK A   0      -9.710  18.424  68.832  1.00  0.00    -0.341 OA 
BRANCH  29  30
HETATM   30  C   UNK A   0      -8.774  19.498  68.649  1.00  0.00    -0.335 C  
HETATM   31  C   UNK A   0      -7.349  19.020  68.865  1.00  0.00    -0.360 C  
ENDBRANCH  29  30
ENDBRANCH  27  29
ENDBRANCH  18  27
ENDBRANCH  16  18
ENDBRANCH  14  16
ENDBRANCH   7  14
TORSDOF 9
ENDMDL
MODEL       19
REMARK 921   NORMALIZED FREE ENERGY PREDICTED BY IDOCK:   -6.40 KCAL/MOL
REMARK 922        TOTAL FREE ENERGY PREDICTED BY IDOCK:  -11.40 KCAL/MOL
REMARK 923 INTER-LIGAND FREE ENERGY PREDICTED BY IDOCK:   -9.84 KCAL/MOL
REMARK 924 INTRA-LIGAND FREE ENERGY PREDICTED BY IDOCK:   -1.56 KCAL/MOL
REMARK 927      BINDING AFFINITY PREDICTED BY RF-SCORE:    0.00 PKD
ROOT
HETATM    1  C   UNK A   1      -7.784   9.728  66.532  1.00  0.00    -0.105 C  
HETATM    2  C   UNK A   1      -8.513   8.377  66.677  1.00  0.00    -0.113 C  
HETATM    3  C   UNK A   1      -9.998   8.683  66.533  1.00  0.00    -0.353 C  
HETATM    4  C   UNK A   1     -10.099  10.178  66.776  1.00  0.00    -0.277 C  
HETATM    5  C   UNK A   1      -8.853  10.750  66.106  1.00  0.00    -0.177 C  
HETATM    6  N   UNK A   1      -8.800  10.737  64.636  1.00  0.00    -0.286 N  
HETATM    7  C   UNK A   1      -9.494  11.581  63.769  1.00  0.00    -0.134 C  
HETATM    8  C   UNK A   1      -7.490  10.201  64.169  1.00  0.00    -0.114 C  
HETATM    9  C   UNK A   1      -7.501   9.026  63.172  1.00  0.00    -0.098 C  
HETATM   10  C   UNK A   1      -6.737   9.767  65.433  1.00  0.00    -0.093 C  
HETATM   11  O   UNK A   1      -9.171  11.593  62.575  1.00  0.00    -0.302 OA 
HETATM   12  O   UNK A   1      -8.741   8.606  62.827  1.00  0.00    -0.145 OA 
HETATM   13  O   UNK A   1      -6.494   8.482  62.755  1.00  0.00    -0.090 OA 
ENDROOT
BRANCH   7  14
HETATM   14  C   UNK A   1     -10.690  12.443  64.258  1.00  0.00    -0.357 C  
HETATM   15  C   UNK A   1     -11.902  12.209  63.341  1.00  0.00    -0.553 C  
BRANCH  14  16
HETATM   16  N   UNK A   1     -10.302  13.875  64.283  1.00  0.00    -0.679 NA 
HETATM   17  H   UNK A   1     -10.338  14.275  63.345  1.00  0.00     0.000 HD 
BRANCH  16  18
HETATM   18  C   UNK A   0     -11.107  14.694  65.240  1.00  0.00    -0.360 C  
BRANCH  18  19
HETATM   19  C   UNK A   0     -10.708  14.377  66.682  1.00  0.00    -0.292 C  
BRANCH  19  20
HETATM   20  C   UNK A   0     -11.738  13.546  67.462  1.00  0.00    -0.403 C  
BRANCH  20  21
HETATM   21  C   UNK A   0     -11.901  14.190  68.818  1.00  0.00    -0.384 A  
HETATM   22  C   UNK A   0     -12.330  13.430  69.915  1.00  0.00    -0.259 A  
HETATM   23  C   UNK A   0     -11.450  15.502  69.025  1.00  0.00    -0.361 A  
HETATM   24  C   UNK A   0     -12.259  13.954  71.204  1.00  0.00    -0.390 A  
HETATM   25  C   UNK A   0     -11.384  16.024  70.316  1.00  0.00    -0.391 A  
HETATM   26  C   UNK A   0     -11.771  15.246  71.404  1.00  0.00    -0.444 A  
ENDBRANCH  20  21
ENDBRANCH  19  20
ENDBRANCH  18  19
BRANCH  18  27
HETATM   27  C   UNK A   0     -10.914  16.192  64.932  1.00  0.00    -0.349 C  
HETATM   28  O   UNK A   0     -11.515  16.827  64.077  1.00  0.00    -1.198 OA 
BRANCH  27  29
HETATM   29  O   UNK A   0      -9.966  16.705  65.774  1.00  0.00    -0.466 OA 
BRANCH  29  30
HETATM   30  C   UNK A   0     -10.247  17.997  66.334  1.00  0.00    -0.393 C  
HETATM   31  C   UNK A   0      -9.436  18.231  67.596  1.00  0.00    -0.275 C  
ENDBRANCH  29  30
ENDBRANCH  27  29
ENDBRANCH  18  27
ENDBRANCH  16  18
ENDBRANCH  14  16
ENDBRANCH   7  14
TORSDOF 9
ENDMDL
MODEL       20
REMARK 921   NORMALIZED FREE ENERGY PREDICTED BY IDOCK:   -6.38 KCAL/MOL
REMARK 922        TOTAL FREE ENERGY PREDICTED BY IDOCK:  -11.36 KCAL/MOL
REMARK 923 INTER-LIGAND FREE ENERGY PREDICTED BY IDOCK:   -9.78 KCAL/MOL
REMARK 924 INTRA-LIGAND FREE ENERGY PREDICTED BY IDOCK:   -1.58 KCAL/MOL
REMARK 927      BINDING AFFINITY PREDICTED BY RF-SCORE:    0.00 PKD
ROOT
HETATM    1  C   UNK A   1      -7.449  16.880  69.160  1.00  0.00    -0.180 C  
HETATM    2  C   UNK A   1      -6.064  16.511  68.592  1.00  0.00    -0.134 C  
HETATM    3  C   UNK A   1      -6.266  15.237  67.783  1.00  0.00    -0.178 C  
HETATM    4  C   UNK A   1      -7.591  14.683  68.280  1.00  0.00    -0.118 C  
HETATM    5  C   UNK A   1      -8.454  15.923  68.497  1.00  0.00    -0.184 C  
HETATM    6  N   UNK A   1      -8.917  16.651  67.305  1.00  0.00    -0.198 N  
HETATM    7  C   UNK A   1      -9.929  16.260  66.428  1.00  0.00    -0.300 C  
HETATM    8  C   UNK A   1      -8.678  18.113  67.466  1.00  0.00    -0.249 C  
HETATM    9  C   UNK A   1      -7.886  18.844  66.363  1.00  0.00    -0.280 C  
HETATM   10  C   UNK A   1      -7.931  18.274  68.797  1.00  0.00    -0.268 C  
HETATM   11  O   UNK A   1     -10.351  17.085  65.610  1.00  0.00    -0.542 OA 
HETATM   12  O   UNK A   1      -7.490  18.044  65.345  1.00  0.00    -0.482 OA 
HETATM   13  O   UNK A   1      -7.596  20.026  66.408  1.00  0.00    -0.275 OA 
ENDROOT
BRANCH   7  14
HETATM   14  C   UNK A   1     -10.480  14.807  66.420  1.00  0.00    -0.293 C  
HETATM   15  C   UNK A   1     -10.388  14.230  64.998  1.00  0.00    -0.448 C  
BRANCH  14  16
HETATM   16  N   UNK A   1     -11.878  14.796  66.917  1.00  0.00    -0.319 NA 
HETATM   17  H   UNK A   1     -12.520  14.501  66.181  1.00  0.00     0.000 HD 
BRANCH  16  18
HETATM   18  C   UNK A   0     -12.066  13.967  68.147  1.00  0.00    -0.282 C  
BRANCH  18  19
HETATM   19  C   UNK A   0     -10.942  12.940  68.278  1.00  0.00    -0.282 C  
BRANCH  19  20
HETATM   20  C   UNK A   0     -11.387  11.480  68.109  1.00  0.00    -0.367 C  
BRANCH  20  21
HETATM   21  C   UNK A   0     -11.265  10.813  69.458  1.00  0.00    -0.342 A  
HETATM   22  C   UNK A   0     -12.355  10.792  70.338  1.00  0.00    -0.438 A  
HETATM   23  C   UNK A   0     -10.123  10.057  69.761  1.00  0.00    -0.284 A  
HETATM   24  C   UNK A   0     -12.326   9.987  71.476  1.00  0.00    -0.513 A  
HETATM   25  C   UNK A   0     -10.096   9.255  70.901  1.00  0.00    -0.373 A  
HETATM   26  C   UNK A   0     -11.202   9.207  71.746  1.00  0.00    -0.451 A  
ENDBRANCH  20  21
ENDBRANCH  19  20
ENDBRANCH  18  19
BRANCH  18  27
HETATM   27  C   UNK A   0     -12.122  14.882  69.386  1.00  0.00    -0.262 C  
HETATM   28  O   UNK A   0     -11.561  15.963  69.500  1.00  0.00    -0.325 OA 
BRANCH  27  29
HETATM   29  O   UNK A   0     -12.909  14.298  70.341  1.00  0.00    -0.336 OA 
BRANCH  29  30
HETATM   30  C   UNK A   0     -13.294  15.133  71.444  1.00  0.00    -0.467 C  
HETATM   31  C   UNK A   0     -13.220  14.371  72.755  1.00  0.00    -0.611 C  
ENDBRANCH  29  30
ENDBRANCH  27  29
ENDBRANCH  18  27
ENDBRANCH  16  18
ENDBRANCH  14  16
ENDBRANCH   7  14
TORSDOF 9
ENDMDL
MODEL       21
REMARK 921   NORMALIZED FREE ENERGY PREDICTED BY IDOCK:   -6.36 KCAL/MOL
REMARK 922        TOTAL FREE ENERGY PREDICTED BY IDOCK:  -11.33 KCAL/MOL
REMARK 923 INTER-LIGAND FREE ENERGY PREDICTED BY IDOCK:   -9.47 KCAL/MOL
REMARK 924 INTRA-LIGAND FREE ENERGY PREDICTED BY IDOCK:   -1.86 KCAL/MOL
REMARK 927      BINDING AFFINITY PREDICTED BY RF-SCORE:    0.00 PKD
ROOT
HETATM    1  C   UNK A   1     -10.142  11.423  66.388  1.00  0.00    -0.255 C  
HETATM    2  C   UNK A   1     -11.301  11.097  67.350  1.00  0.00    -0.329 C  
HETATM    3  C   UNK A   1     -11.354  12.246  68.348  1.00  0.00    -0.340 C  
HETATM    4  C   UNK A   1      -9.997  12.916  68.223  1.00  0.00    -0.234 C  
HETATM    5  C   UNK A   1      -9.686  12.851  66.731  1.00  0.00    -0.246 C  
HETATM    6  N   UNK A   1     -10.473  13.709  65.831  1.00  0.00    -0.290 N  
HETATM    7  C   UNK A   1     -10.342  15.088  65.666  1.00  0.00    -0.353 C  
HETATM    8  C   UNK A   1     -10.964  12.923  64.664  1.00  0.00    -0.332 C  
HETATM    9  C   UNK A   1     -12.475  12.943  64.360  1.00  0.00    -0.375 C  
HETATM   10  C   UNK A   1     -10.533  11.473  64.921  1.00  0.00    -0.345 C  
HETATM   11  O   UNK A   1     -10.919  15.624  64.712  1.00  0.00    -0.436 OA 
HETATM   12  O   UNK A   1     -13.201  13.698  65.218  1.00  0.00    -0.724 OA 
HETATM   13  O   UNK A   1     -12.993  12.308  63.459  1.00  0.00    -0.776 OA 
ENDROOT
BRANCH   7  14
HETATM   14  C   UNK A   1      -9.550  15.956  66.682  1.00  0.00    -0.246 C  
HETATM   15  C   UNK A   1     -10.526  16.598  67.681  1.00  0.00    -0.320 C  
BRANCH  14  16
HETATM   16  N   UNK A   1      -8.764  16.986  65.959  1.00  0.00    -0.523 NA 
HETATM   17  H   UNK A   1      -9.357  17.503  65.310  1.00  0.00     0.000 HD 
BRANCH  16  18
HETATM   18  C   UNK A   0      -8.029  17.920  66.866  1.00  0.00    -0.227 C  
BRANCH  18  19
HETATM   19  C   UNK A   0      -6.701  17.305  67.307  1.00  0.00    -0.186 C  
BRANCH  19  20
HETATM   20  C   UNK A   0      -6.632  16.933  68.796  1.00  0.00    -0.184 C  
BRANCH  20  21
HETATM   21  C   UNK A   0      -6.282  15.467  68.877  1.00  0.00    -0.098 A  
HETATM   22  C   UNK A   0      -6.127  14.844  70.123  1.00  0.00    -0.157 A  
HETATM   23  C   UNK A   0      -6.289  14.683  67.714  1.00  0.00    -0.170 A  
HETATM   24  C   UNK A   0      -6.035  13.456  70.209  1.00  0.00    -0.141 A  
HETATM   25  C   UNK A   0      -6.194  13.295  67.804  1.00  0.00    -0.159 A  
HETATM   26  C   UNK A   0      -6.085  12.683  69.050  1.00  0.00    -0.085 A  
ENDBRANCH  20  21
ENDBRANCH  19  20
ENDBRANCH  18  19
BRANCH  18  27
HETATM   27  C   UNK A   0      -7.801  19.267  66.151  1.00  0.00    -0.300 C  
HETATM   28  O   UNK A   0      -7.191  19.422  65.102  1.00  0.00    -0.393 OA 
BRANCH  27  29
HETATM   29  O   UNK A   0      -8.398  20.265  66.871  1.00  0.00    -0.313 OA 
BRANCH  29  30
HETATM   30  C   UNK A   0      -9.782  20.069  67.200  1.00  0.00    -0.411 C  
HETATM   31  C   UNK A   0     -10.629  19.961  65.944  1.00  0.00    -0.523 C  
ENDBRANCH  29  30
ENDBRANCH  27  29
ENDBRANCH  18  27
ENDBRANCH  16  18
ENDBRANCH  14  16
ENDBRANCH   7  14
TORSDOF 9
ENDMDL
MODEL       22
REMARK 921   NORMALIZED FREE ENERGY PREDICTED BY IDOCK:   -6.30 KCAL/MOL
REMARK 922        TOTAL FREE ENERGY PREDICTED BY IDOCK:  -11.25 KCAL/MOL
REMARK 923 INTER-LIGAND FREE ENERGY PREDICTED BY IDOCK:   -9.58 KCAL/MOL
REMARK 924 INTRA-LIGAND FREE ENERGY PREDICTED BY IDOCK:   -1.67 KCAL/MOL
REMARK 927      BINDING AFFINITY PREDICTED BY RF-SCORE:    0.00 PKD
ROOT
HETATM    1  C   UNK A   1      -9.881  10.762  65.904  1.00  0.00    -0.290 C  
HETATM    2  C   UNK A   1     -11.003  10.232  66.818  1.00  0.00    -0.082 C  
HETATM    3  C   UNK A   1     -11.074  11.193  67.998  1.00  0.00    -0.334 C  
HETATM    4  C   UNK A   1      -9.745  11.928  67.964  1.00  0.00    -0.191 C  
HETATM    5  C   UNK A   1      -9.469  12.129  66.476  1.00  0.00    -0.231 C  
HETATM    6  N   UNK A   1     -10.308  13.094  65.750  1.00  0.00    -0.285 N  
HETATM    7  C   UNK A   1     -10.232  14.485  65.819  1.00  0.00    -0.335 C  
HETATM    8  C   UNK A   1     -10.798  12.498  64.475  1.00  0.00    -0.328 C  
HETATM    9  C   UNK A   1     -12.316  12.509  64.206  1.00  0.00    -0.456 C  
HETATM   10  C   UNK A   1     -10.309  11.044  64.474  1.00  0.00    -0.420 C  
HETATM   11  O   UNK A   1     -10.851  15.152  64.981  1.00  0.00    -0.388 OA 
HETATM   12  O   UNK A   1     -13.048  13.078  65.193  1.00  0.00    -0.740 OA 
HETATM   13  O   UNK A   1     -12.833  12.014  63.220  1.00  0.00    -0.732 OA 
ENDROOT
BRANCH   7  14
HETATM   14  C   UNK A   1      -9.447  15.201  66.954  1.00  0.00    -0.238 C  
HETATM   15  C   UNK A   1     -10.394  16.136  67.723  1.00  0.00    -0.283 C  
BRANCH  14  16
HETATM   16  N   UNK A   1      -8.301  15.947  66.380  1.00  0.00    -0.296 NA 
HETATM   17  H   UNK A   1      -8.565  16.910  66.173  1.00  0.00     0.000 HD 
BRANCH  16  18
HETATM   18  C   UNK A   0      -7.075  15.906  67.235  1.00  0.00    -0.207 C  
BRANCH  18  19
HETATM   19  C   UNK A   0      -7.088  17.054  68.244  1.00  0.00    -0.190 C  
BRANCH  19  20
HETATM   20  C   UNK A   0      -6.809  18.438  67.641  1.00  0.00    -0.207 C  
BRANCH  20  21
HETATM   21  C   UNK A   0      -8.136  19.146  67.506  1.00  0.00    -0.301 A  
HETATM   22  C   UNK A   0      -8.619  19.510  66.242  1.00  0.00    -0.382 A  
HETATM   23  C   UNK A   0      -8.973  19.276  68.625  1.00  0.00    -0.419 A  
HETATM   24  C   UNK A   0      -9.933  19.948  66.090  1.00  0.00    -0.593 A  
HETATM   25  C   UNK A   0     -10.285  19.718  68.470  1.00  0.00    -0.547 A  
HETATM   26  C   UNK A   0     -10.770  20.036  67.203  1.00  0.00    -0.358 A  
ENDBRANCH  20  21
ENDBRANCH  19  20
ENDBRANCH  18  19
BRANCH  18  27
HETATM   27  C   UNK A   0      -6.988  14.544  67.952  1.00  0.00    -0.162 C  
HETATM   28  O   UNK A   0      -7.315  14.325  69.110  1.00  0.00    -0.126 OA 
BRANCH  27  29
HETATM   29  O   UNK A   0      -6.493  13.610  67.083  1.00  0.00    -0.201 OA 
BRANCH  29  30
HETATM   30  C   UNK A   0      -6.013  12.390  67.669  1.00  0.00    -0.128 C  
HETATM   31  C   UNK A   0      -5.860  11.306  66.616  1.00  0.00    -0.138 C  
ENDBRANCH  29  30
ENDBRANCH  27  29
ENDBRANCH  18  27
ENDBRANCH  16  18
ENDBRANCH  14  16
ENDBRANCH   7  14
TORSDOF 9
ENDMDL
MODEL       23
REMARK 921   NORMALIZED FREE ENERGY PREDICTED BY IDOCK:   -6.29 KCAL/MOL
REMARK 922        TOTAL FREE ENERGY PREDICTED BY IDOCK:  -11.23 KCAL/MOL
REMARK 923 INTER-LIGAND FREE ENERGY PREDICTED BY IDOCK:   -9.63 KCAL/MOL
REMARK 924 INTRA-LIGAND FREE ENERGY PREDICTED BY IDOCK:   -1.60 KCAL/MOL
REMARK 927      BINDING AFFINITY PREDICTED BY RF-SCORE:    0.00 PKD
ROOT
HETATM    1  C   UNK A   1     -10.571   6.304  68.205  1.00  0.00    -0.318 C  
HETATM    2  C   UNK A   1      -9.058   6.018  68.140  1.00  0.00    -0.118 C  
HETATM    3  C   UNK A   1      -8.416   7.272  67.562  1.00  0.00    -0.119 C  
HETATM    4  C   UNK A   1      -9.567   8.014  66.906  1.00  0.00    -0.265 C  
HETATM    5  C   UNK A   1     -10.743   7.792  67.854  1.00  0.00    -0.097 C  
HETATM    6  N   UNK A   1     -10.710   8.478  69.155  1.00  0.00    -0.381 N  
HETATM    7  C   UNK A   1     -10.946   9.833  69.390  1.00  0.00    -0.212 C  
HETATM    8  C   UNK A   1     -11.041   7.525  70.251  1.00  0.00    -0.248 C  
HETATM    9  C   UNK A   1     -10.054   7.403  71.429  1.00  0.00    -0.186 C  
HETATM   10  C   UNK A   1     -11.185   6.150  69.586  1.00  0.00    -0.488 C  
HETATM   11  O   UNK A   1     -11.104  10.209  70.558  1.00  0.00    -0.294 OA 
HETATM   12  O   UNK A   1      -8.968   8.204  71.323  1.00  0.00    -0.132 OA 
HETATM   13  O   UNK A   1     -10.200   6.630  72.358  1.00  0.00    -0.179 OA 
ENDROOT
BRANCH   7  14
HETATM   14  C   UNK A   1     -10.946  10.870  68.234  1.00  0.00    -0.239 C  
HETATM   15  C   UNK A   1      -9.599  11.611  68.206  1.00  0.00    -0.198 C  
BRANCH  14  16
HETATM   16  N   UNK A   1     -12.077  11.815  68.405  1.00  0.00    -0.480 NA 
HETATM   17  H   UNK A   1     -12.743  11.460  69.091  1.00  0.00     0.000 HD 
BRANCH  16  18
HETATM   18  C   UNK A   0     -11.645  13.204  68.757  1.00  0.00    -0.308 C  
BRANCH  18  19
HETATM   19  C   UNK A   0     -12.090  14.191  67.678  1.00  0.00    -0.337 C  
BRANCH  19  20
HETATM   20  C   UNK A   0     -11.001  14.556  66.658  1.00  0.00    -0.321 C  
BRANCH  20  21
HETATM   21  C   UNK A   0     -11.262  13.744  65.412  1.00  0.00    -0.306 A  
HETATM   22  C   UNK A   0     -10.193  13.269  64.640  1.00  0.00    -0.334 A  
HETATM   23  C   UNK A   0     -12.564  13.308  65.124  1.00  0.00    -0.512 A  
HETATM   24  C   UNK A   0     -10.415  12.334  63.631  1.00  0.00    -0.483 A  
HETATM   25  C   UNK A   0     -12.782  12.375  64.113  1.00  0.00    -0.446 A  
HETATM   26  C   UNK A   0     -11.708  11.876  63.380  1.00  0.00    -0.500 A  
ENDBRANCH  20  21
ENDBRANCH  19  20
ENDBRANCH  18  19
BRANCH  18  27
HETATM   27  C   UNK A   0     -12.221  13.594  70.132  1.00  0.00    -0.342 C  
HETATM   28  O   UNK A   0     -12.511  12.816  71.030  1.00  0.00    -0.376 OA 
BRANCH  27  29
HETATM   29  O   UNK A   0     -12.350  14.955  70.195  1.00  0.00    -0.316 OA 
BRANCH  29  30
HETATM   30  C   UNK A   0     -13.178  15.465  71.251  1.00  0.00    -0.510 C  
HETATM   31  C   UNK A   0     -12.334  15.969  72.408  1.00  0.00    -0.581 C  
ENDBRANCH  29  30
ENDBRANCH  27  29
ENDBRANCH  18  27
ENDBRANCH  16  18
ENDBRANCH  14  16
ENDBRANCH   7  14
TORSDOF 9
ENDMDL
MODEL       24
REMARK 921   NORMALIZED FREE ENERGY PREDICTED BY IDOCK:   -6.27 KCAL/MOL
REMARK 922        TOTAL FREE ENERGY PREDICTED BY IDOCK:  -11.20 KCAL/MOL
REMARK 923 INTER-LIGAND FREE ENERGY PREDICTED BY IDOCK:   -8.66 KCAL/MOL
REMARK 924 INTRA-LIGAND FREE ENERGY PREDICTED BY IDOCK:   -2.54 KCAL/MOL
REMARK 927      BINDING AFFINITY PREDICTED BY RF-SCORE:    0.00 PKD
ROOT
HETATM    1  C   UNK A   1      -9.113   7.028  69.957  1.00  0.00    -0.145 C  
HETATM    2  C   UNK A   1      -8.034   7.192  71.044  1.00  0.00    -0.103 C  
HETATM    3  C   UNK A   1      -7.987   8.679  71.370  1.00  0.00    -0.174 C  
HETATM    4  C   UNK A   1      -8.664   9.345  70.185  1.00  0.00    -0.245 C  
HETATM    5  C   UNK A   1      -9.805   8.396  69.827  1.00  0.00    -0.187 C  
HETATM    6  N   UNK A   1     -10.944   8.317  70.755  1.00  0.00    -0.239 N  
HETATM    7  C   UNK A   1     -11.956   9.262  70.919  1.00  0.00    -0.257 C  
HETATM    8  C   UNK A   1     -11.285   6.893  71.034  1.00  0.00    -0.282 C  
HETATM    9  C   UNK A   1     -11.354   6.438  72.505  1.00  0.00    -0.264 C  
HETATM   10  C   UNK A   1     -10.224   6.054  70.309  1.00  0.00    -0.266 C  
HETATM   11  O   UNK A   1     -12.958   8.946  71.571  1.00  0.00    -0.329 OA 
HETATM   12  O   UNK A   1     -11.088   7.420  73.399  1.00  0.00    -0.340 OA 
HETATM   13  O   UNK A   1     -11.584   5.293  72.851  1.00  0.00    -0.310 OA 
ENDROOT
BRANCH   7  14
HETATM   14  C   UNK A   1     -11.817  10.705  70.359  1.00  0.00    -0.349 C  
HETATM   15  C   UNK A   1     -12.635  11.675  71.228  1.00  0.00    -0.425 C  
BRANCH  14  16
HETATM   16  N   UNK A   1     -12.263  10.742  68.945  1.00  0.00    -0.795 NA 
HETATM   17  H   UNK A   1     -13.169  11.202  68.864  1.00  0.00     0.000 HD 
BRANCH  16  18
HETATM   18  C   UNK A   0     -11.266  11.368  68.022  1.00  0.00    -0.281 C  
BRANCH  18  19
HETATM   19  C   UNK A   0     -10.818  10.366  66.959  1.00  0.00    -0.269 C  
BRANCH  19  20
HETATM   20  C   UNK A   0      -9.332  10.459  66.579  1.00  0.00    -0.193 C  
BRANCH  20  21
HETATM   21  C   UNK A   0      -8.812   9.048  66.450  1.00  0.00    -0.172 A  
HETATM   22  C   UNK A   0      -7.463   8.765  66.702  1.00  0.00    -0.085 A  
HETATM   23  C   UNK A   0      -9.711   7.988  66.256  1.00  0.00    -0.197 A  
HETATM   24  C   UNK A   0      -7.029   7.445  66.812  1.00  0.00    -0.077 A  
HETATM   25  C   UNK A   0      -9.273   6.670  66.363  1.00  0.00    -0.180 A  
HETATM   26  C   UNK A   0      -7.939   6.399  66.657  1.00  0.00    -0.109 A  
ENDBRANCH  20  21
ENDBRANCH  19  20
ENDBRANCH  18  19
BRANCH  18  27
HETATM   27  C   UNK A   0     -11.880  12.624  67.370  1.00  0.00    -0.328 C  
HETATM   28  O   UNK A   0     -12.010  13.714  67.908  1.00  0.00    -0.358 OA 
BRANCH  27  29
HETATM   29  O   UNK A   0     -12.251  12.328  66.087  1.00  0.00    -0.647 OA 
BRANCH  29  30
HETATM   30  C   UNK A   0     -12.520  13.448  65.230  1.00  0.00    -0.483 C  
HETATM   31  C   UNK A   0     -12.034  13.179  63.817  1.00  0.00    -0.572 C  
ENDBRANCH  29  30
ENDBRANCH  27  29
ENDBRANCH  18  27
ENDBRANCH  16  18
ENDBRANCH  14  16
ENDBRANCH   7  14
TORSDOF 9
ENDMDL
MODEL       25
REMARK 921   NORMALIZED FREE ENERGY PREDICTED BY IDOCK:   -6.25 KCAL/MOL
REMARK 922        TOTAL FREE ENERGY PREDICTED BY IDOCK:  -11.16 KCAL/MOL
REMARK 923 INTER-LIGAND FREE ENERGY PREDICTED BY IDOCK:   -9.56 KCAL/MOL
REMARK 924 INTRA-LIGAND FREE ENERGY PREDICTED BY IDOCK:   -1.60 KCAL/MOL
REMARK 927      BINDING AFFINITY PREDICTED BY RF-SCORE:    0.00 PKD
ROOT
HETATM    1  C   UNK A   1     -11.669  14.520  66.538  1.00  0.00    -0.380 C  
HETATM    2  C   UNK A   1     -10.893  15.442  65.577  1.00  0.00    -0.384 C  
HETATM    3  C   UNK A   1      -9.419  15.111  65.773  1.00  0.00    -0.285 C  
HETATM    4  C   UNK A   1      -9.372  14.390  67.110  1.00  0.00    -0.226 C  
HETATM    5  C   UNK A   1     -10.637  13.537  67.118  1.00  0.00    -0.264 C  
HETATM    6  N   UNK A   1     -10.688  12.381  66.210  1.00  0.00    -0.250 N  
HETATM    7  C   UNK A   1     -10.024  11.164  66.370  1.00  0.00    -0.217 C  
HETATM    8  C   UNK A   1     -11.978  12.364  65.464  1.00  0.00    -0.391 C  
HETATM    9  C   UNK A   1     -11.925  12.290  63.925  1.00  0.00    -0.491 C  
HETATM   10  C   UNK A   1     -12.716  13.647  65.869  1.00  0.00    -0.428 C  
HETATM   11  O   UNK A   1     -10.347  10.217  65.642  1.00  0.00    -0.243 OA 
HETATM   12  O   UNK A   1     -10.670  12.246  63.418  1.00  0.00    -0.446 OA 
HETATM   13  O   UNK A   1     -12.911  12.311  63.212  1.00  0.00    -0.707 OA 
ENDROOT
BRANCH   7  14
HETATM   14  C   UNK A   1      -8.860  11.001  67.385  1.00  0.00    -0.138 C  
HETATM   15  C   UNK A   1      -7.531  10.854  66.626  1.00  0.00    -0.139 C  
BRANCH  14  16
HETATM   16  N   UNK A   1      -9.114   9.830  68.259  1.00  0.00    -0.123 NA 
HETATM   17  H   UNK A   1      -8.384   9.128  68.143  1.00  0.00     0.000 HD 
BRANCH  16  18
HETATM   18  C   UNK A   0      -9.280  10.188  69.702  1.00  0.00    -0.183 C  
BRANCH  18  19
HETATM   19  C   UNK A   0     -10.682   9.820  70.186  1.00  0.00    -0.339 C  
BRANCH  19  20
HETATM   20  C   UNK A   0     -11.816  10.616  69.524  1.00  0.00    -0.345 C  
BRANCH  20  21
HETATM   21  C   UNK A   0     -12.168  11.754  70.451  1.00  0.00    -0.416 A  
HETATM   22  C   UNK A   0     -11.812  13.070  70.125  1.00  0.00    -0.324 A  
HETATM   23  C   UNK A   0     -13.010  11.523  71.549  1.00  0.00    -0.485 A  
HETATM   24  C   UNK A   0     -12.331  14.140  70.851  1.00  0.00    -0.438 A  
HETATM   25  C   UNK A   0     -13.524  12.596  72.275  1.00  0.00    -0.541 A  
HETATM   26  C   UNK A   0     -13.199  13.902  71.916  1.00  0.00    -0.480 A  
ENDBRANCH  20  21
ENDBRANCH  19  20
ENDBRANCH  18  19
BRANCH  18  27
HETATM   27  C   UNK A   0      -8.202   9.472  70.541  1.00  0.00    -0.167 C  
HETATM   28  O   UNK A   0      -7.029   9.804  70.627  1.00  0.00    -0.155 OA 
BRANCH  27  29
HETATM   29  O   UNK A   0      -8.769   8.407  71.186  1.00  0.00    -0.133 OA 
BRANCH  29  30
HETATM   30  C   UNK A   0      -8.260   8.113  72.496  1.00  0.00    -0.159 C  
HETATM   31  C   UNK A   0      -9.391   7.978  73.500  1.00  0.00    -0.285 C  
ENDBRANCH  29  30
ENDBRANCH  27  29
ENDBRANCH  18  27
ENDBRANCH  16  18
ENDBRANCH  14  16
ENDBRANCH   7  14
TORSDOF 9
ENDMDL
MODEL       26
REMARK 921   NORMALIZED FREE ENERGY PREDICTED BY IDOCK:   -6.24 KCAL/MOL
REMARK 922        TOTAL FREE ENERGY PREDICTED BY IDOCK:  -11.15 KCAL/MOL
REMARK 923 INTER-LIGAND FREE ENERGY PREDICTED BY IDOCK:   -9.58 KCAL/MOL
REMARK 924 INTRA-LIGAND FREE ENERGY PREDICTED BY IDOCK:   -1.57 KCAL/MOL
REMARK 927      BINDING AFFINITY PREDICTED BY RF-SCORE:    0.00 PKD
ROOT
HETATM    1  C   UNK A   1     -10.620   8.152  72.744  1.00  0.00    -0.386 C  
HETATM    2  C   UNK A   1     -11.208   6.800  72.293  1.00  0.00    -0.295 C  
HETATM    3  C   UNK A   1     -11.988   7.085  71.017  1.00  0.00    -0.406 C  
HETATM    4  C   UNK A   1     -12.209   8.587  71.039  1.00  0.00    -0.190 C  
HETATM    5  C   UNK A   1     -10.907   9.147  71.606  1.00  0.00    -0.372 C  
HETATM    6  N   UNK A   1      -9.708   9.082  70.756  1.00  0.00    -0.224 N  
HETATM    7  C   UNK A   1      -9.421   9.887  69.653  1.00  0.00    -0.231 C  
HETATM    8  C   UNK A   1      -8.554   8.543  71.530  1.00  0.00    -0.181 C  
HETATM    9  C   UNK A   1      -7.795   7.333  70.952  1.00  0.00    -0.094 C  
HETATM   10  C   UNK A   1      -9.110   8.163  72.908  1.00  0.00    -0.337 C  
HETATM   11  O   UNK A   1      -8.277   9.859  69.186  1.00  0.00    -0.109 OA 
HETATM   12  O   UNK A   1      -8.283   6.888  69.770  1.00  0.00    -0.127 OA 
HETATM   13  O   UNK A   1      -6.864   6.785  71.515  1.00  0.00    -0.063 OA 
ENDROOT
BRANCH   7  14
HETATM   14  C   UNK A   1     -10.517  10.754  68.974  1.00  0.00    -0.215 C  
HETATM   15  C   UNK A   1     -10.982  10.072  67.677  1.00  0.00    -0.297 C  
BRANCH  14  16
HETATM   16  N   UNK A   1      -9.990  12.114  68.708  1.00  0.00    -0.402 NA 
HETATM   17  H   UNK A   1      -8.992  12.080  68.502  1.00  0.00     0.000 HD 
BRANCH  16  18
HETATM   18  C   UNK A   0     -10.730  12.840  67.630  1.00  0.00    -0.219 C  
BRANCH  18  19
HETATM   19  C   UNK A   0     -11.896  13.631  68.221  1.00  0.00    -0.404 C  
BRANCH  19  20
HETATM   20  C   UNK A   0     -11.496  14.650  69.299  1.00  0.00    -0.322 C  
BRANCH  20  21
HETATM   21  C   UNK A   0     -12.391  14.416  70.492  1.00  0.00    -0.413 A  
HETATM   22  C   UNK A   0     -13.227  15.438  70.961  1.00  0.00    -0.560 A  
HETATM   23  C   UNK A   0     -12.524  13.124  71.022  1.00  0.00    -0.406 A  
HETATM   24  C   UNK A   0     -14.215  15.162  71.904  1.00  0.00    -0.676 A  
HETATM   25  C   UNK A   0     -13.510  12.852  71.967  1.00  0.00    -0.568 A  
HETATM   26  C   UNK A   0     -14.366  13.865  72.394  1.00  0.00    -0.396 A  
ENDBRANCH  20  21
ENDBRANCH  19  20
ENDBRANCH  18  19
BRANCH  18  27
HETATM   27  C   UNK A   0      -9.762  13.770  66.872  1.00  0.00    -0.265 C  
HETATM   28  O   UNK A   0      -8.598  13.991  67.178  1.00  0.00    -0.205 OA 
BRANCH  27  29
HETATM   29  O   UNK A   0     -10.408  14.308  65.792  1.00  0.00    -0.299 OA 
BRANCH  29  30
HETATM   30  C   UNK A   0     -10.414  13.513  64.596  1.00  0.00    -0.421 C  
HETATM   31  C   UNK A   0     -11.834  13.230  64.139  1.00  0.00    -0.497 C  
ENDBRANCH  29  30
ENDBRANCH  27  29
ENDBRANCH  18  27
ENDBRANCH  16  18
ENDBRANCH  14  16
ENDBRANCH   7  14
TORSDOF 9
ENDMDL
MODEL       27
REMARK 921   NORMALIZED FREE ENERGY PREDICTED BY IDOCK:   -6.22 KCAL/MOL
REMARK 922        TOTAL FREE ENERGY PREDICTED BY IDOCK:  -11.13 KCAL/MOL
REMARK 923 INTER-LIGAND FREE ENERGY PREDICTED BY IDOCK:   -9.70 KCAL/MOL
REMARK 924 INTRA-LIGAND FREE ENERGY PREDICTED BY IDOCK:   -1.43 KCAL/MOL
REMARK 927      BINDING AFFINITY PREDICTED BY RF-SCORE:    0.00 PKD
ROOT
HETATM    1  C   UNK A   1      -9.230   7.090  71.821  1.00  0.00    -0.145 C  
HETATM    2  C   UNK A   1     -10.443   6.198  72.153  1.00  0.00    -0.237 C  
HETATM    3  C   UNK A   1     -11.646   7.131  72.219  1.00  0.00    -0.309 C  
HETATM    4  C   UNK A   1     -11.040   8.514  72.387  1.00  0.00    -0.397 C  
HETATM    5  C   UNK A   1      -9.796   8.485  71.503  1.00  0.00    -0.239 C  
HETATM    6  N   UNK A   1      -9.993   8.473  70.046  1.00  0.00    -0.185 N  
HETATM    7  C   UNK A   1     -10.377   9.549  69.246  1.00  0.00    -0.208 C  
HETATM    8  C   UNK A   1      -9.145   7.420  69.417  1.00  0.00    -0.139 C  
HETATM    9  C   UNK A   1      -9.832   6.386  68.503  1.00  0.00    -0.138 C  
HETATM   10  C   UNK A   1      -8.465   6.679  70.575  1.00  0.00    -0.138 C  
HETATM   11  O   UNK A   1     -10.280   9.435  68.018  1.00  0.00    -0.182 OA 
HETATM   12  O   UNK A   1     -11.169   6.563  68.376  1.00  0.00    -0.283 OA 
HETATM   13  O   UNK A   1      -9.248   5.460  67.970  1.00  0.00    -0.108 OA 
ENDROOT
BRANCH   7  14
HETATM   14  C   UNK A   1     -10.977  10.844  69.860  1.00  0.00    -0.199 C  
HETATM   15  C   UNK A   1     -12.512  10.749  69.862  1.00  0.00    -0.277 C  
BRANCH  14  16
HETATM   16  N   UNK A   1     -10.511  12.027  69.096  1.00  0.00    -0.425 NA 
HETATM   17  H   UNK A   1      -9.683  11.799  68.547  1.00  0.00     0.000 HD 
BRANCH  16  18
HETATM   18  C   UNK A   0     -11.570  12.631  68.230  1.00  0.00    -0.332 C  
BRANCH  18  19
HETATM   19  C   UNK A   0     -11.904  14.047  68.701  1.00  0.00    -0.396 C  
BRANCH  19  20
HETATM   20  C   UNK A   0     -11.074  14.534  69.898  1.00  0.00    -0.204 C  
BRANCH  20  21
HETATM   21  C   UNK A   0     -12.032  14.793  71.035  1.00  0.00    -0.389 A  
HETATM   22  C   UNK A   0     -11.580  15.386  72.221  1.00  0.00    -0.554 A  
HETATM   23  C   UNK A   0     -13.410  14.610  70.841  1.00  0.00    -0.350 A  
HETATM   24  C   UNK A   0     -12.491  15.837  73.175  1.00  0.00    -0.599 A  
HETATM   25  C   UNK A   0     -14.318  15.059  71.797  1.00  0.00    -0.674 A  
HETATM   26  C   UNK A   0     -13.860  15.687  72.953  1.00  0.00    -0.571 A  
ENDBRANCH  20  21
ENDBRANCH  19  20
ENDBRANCH  18  19
BRANCH  18  27
HETATM   27  C   UNK A   0     -11.099  12.637  66.762  1.00  0.00    -0.277 C  
HETATM   28  O   UNK A   0      -9.967  12.892  66.378  1.00  0.00    -0.255 OA 
BRANCH  27  29
HETATM   29  O   UNK A   0     -12.150  12.302  65.952  1.00  0.00    -0.609 OA 
BRANCH  29  30
HETATM   30  C   UNK A   0     -12.090  12.788  64.602  1.00  0.00    -0.423 C  
HETATM   31  C   UNK A   0     -12.632  11.755  63.629  1.00  0.00    -0.458 C  
ENDBRANCH  29  30
ENDBRANCH  27  29
ENDBRANCH  18  27
ENDBRANCH  16  18
ENDBRANCH  14  16
ENDBRANCH   7  14
TORSDOF 9
ENDMDL
MODEL       28
REMARK 921   NORMALIZED FREE ENERGY PREDICTED BY IDOCK:   -6.15 KCAL/MOL
REMARK 922        TOTAL FREE ENERGY PREDICTED BY IDOCK:  -11.02 KCAL/MOL
REMARK 923 INTER-LIGAND FREE ENERGY PREDICTED BY IDOCK:   -9.80 KCAL/MOL
REMARK 924 INTRA-LIGAND FREE ENERGY PREDICTED BY IDOCK:   -1.22 KCAL/MOL
REMARK 927      BINDING AFFINITY PREDICTED BY RF-SCORE:    0.00 PKD
ROOT
HETATM    1  C   UNK A   1      -8.232   8.507  68.238  1.00  0.00    -0.123 C  
HETATM    2  C   UNK A   1      -7.003   8.805  69.120  1.00  0.00    -0.059 C  
HETATM    3  C   UNK A   1      -7.310  10.110  69.842  1.00  0.00    -0.169 C  
HETATM    4  C   UNK A   1      -8.436  10.731  69.033  1.00  0.00    -0.137 C  
HETATM    5  C   UNK A   1      -9.302   9.541  68.627  1.00  0.00    -0.142 C  
HETATM    6  N   UNK A   1     -10.085   8.875  69.679  1.00  0.00    -0.194 N  
HETATM    7  C   UNK A   1     -11.251   9.351  70.281  1.00  0.00    -0.246 C  
HETATM    8  C   UNK A   1      -9.911   7.397  69.597  1.00  0.00    -0.182 C  
HETATM    9  C   UNK A   1      -9.459   6.648  70.867  1.00  0.00    -0.164 C  
HETATM   10  C   UNK A   1      -8.878   7.155  68.489  1.00  0.00    -0.125 C  
HETATM   11  O   UNK A   1     -11.911   8.575  70.982  1.00  0.00    -0.284 OA 
HETATM   12  O   UNK A   1      -9.268   7.450  71.941  1.00  0.00    -0.133 OA 
HETATM   13  O   UNK A   1      -9.246   5.450  70.906  1.00  0.00    -0.145 OA 
ENDROOT
BRANCH   7  14
HETATM   14  C   UNK A   1     -11.690  10.834  70.139  1.00  0.00    -0.339 C  
HETATM   15  C   UNK A   1     -12.730  11.168  71.222  1.00  0.00    -0.531 C  
BRANCH  14  16
HETATM   16  N   UNK A   1     -12.233  11.071  68.779  1.00  0.00    -0.744 NA 
HETATM   17  H   UNK A   1     -13.228  10.847  68.744  1.00  0.00     0.000 HD 
BRANCH  16  18
HETATM   18  C   UNK A   0     -11.984  12.456  68.271  1.00  0.00    -0.214 C  
BRANCH  18  19
HETATM   19  C   UNK A   0     -11.225  13.279  69.312  1.00  0.00    -0.266 C  
BRANCH  19  20
HETATM   20  C   UNK A   0     -11.604  14.767  69.350  1.00  0.00    -0.342 C  
BRANCH  20  21
HETATM   21  C   UNK A   0     -12.262  15.030  70.682  1.00  0.00    -0.381 A  
HETATM   22  C   UNK A   0     -11.562  15.691  71.700  1.00  0.00    -0.519 A  
HETATM   23  C   UNK A   0     -13.633  14.779  70.844  1.00  0.00    -0.273 A  
HETATM   24  C   UNK A   0     -12.230  16.140  72.837  1.00  0.00    -0.640 A  
HETATM   25  C   UNK A   0     -14.298  15.227  71.984  1.00  0.00    -0.689 A  
HETATM   26  C   UNK A   0     -13.601  15.921  72.970  1.00  0.00    -0.616 A  
ENDBRANCH  20  21
ENDBRANCH  19  20
ENDBRANCH  18  19
BRANCH  18  27
HETATM   27  C   UNK A   0     -11.201  12.389  66.945  1.00  0.00    -0.305 C  
HETATM   28  O   UNK A   0     -10.017  12.657  66.802  1.00  0.00    -0.225 OA 
BRANCH  27  29
HETATM   29  O   UNK A   0     -12.041  11.972  65.948  1.00  0.00    -0.546 OA 
BRANCH  29  30
HETATM   30  C   UNK A   0     -12.345  12.937  64.930  1.00  0.00    -0.475 C  
HETATM   31  C   UNK A   0     -11.772  12.512  63.590  1.00  0.00    -0.594 C  
ENDBRANCH  29  30
ENDBRANCH  27  29
ENDBRANCH  18  27
ENDBRANCH  16  18
ENDBRANCH  14  16
ENDBRANCH   7  14
TORSDOF 9
ENDMDL
MODEL       29
REMARK 921   NORMALIZED FREE ENERGY PREDICTED BY IDOCK:   -6.11 KCAL/MOL
REMARK 922        TOTAL FREE ENERGY PREDICTED BY IDOCK:  -10.96 KCAL/MOL
REMARK 923 INTER-LIGAND FREE ENERGY PREDICTED BY IDOCK:   -9.14 KCAL/MOL
REMARK 924 INTRA-LIGAND FREE ENERGY PREDICTED BY IDOCK:   -1.82 KCAL/MOL
REMARK 927      BINDING AFFINITY PREDICTED BY RF-SCORE:    0.00 PKD
ROOT
HETATM    1  C   UNK A   1     -11.757  14.573  66.421  1.00  0.00    -0.372 C  
HETATM    2  C   UNK A   1     -11.035  15.486  65.411  1.00  0.00    -0.365 C  
HETATM    3  C   UNK A   1      -9.545  15.283  65.650  1.00  0.00    -0.313 C  
HETATM    4  C   UNK A   1      -9.468  14.658  67.032  1.00  0.00    -0.249 C  
HETATM    5  C   UNK A   1     -10.665  13.713  67.080  1.00  0.00    -0.277 C  
HETATM    6  N   UNK A   1     -10.610  12.498  66.251  1.00  0.00    -0.245 N  
HETATM    7  C   UNK A   1      -9.859  11.350  66.502  1.00  0.00    -0.208 C  
HETATM    8  C   UNK A   1     -11.881  12.333  65.490  1.00  0.00    -0.359 C  
HETATM    9  C   UNK A   1     -11.793  12.162  63.961  1.00  0.00    -0.434 C  
HETATM   10  C   UNK A   1     -12.722  13.579  65.798  1.00  0.00    -0.433 C  
HETATM   11  O   UNK A   1     -10.094  10.335  65.835  1.00  0.00    -0.246 OA 
HETATM   12  O   UNK A   1     -10.529  12.182  63.475  1.00  0.00    -0.419 OA 
HETATM   13  O   UNK A   1     -12.764  12.060  63.234  1.00  0.00    -0.685 OA 
ENDROOT
BRANCH   7  14
HETATM   14  C   UNK A   1      -8.705  11.345  67.542  1.00  0.00    -0.140 C  
HETATM   15  C   UNK A   1      -7.850  10.081  67.356  1.00  0.00    -0.099 C  
BRANCH  14  16
HETATM   16  N   UNK A   1      -9.264  11.420  68.914  1.00  0.00    -0.382 NA 
HETATM   17  H   UNK A   1      -9.716  12.320  69.071  1.00  0.00     0.000 HD 
BRANCH  16  18
HETATM   18  C   UNK A   0     -10.194  10.295  69.241  1.00  0.00    -0.227 C  
BRANCH  18  19
HETATM   19  C   UNK A   0      -9.647   9.469  70.405  1.00  0.00    -0.326 C  
BRANCH  19  20
HETATM   20  C   UNK A   0     -10.107   8.004  70.421  1.00  0.00    -0.194 C  
BRANCH  20  21
HETATM   21  C   UNK A   0      -9.735   7.402  69.088  1.00  0.00    -0.165 A  
HETATM   22  C   UNK A   0      -8.442   6.906  68.871  1.00  0.00    -0.125 A  
HETATM   23  C   UNK A   0     -10.729   7.170  68.126  1.00  0.00    -0.214 A  
HETATM   24  C   UNK A   0      -8.161   6.146  67.737  1.00  0.00    -0.113 A  
HETATM   25  C   UNK A   0     -10.444   6.412  66.992  1.00  0.00    -0.349 A  
HETATM   26  C   UNK A   0      -9.167   5.887  66.807  1.00  0.00    -0.139 A  
ENDBRANCH  20  21
ENDBRANCH  19  20
ENDBRANCH  18  19
BRANCH  18  27
HETATM   27  C   UNK A   0     -11.591  10.857  69.573  1.00  0.00    -0.313 C  
HETATM   28  O   UNK A   0     -12.448  11.164  68.757  1.00  0.00    -0.468 OA 
BRANCH  27  29
HETATM   29  O   UNK A   0     -11.725  10.951  70.932  1.00  0.00    -0.306 OA 
BRANCH  29  30
HETATM   30  C   UNK A   0     -13.035  10.692  71.459  1.00  0.00    -0.461 C  
HETATM   31  C   UNK A   0     -13.146   9.263  71.960  1.00  0.00    -0.512 C  
ENDBRANCH  29  30
ENDBRANCH  27  29
ENDBRANCH  18  27
ENDBRANCH  16  18
ENDBRANCH  14  16
ENDBRANCH   7  14
TORSDOF 9
ENDMDL
MODEL       30
REMARK 921   NORMALIZED FREE ENERGY PREDICTED BY IDOCK:   -6.04 KCAL/MOL
REMARK 922        TOTAL FREE ENERGY PREDICTED BY IDOCK:  -10.84 KCAL/MOL
REMARK 923 INTER-LIGAND FREE ENERGY PREDICTED BY IDOCK:   -9.23 KCAL/MOL
REMARK 924 INTRA-LIGAND FREE ENERGY PREDICTED BY IDOCK:   -1.61 KCAL/MOL
REMARK 927      BINDING AFFINITY PREDICTED BY RF-SCORE:    0.00 PKD
ROOT
HETATM    1  C   UNK A   1      -8.762  16.277  68.003  1.00  0.00    -0.178 C  
HETATM    2  C   UNK A   1      -9.363  17.650  67.645  1.00  0.00    -0.246 C  
HETATM    3  C   UNK A   1     -10.226  17.422  66.410  1.00  0.00    -0.339 C  
HETATM    4  C   UNK A   1      -9.738  16.098  65.850  1.00  0.00    -0.374 C  
HETATM    5  C   UNK A   1      -9.454  15.252  67.088  1.00  0.00    -0.214 C  
HETATM    6  N   UNK A   1     -10.606  14.783  67.874  1.00  0.00    -0.246 N  
HETATM    7  C   UNK A   1     -11.486  13.756  67.535  1.00  0.00    -0.330 C  
HETATM    8  C   UNK A   1     -10.382  15.042  69.325  1.00  0.00    -0.246 C  
HETATM    9  C   UNK A   1     -11.461  15.828  70.096  1.00  0.00    -0.361 C  
HETATM   10  C   UNK A   1      -9.055  15.807  69.418  1.00  0.00    -0.254 C  
HETATM   11  O   UNK A   1     -12.261  13.334  68.402  1.00  0.00    -0.271 OA 
HETATM   12  O   UNK A   1     -12.519  16.202  69.338  1.00  0.00    -0.011 OA 
HETATM   13  O   UNK A   1     -11.367  16.132  71.271  1.00  0.00    -0.384 OA 
ENDROOT
BRANCH   7  14
HETATM   14  C   UNK A   1     -11.552  13.187  66.090  1.00  0.00    -0.355 C  
HETATM   15  C   UNK A   1     -12.648  13.920  65.299  1.00  0.00    -0.508 C  
BRANCH  14  16
HETATM   16  N   UNK A   1     -11.806  11.726  66.135  1.00  0.00    -0.431 NA 
HETATM   17  H   UNK A   1     -12.142  11.391  65.233  1.00  0.00     0.000 HD 
BRANCH  16  18
HETATM   18  C   UNK A   0     -10.624  10.930  66.590  1.00  0.00    -0.249 C  
BRANCH  18  19
HETATM   19  C   UNK A   0     -10.977  10.112  67.832  1.00  0.00    -0.335 C  
BRANCH  19  20
HETATM   20  C   UNK A   0     -10.191  10.496  69.095  1.00  0.00    -0.241 C  
BRANCH  20  21
HETATM   21  C   UNK A   0     -11.025  10.089  70.285  1.00  0.00    -0.377 A  
HETATM   22  C   UNK A   0     -12.141  10.849  70.660  1.00  0.00    -0.468 A  
HETATM   23  C   UNK A   0     -10.795   8.853  70.908  1.00  0.00    -0.308 A  
HETATM   24  C   UNK A   0     -13.043  10.358  71.603  1.00  0.00    -0.553 A  
HETATM   25  C   UNK A   0     -11.697   8.367  71.853  1.00  0.00    -0.398 A  
HETATM   26  C   UNK A   0     -12.827   9.110  72.186  1.00  0.00    -0.486 A  
ENDBRANCH  20  21
ENDBRANCH  19  20
ENDBRANCH  18  19
BRANCH  18  27
HETATM   27  C   UNK A   0     -10.143  10.016  65.446  1.00  0.00    -0.247 C  
HETATM   28  O   UNK A   0      -9.978  10.355  64.283  1.00  0.00    -0.335 OA 
BRANCH  27  29
HETATM   29  O   UNK A   0      -9.921   8.759  65.940  1.00  0.00    -0.213 OA 
BRANCH  29  30
HETATM   30  C   UNK A   0      -8.581   8.256  65.814  1.00  0.00    -0.161 C  
HETATM   31  C   UNK A   0      -7.955   8.034  67.179  1.00  0.00    -0.113 C  
ENDBRANCH  29  30
ENDBRANCH  27  29
ENDBRANCH  18  27
ENDBRANCH  16  18
ENDBRANCH  14  16
ENDBRANCH   7  14
TORSDOF 9
ENDMDL
MODEL       31
REMARK 921   NORMALIZED FREE ENERGY PREDICTED BY IDOCK:   -6.03 KCAL/MOL
REMARK 922        TOTAL FREE ENERGY PREDICTED BY IDOCK:  -10.83 KCAL/MOL
REMARK 923 INTER-LIGAND FREE ENERGY PREDICTED BY IDOCK:   -9.39 KCAL/MOL
REMARK 924 INTRA-LIGAND FREE ENERGY PREDICTED BY IDOCK:   -1.45 KCAL/MOL
REMARK 927      BINDING AFFINITY PREDICTED BY RF-SCORE:    0.00 PKD
ROOT
HETATM    1  C   UNK A   1     -11.205   6.553  72.017  1.00  0.00    -0.312 C  
HETATM    2  C   UNK A   1     -10.335   5.315  71.721  1.00  0.00    -0.277 C  
HETATM    3  C   UNK A   1     -10.086   5.324  70.219  1.00  0.00    -0.329 C  
HETATM    4  C   UNK A   1     -11.159   6.246  69.666  1.00  0.00    -0.479 C  
HETATM    5  C   UNK A   1     -11.267   7.357  70.707  1.00  0.00    -0.271 C  
HETATM    6  N   UNK A   1     -10.149   8.307  70.811  1.00  0.00    -0.189 N  
HETATM    7  C   UNK A   1      -9.848   9.343  69.927  1.00  0.00    -0.210 C  
HETATM    8  C   UNK A   1      -9.753   8.487  72.237  1.00  0.00    -0.310 C  
HETATM    9  C   UNK A   1      -8.275   8.264  72.612  1.00  0.00    -0.162 C  
HETATM   10  C   UNK A   1     -10.618   7.509  73.041  1.00  0.00    -0.422 C  
HETATM   11  O   UNK A   1      -9.015  10.190  70.272  1.00  0.00    -0.024 OA 
HETATM   12  O   UNK A   1      -7.485   7.920  71.567  1.00  0.00    -0.066 OA 
HETATM   13  O   UNK A   1      -7.846   8.342  73.749  1.00  0.00    -0.291 OA 
ENDROOT
BRANCH   7  14
HETATM   14  C   UNK A   1     -10.485   9.413  68.511  1.00  0.00    -0.208 C  
HETATM   15  C   UNK A   1      -9.459   9.974  67.513  1.00  0.00    -0.169 C  
BRANCH  14  16
HETATM   16  N   UNK A   1     -11.710  10.249  68.551  1.00  0.00    -0.672 NA 
HETATM   17  H   UNK A   1     -12.471   9.752  69.014  1.00  0.00     0.000 HD 
BRANCH  16  18
HETATM   18  C   UNK A   0     -11.496  11.591  69.175  1.00  0.00    -0.297 C  
BRANCH  18  19
HETATM   19  C   UNK A   0     -11.939  12.701  68.223  1.00  0.00    -0.271 C  
BRANCH  19  20
HETATM   20  C   UNK A   0     -10.832  13.231  67.299  1.00  0.00    -0.275 C  
BRANCH  20  21
HETATM   21  C   UNK A   0     -11.120  12.714  65.910  1.00  0.00    -0.323 A  
HETATM   22  C   UNK A   0     -12.438  12.645  65.439  1.00  0.00    -0.421 A  
HETATM   23  C   UNK A   0     -10.060  12.474  65.023  1.00  0.00    -0.258 A  
HETATM   24  C   UNK A   0     -12.692  12.393  64.093  1.00  0.00    -0.446 A  
HETATM   25  C   UNK A   0     -10.318  12.219  63.677  1.00  0.00    -0.463 A  
HETATM   26  C   UNK A   0     -11.630  12.196  63.210  1.00  0.00    -0.418 A  
ENDBRANCH  20  21
ENDBRANCH  19  20
ENDBRANCH  18  19
BRANCH  18  27
HETATM   27  C   UNK A   0     -12.264  11.671  70.510  1.00  0.00    -0.361 C  
HETATM   28  O   UNK A   0     -12.370  12.666  71.212  1.00  0.00    -0.257 OA 
BRANCH  27  29
HETATM   29  O   UNK A   0     -12.818  10.450  70.783  1.00  0.00    -0.358 OA 
BRANCH  29  30
HETATM   30  C   UNK A   0     -13.191  10.214  72.149  1.00  0.00    -0.362 C  
HETATM   31  C   UNK A   0     -14.081   8.989  72.265  1.00  0.00    -0.485 C  
ENDBRANCH  29  30
ENDBRANCH  27  29
ENDBRANCH  18  27
ENDBRANCH  16  18
ENDBRANCH  14  16
ENDBRANCH   7  14
TORSDOF 9
ENDMDL
MODEL       32
REMARK 921   NORMALIZED FREE ENERGY PREDICTED BY IDOCK:   -5.97 KCAL/MOL
REMARK 922        TOTAL FREE ENERGY PREDICTED BY IDOCK:  -10.75 KCAL/MOL
REMARK 923 INTER-LIGAND FREE ENERGY PREDICTED BY IDOCK:   -9.10 KCAL/MOL
REMARK 924 INTRA-LIGAND FREE ENERGY PREDICTED BY IDOCK:   -1.65 KCAL/MOL
REMARK 927      BINDING AFFINITY PREDICTED BY RF-SCORE:    0.00 PKD
ROOT
HETATM    1  C   UNK A   1      -9.109  18.567  66.107  1.00  0.00    -0.127 C  
HETATM    2  C   UNK A   1      -8.843  19.981  66.658  1.00  0.00    -0.417 C  
HETATM    3  C   UNK A   1      -9.837  20.184  67.794  1.00  0.00    -0.547 C  
HETATM    4  C   UNK A   1     -10.899  19.124  67.558  1.00  0.00    -0.512 C  
HETATM    5  C   UNK A   1     -10.112  17.910  67.071  1.00  0.00    -0.340 C  
HETATM    6  N   UNK A   1      -9.268  17.206  68.048  1.00  0.00    -0.244 N  
HETATM    7  C   UNK A   1      -9.700  16.354  69.065  1.00  0.00    -0.262 C  
HETATM    8  C   UNK A   1      -7.911  16.962  67.480  1.00  0.00    -0.170 C  
HETATM    9  C   UNK A   1      -6.690  17.444  68.287  1.00  0.00    -0.183 C  
HETATM   10  C   UNK A   1      -7.898  17.649  66.109  1.00  0.00    -0.269 C  
HETATM   11  O   UNK A   1      -8.858  15.667  69.655  1.00  0.00    -0.252 OA 
HETATM   12  O   UNK A   1      -7.005  18.053  69.455  1.00  0.00    -0.204 OA 
HETATM   13  O   UNK A   1      -5.539  17.336  67.904  1.00  0.00    -0.113 OA 
ENDROOT
BRANCH   7  14
HETATM   14  C   UNK A   1     -11.190  16.305  69.505  1.00  0.00    -0.308 C  
HETATM   15  C   UNK A   1     -11.288  15.722  70.924  1.00  0.00    -0.426 C  
BRANCH  14  16
HETATM   16  N   UNK A   1     -11.974  15.502  68.536  1.00  0.00    -0.536 NA 
HETATM   17  H   UNK A   1     -12.243  16.068  67.731  1.00  0.00     0.000 HD 
BRANCH  16  18
HETATM   18  C   UNK A   0     -11.279  14.252  68.097  1.00  0.00    -0.275 C  
BRANCH  18  19
HETATM   19  C   UNK A   0     -12.109  13.022  68.462  1.00  0.00    -0.185 C  
BRANCH  19  20
HETATM   20  C   UNK A   0     -11.429  12.063  69.450  1.00  0.00    -0.361 C  
BRANCH  20  21
HETATM   21  C   UNK A   0     -10.568  11.121  68.644  1.00  0.00    -0.222 A  
HETATM   22  C   UNK A   0      -9.400  10.579  69.198  1.00  0.00    -0.200 A  
HETATM   23  C   UNK A   0     -11.028  10.643  67.408  1.00  0.00    -0.361 A  
HETATM   24  C   UNK A   0      -8.732   9.540  68.553  1.00  0.00    -0.124 A  
HETATM   25  C   UNK A   0     -10.355   9.606  66.764  1.00  0.00    -0.292 A  
HETATM   26  C   UNK A   0      -9.221   9.044  67.344  1.00  0.00    -0.158 A  
ENDBRANCH  20  21
ENDBRANCH  19  20
ENDBRANCH  18  19
BRANCH  18  27
HETATM   27  C   UNK A   0     -11.018  14.310  66.578  1.00  0.00    -0.316 C  
HETATM   28  O   UNK A   0      -9.966  14.637  66.047  1.00  0.00    -0.284 OA 
BRANCH  27  29
HETATM   29  O   UNK A   0     -12.151  13.928  65.913  1.00  0.00    -0.384 OA 
BRANCH  29  30
HETATM   30  C   UNK A   0     -12.084  13.951  64.479  1.00  0.00    -0.443 C  
HETATM   31  C   UNK A   0     -12.087  12.542  63.913  1.00  0.00    -0.581 C  
ENDBRANCH  29  30
ENDBRANCH  27  29
ENDBRANCH  18  27
ENDBRANCH  16  18
ENDBRANCH  14  16
ENDBRANCH   7  14
TORSDOF 9
ENDMDL
MODEL       33
REMARK 921   NORMALIZED FREE ENERGY PREDICTED BY IDOCK:   -5.97 KCAL/MOL
REMARK 922        TOTAL FREE ENERGY PREDICTED BY IDOCK:  -10.74 KCAL/MOL
REMARK 923 INTER-LIGAND FREE ENERGY PREDICTED BY IDOCK:   -9.08 KCAL/MOL
REMARK 924 INTRA-LIGAND FREE ENERGY PREDICTED BY IDOCK:   -1.66 KCAL/MOL
REMARK 927      BINDING AFFINITY PREDICTED BY RF-SCORE:    0.00 PKD
ROOT
HETATM    1  C   UNK A   1      -8.044   8.357  70.070  1.00  0.00    -0.115 C  
HETATM    2  C   UNK A   1      -8.580   7.036  70.655  1.00  0.00    -0.147 C  
HETATM    3  C   UNK A   1      -9.851   7.396  71.414  1.00  0.00    -0.194 C  
HETATM    4  C   UNK A   1      -9.747   8.896  71.629  1.00  0.00    -0.379 C  
HETATM    5  C   UNK A   1      -9.128   9.416  70.335  1.00  0.00    -0.256 C  
HETATM    6  N   UNK A   1      -9.961   9.393  69.122  1.00  0.00    -0.175 N  
HETATM    7  C   UNK A   1     -11.011  10.258  68.814  1.00  0.00    -0.243 C  
HETATM    8  C   UNK A   1      -9.200   8.807  67.982  1.00  0.00    -0.139 C  
HETATM    9  C   UNK A   1      -9.833   7.627  67.219  1.00  0.00    -0.186 C  
HETATM   10  C   UNK A   1      -7.855   8.352  68.563  1.00  0.00    -0.120 C  
HETATM   11  O   UNK A   1     -11.461  10.251  67.662  1.00  0.00    -0.345 OA 
HETATM   12  O   UNK A   1     -11.046   7.252  67.690  1.00  0.00    -0.139 OA 
HETATM   13  O   UNK A   1      -9.287   7.044  66.300  1.00  0.00    -0.163 OA 
ENDROOT
BRANCH   7  14
HETATM   14  C   UNK A   1     -11.658  11.168  69.895  1.00  0.00    -0.337 C  
HETATM   15  C   UNK A   1     -12.808  10.413  70.581  1.00  0.00    -0.393 C  
BRANCH  14  16
HETATM   16  N   UNK A   1     -12.136  12.427  69.273  1.00  0.00    -0.221 NA 
HETATM   17  H   UNK A   1     -12.979  12.762  69.738  1.00  0.00     0.000 HD 
BRANCH  16  18
HETATM   18  C   UNK A   0     -11.095  13.500  69.225  1.00  0.00    -0.179 C  
BRANCH  18  19
HETATM   19  C   UNK A   0     -10.838  13.931  67.781  1.00  0.00    -0.261 C  
BRANCH  19  20
HETATM   20  C   UNK A   0     -12.079  13.907  66.876  1.00  0.00    -0.467 C  
BRANCH  20  21
HETATM   21  C   UNK A   0     -11.766  13.004  65.707  1.00  0.00    -0.427 A  
HETATM   22  C   UNK A   0     -12.741  12.739  64.737  1.00  0.00    -0.469 A  
HETATM   23  C   UNK A   0     -10.447  12.577  65.491  1.00  0.00    -0.305 A  
HETATM   24  C   UNK A   0     -12.395  12.103  63.546  1.00  0.00    -0.682 A  
HETATM   25  C   UNK A   0     -10.105  11.939  64.300  1.00  0.00    -0.325 A  
HETATM   26  C   UNK A   0     -11.072  11.718  63.323  1.00  0.00    -0.370 A  
ENDBRANCH  20  21
ENDBRANCH  19  20
ENDBRANCH  18  19
BRANCH  18  27
HETATM   27  C   UNK A   0     -11.543  14.697  70.085  1.00  0.00    -0.282 C  
HETATM   28  O   UNK A   0     -10.806  15.549  70.561  1.00  0.00    -0.316 OA 
BRANCH  27  29
HETATM   29  O   UNK A   0     -12.904  14.663  70.228  1.00  0.00    -0.316 OA 
BRANCH  29  30
HETATM   30  C   UNK A   0     -13.417  15.054  71.511  1.00  0.00    -0.436 C  
HETATM   31  C   UNK A   0     -13.662  13.841  72.391  1.00  0.00    -0.692 C  
ENDBRANCH  29  30
ENDBRANCH  27  29
ENDBRANCH  18  27
ENDBRANCH  16  18
ENDBRANCH  14  16
ENDBRANCH   7  14
TORSDOF 9
ENDMDL
MODEL       34
REMARK 921   NORMALIZED FREE ENERGY PREDICTED BY IDOCK:   -5.97 KCAL/MOL
REMARK 922        TOTAL FREE ENERGY PREDICTED BY IDOCK:  -10.74 KCAL/MOL
REMARK 923 INTER-LIGAND FREE ENERGY PREDICTED BY IDOCK:   -9.15 KCAL/MOL
REMARK 924 INTRA-LIGAND FREE ENERGY PREDICTED BY IDOCK:   -1.59 KCAL/MOL
REMARK 927      BINDING AFFINITY PREDICTED BY RF-SCORE:    0.00 PKD
ROOT
HETATM    1  C   UNK A   1      -9.657   7.678  68.715  1.00  0.00    -0.153 C  
HETATM    2  C   UNK A   1      -8.473   7.679  69.701  1.00  0.00    -0.135 C  
HETATM    3  C   UNK A   1      -8.103   9.141  69.914  1.00  0.00    -0.122 C  
HETATM    4  C   UNK A   1      -8.740   9.864  68.739  1.00  0.00    -0.132 C  
HETATM    5  C   UNK A   1     -10.073   9.148  68.540  1.00  0.00    -0.191 C  
HETATM    6  N   UNK A   1     -11.117   9.353  69.557  1.00  0.00    -0.404 N  
HETATM    7  C   UNK A   1     -11.902  10.492  69.729  1.00  0.00    -0.257 C  
HETATM    8  C   UNK A   1     -11.707   8.046  69.964  1.00  0.00     0.288 C  
HETATM    9  C   UNK A   1     -11.731   7.698  71.465  1.00  0.00    -0.281 C  
HETATM   10  C   UNK A   1     -10.902   6.971  69.222  1.00  0.00    -0.241 C  
HETATM   11  O   UNK A   1     -12.884  10.423  70.479  1.00  0.00    -0.341 OA 
HETATM   12  O   UNK A   1     -11.196   8.652  72.262  1.00  0.00    -0.353 OA 
HETATM   13  O   UNK A   1     -12.150   6.644  71.909  1.00  0.00    -0.326 OA 
ENDROOT
BRANCH   7  14
HETATM   14  C   UNK A   1     -11.532  11.844  69.058  1.00  0.00    -0.297 C  
HETATM   15  C   UNK A   1     -12.036  13.006  69.929  1.00  0.00    -0.381 C  
BRANCH  14  16
HETATM   16  N   UNK A   1     -12.111  11.903  67.693  1.00  0.00    -0.528 NA 
HETATM   17  H   UNK A   1     -13.121  11.766  67.723  1.00  0.00     0.000 HD 
BRANCH  16  18
HETATM   18  C   UNK A   0     -11.768  13.158  66.955  1.00  0.00    -0.387 C  
BRANCH  18  19
HETATM   19  C   UNK A   0     -10.267  13.217  66.669  1.00  0.00    -0.265 C  
BRANCH  19  20
HETATM   20  C   UNK A   0      -9.825  14.419  65.822  1.00  0.00    -0.330 C  
BRANCH  20  21
HETATM   21  C   UNK A   0      -9.790  15.623  66.732  1.00  0.00    -0.255 A  
HETATM   22  C   UNK A   0     -10.403  16.822  66.345  1.00  0.00    -0.309 A  
HETATM   23  C   UNK A   0      -9.304  15.492  68.042  1.00  0.00    -0.193 A  
HETATM   24  C   UNK A   0     -10.576  17.854  67.266  1.00  0.00    -0.341 A  
HETATM   25  C   UNK A   0      -9.475  16.527  68.959  1.00  0.00    -0.249 A  
HETATM   26  C   UNK A   0     -10.125  17.698  68.577  1.00  0.00    -0.375 A  
ENDBRANCH  20  21
ENDBRANCH  19  20
ENDBRANCH  18  19
BRANCH  18  27
HETATM   27  C   UNK A   0     -12.580  13.228  65.646  1.00  0.00    -0.406 C  
HETATM   28  O   UNK A   0     -13.215  14.196  65.252  1.00  0.00    -0.760 OA 
BRANCH  27  29
HETATM   29  O   UNK A   0     -12.473  12.034  64.986  1.00  0.00    -0.414 OA 
BRANCH  29  30
HETATM   30  C   UNK A   0     -12.149  12.108  63.589  1.00  0.00    -0.551 C  
HETATM   31  C   UNK A   0     -10.714  11.678  63.341  1.00  0.00    -0.460 C  
ENDBRANCH  29  30
ENDBRANCH  27  29
ENDBRANCH  18  27
ENDBRANCH  16  18
ENDBRANCH  14  16
ENDBRANCH   7  14
TORSDOF 9
ENDMDL
MODEL       35
REMARK 921   NORMALIZED FREE ENERGY PREDICTED BY IDOCK:   -5.96 KCAL/MOL
REMARK 922        TOTAL FREE ENERGY PREDICTED BY IDOCK:  -10.72 KCAL/MOL
REMARK 923 INTER-LIGAND FREE ENERGY PREDICTED BY IDOCK:   -8.79 KCAL/MOL
REMARK 924 INTRA-LIGAND FREE ENERGY PREDICTED BY IDOCK:   -1.93 KCAL/MOL
REMARK 927      BINDING AFFINITY PREDICTED BY RF-SCORE:    0.00 PKD
ROOT
HETATM    1  C   UNK A   1     -11.430  13.650  67.753  1.00  0.00    -0.351 C  
HETATM    2  C   UNK A   1     -10.444  14.830  67.633  1.00  0.00    -0.254 C  
HETATM    3  C   UNK A   1      -9.058  14.209  67.519  1.00  0.00    -0.195 C  
HETATM    4  C   UNK A   1      -9.238  12.791  68.031  1.00  0.00    -0.208 C  
HETATM    5  C   UNK A   1     -10.607  12.375  67.501  1.00  0.00    -0.219 C  
HETATM    6  N   UNK A   1     -10.738  12.139  66.055  1.00  0.00    -0.264 N  
HETATM    7  C   UNK A   1     -10.272  11.032  65.344  1.00  0.00    -0.274 C  
HETATM    8  C   UNK A   1     -11.942  12.837  65.523  1.00  0.00    -0.449 C  
HETATM    9  C   UNK A   1     -11.757  13.792  64.326  1.00  0.00    -0.395 C  
HETATM   10  C   UNK A   1     -12.524  13.630  66.700  1.00  0.00    -0.291 C  
HETATM   11  O   UNK A   1     -10.657  10.876  64.180  1.00  0.00    -0.375 OA 
HETATM   12  O   UNK A   1     -10.480  13.884  63.887  1.00  0.00     0.094 OA 
HETATM   13  O   UNK A   1     -12.659  14.445  63.836  1.00  0.00    -0.814 OA 
ENDROOT
BRANCH   7  14
HETATM   14  C   UNK A   1      -9.242  10.046  65.961  1.00  0.00    -0.162 C  
HETATM   15  C   UNK A   1      -8.020   9.932  65.035  1.00  0.00    -0.137 C  
BRANCH  14  16
HETATM   16  N   UNK A   1      -9.879   8.723  66.177  1.00  0.00    -0.396 NA 
HETATM   17  H   UNK A   1      -9.540   8.044  65.497  1.00  0.00     0.000 HD 
BRANCH  16  18
HETATM   18  C   UNK A   0      -9.715   8.205  67.571  1.00  0.00    -0.161 C  
BRANCH  18  19
HETATM   19  C   UNK A   0     -10.315   9.184  68.580  1.00  0.00    -0.233 C  
BRANCH  19  20
HETATM   20  C   UNK A   0      -9.362   9.598  69.712  1.00  0.00    -0.238 C  
BRANCH  20  21
HETATM   21  C   UNK A   0      -9.941   9.070  71.002  1.00  0.00    -0.349 A  
HETATM   22  C   UNK A   0     -11.328   8.947  71.158  1.00  0.00    -0.357 A  
HETATM   23  C   UNK A   0      -9.090   8.530  71.978  1.00  0.00    -0.317 A  
HETATM   24  C   UNK A   0     -11.856   8.251  72.244  1.00  0.00    -0.451 A  
HETATM   25  C   UNK A   0      -9.621   7.838  73.065  1.00  0.00    -0.320 A  
HETATM   26  C   UNK A   0     -10.999   7.683  73.188  1.00  0.00    -0.411 A  
ENDBRANCH  20  21
ENDBRANCH  19  20
ENDBRANCH  18  19
BRANCH  18  27
HETATM   27  C   UNK A   0     -10.378   6.818  67.689  1.00  0.00    -0.203 C  
HETATM   28  O   UNK A   0     -11.188   6.346  66.904  1.00  0.00    -0.368 OA 
BRANCH  27  29
HETATM   29  O   UNK A   0      -9.909   6.190  68.811  1.00  0.00    -0.129 OA 
BRANCH  29  30
HETATM   30  C   UNK A   0     -10.898   5.604  69.671  1.00  0.00    -0.295 C  
HETATM   31  C   UNK A   0     -10.250   4.949  70.878  1.00  0.00    -0.272 C  
ENDBRANCH  29  30
ENDBRANCH  27  29
ENDBRANCH  18  27
ENDBRANCH  16  18
ENDBRANCH  14  16
ENDBRANCH   7  14
TORSDOF 9
ENDMDL
MODEL       36
REMARK 921   NORMALIZED FREE ENERGY PREDICTED BY IDOCK:   -5.94 KCAL/MOL
REMARK 922        TOTAL FREE ENERGY PREDICTED BY IDOCK:  -10.70 KCAL/MOL
REMARK 923 INTER-LIGAND FREE ENERGY PREDICTED BY IDOCK:   -8.84 KCAL/MOL
REMARK 924 INTRA-LIGAND FREE ENERGY PREDICTED BY IDOCK:   -1.86 KCAL/MOL
REMARK 927      BINDING AFFINITY PREDICTED BY RF-SCORE:    0.00 PKD
ROOT
HETATM    1  C   UNK A   1     -11.881  12.494  65.957  1.00  0.00    -0.478 C  
HETATM    2  C   UNK A   1     -11.383  12.202  64.528  1.00  0.00    -0.393 C  
HETATM    3  C   UNK A   1     -10.457  13.355  64.161  1.00  0.00    -0.202 C  
HETATM    4  C   UNK A   1     -10.812  14.451  65.152  1.00  0.00    -0.397 C  
HETATM    5  C   UNK A   1     -11.071  13.703  66.457  1.00  0.00    -0.305 C  
HETATM    6  N   UNK A   1      -9.915  13.107  67.144  1.00  0.00    -0.233 N  
HETATM    7  C   UNK A   1      -8.940  13.783  67.878  1.00  0.00    -0.193 C  
HETATM    8  C   UNK A   1     -10.215  11.700  67.536  1.00  0.00    -0.195 C  
HETATM    9  C   UNK A   1      -9.236  10.598  67.087  1.00  0.00    -0.147 C  
HETATM   10  C   UNK A   1     -11.603  11.389  66.962  1.00  0.00    -0.135 C  
HETATM   11  O   UNK A   1      -8.166  13.121  68.579  1.00  0.00    -0.145 OA 
HETATM   12  O   UNK A   1      -8.184  11.054  66.366  1.00  0.00    -0.158 OA 
HETATM   13  O   UNK A   1      -9.400   9.413  67.314  1.00  0.00    -0.129 OA 
ENDROOT
BRANCH   7  14
HETATM   14  C   UNK A   1      -8.772  15.324  67.778  1.00  0.00    -0.165 C  
HETATM   15  C   UNK A   1      -7.395  15.653  67.178  1.00  0.00    -0.247 C  
BRANCH  14  16
HETATM   16  N   UNK A   1      -8.935  15.937  69.119  1.00  0.00    -0.244 NA 
HETATM   17  H   UNK A   1      -8.131  16.519  69.350  1.00  0.00     0.000 HD 
BRANCH  16  18
HETATM   18  C   UNK A   0     -10.208  16.707  69.271  1.00  0.00    -0.291 C  
BRANCH  18  19
HETATM   19  C   UNK A   0     -10.661  17.263  67.920  1.00  0.00    -0.384 C  
BRANCH  19  20
HETATM   20  C   UNK A   0     -10.648  18.796  67.824  1.00  0.00    -0.452 C  
BRANCH  20  21
HETATM   21  C   UNK A   0      -9.215  19.222  67.612  1.00  0.00    -0.362 A  
HETATM   22  C   UNK A   0      -8.376  19.455  68.710  1.00  0.00    -0.379 A  
HETATM   23  C   UNK A   0      -8.668  19.207  66.320  1.00  0.00    -0.304 A  
HETATM   24  C   UNK A   0      -7.004  19.619  68.525  1.00  0.00    -0.345 A  
HETATM   25  C   UNK A   0      -7.297  19.375  66.138  1.00  0.00    -0.288 A  
HETATM   26  C   UNK A   0      -6.465  19.563  67.239  1.00  0.00    -0.210 A  
ENDBRANCH  20  21
ENDBRANCH  19  20
ENDBRANCH  18  19
BRANCH  18  27
HETATM   27  C   UNK A   0     -11.293  15.800  69.884  1.00  0.00    -0.349 C  
HETATM   28  O   UNK A   0     -11.791  14.821  69.347  1.00  0.00    -0.295 OA 
BRANCH  27  29
HETATM   29  O   UNK A   0     -11.609  16.259  71.133  1.00  0.00    -0.427 OA 
BRANCH  29  30
HETATM   30  C   UNK A   0     -12.198  15.305  72.030  1.00  0.00    -0.367 C  
HETATM   31  C   UNK A   0     -13.512  15.823  72.588  1.00  0.00    -0.624 C  
ENDBRANCH  29  30
ENDBRANCH  27  29
ENDBRANCH  18  27
ENDBRANCH  16  18
ENDBRANCH  14  16
ENDBRANCH   7  14
TORSDOF 9
ENDMDL
MODEL       37
REMARK 921   NORMALIZED FREE ENERGY PREDICTED BY IDOCK:   -5.93 KCAL/MOL
REMARK 922        TOTAL FREE ENERGY PREDICTED BY IDOCK:  -10.69 KCAL/MOL
REMARK 923 INTER-LIGAND FREE ENERGY PREDICTED BY IDOCK:   -8.92 KCAL/MOL
REMARK 924 INTRA-LIGAND FREE ENERGY PREDICTED BY IDOCK:   -1.77 KCAL/MOL
REMARK 927      BINDING AFFINITY PREDICTED BY RF-SCORE:    0.00 PKD
ROOT
HETATM    1  C   UNK A   1     -11.291   6.696  71.939  1.00  0.00    -0.318 C  
HETATM    2  C   UNK A   1     -10.500   5.380  71.801  1.00  0.00    -0.288 C  
HETATM    3  C   UNK A   1     -10.203   5.221  70.315  1.00  0.00    -0.345 C  
HETATM    4  C   UNK A   1     -11.192   6.152  69.633  1.00  0.00    -0.488 C  
HETATM    5  C   UNK A   1     -11.256   7.367  70.555  1.00  0.00    -0.274 C  
HETATM    6  N   UNK A   1     -10.078   8.247  70.609  1.00  0.00    -0.190 N  
HETATM    7  C   UNK A   1      -9.678   9.166  69.639  1.00  0.00    -0.176 C  
HETATM    8  C   UNK A   1      -9.717   8.542  72.024  1.00  0.00    -0.307 C  
HETATM    9  C   UNK A   1      -8.270   8.261  72.477  1.00  0.00    -0.164 C  
HETATM   10  C   UNK A   1     -10.674   7.709  72.887  1.00  0.00    -0.428 C  
HETATM   11  O   UNK A   1      -8.799   9.986  69.932  1.00  0.00    -0.205 OA 
HETATM   12  O   UNK A   1      -7.474   7.762  71.503  1.00  0.00    -0.072 OA 
HETATM   13  O   UNK A   1      -7.874   8.425  73.617  1.00  0.00    -0.290 OA 
ENDROOT
BRANCH   7  14
HETATM   14  C   UNK A   1     -10.262   9.135  68.200  1.00  0.00    -0.207 C  
HETATM   15  C   UNK A   1      -9.215   9.668  67.208  1.00  0.00    -0.154 C  
BRANCH  14  16
HETATM   16  N   UNK A   1     -11.511   9.935  68.146  1.00  0.00    -0.577 NA 
HETATM   17  H   UNK A   1     -12.210   9.555  68.784  1.00  0.00     0.000 HD 
BRANCH  16  18
HETATM   18  C   UNK A   0     -11.296  11.393  68.401  1.00  0.00    -0.281 C  
BRANCH  18  19
HETATM   19  C   UNK A   0     -11.782  12.221  67.212  1.00  0.00    -0.394 C  
BRANCH  19  20
HETATM   20  C   UNK A   0     -10.679  13.003  66.484  1.00  0.00    -0.290 C  
BRANCH  20  21
HETATM   21  C   UNK A   0     -10.390  14.239  67.302  1.00  0.00    -0.260 A  
HETATM   22  C   UNK A   0     -11.436  15.076  67.713  1.00  0.00    -0.347 A  
HETATM   23  C   UNK A   0      -9.099  14.456  67.805  1.00  0.00    -0.192 A  
HETATM   24  C   UNK A   0     -11.206  16.079  68.653  1.00  0.00    -0.366 A  
HETATM   25  C   UNK A   0      -8.872  15.462  68.742  1.00  0.00    -0.196 A  
HETATM   26  C   UNK A   0      -9.926  16.260  69.178  1.00  0.00    -0.260 A  
ENDBRANCH  20  21
ENDBRANCH  19  20
ENDBRANCH  18  19
BRANCH  18  27
HETATM   27  C   UNK A   0     -12.026  11.806  69.695  1.00  0.00    -0.312 C  
HETATM   28  O   UNK A   0     -12.012  12.921  70.196  1.00  0.00    -0.341 OA 
BRANCH  27  29
HETATM   29  O   UNK A   0     -12.702  10.726  70.194  1.00  0.00    -0.301 OA 
BRANCH  29  30
HETATM   30  C   UNK A   0     -12.807  10.648  71.624  1.00  0.00    -0.465 C  
HETATM   31  C   UNK A   0     -13.719   9.508  72.040  1.00  0.00    -0.435 C  
ENDBRANCH  29  30
ENDBRANCH  27  29
ENDBRANCH  18  27
ENDBRANCH  16  18
ENDBRANCH  14  16
ENDBRANCH   7  14
TORSDOF 9
ENDMDL
MODEL       38
REMARK 921   NORMALIZED FREE ENERGY PREDICTED BY IDOCK:   -5.93 KCAL/MOL
REMARK 922        TOTAL FREE ENERGY PREDICTED BY IDOCK:  -10.68 KCAL/MOL
REMARK 923 INTER-LIGAND FREE ENERGY PREDICTED BY IDOCK:   -9.24 KCAL/MOL
REMARK 924 INTRA-LIGAND FREE ENERGY PREDICTED BY IDOCK:   -1.44 KCAL/MOL
REMARK 927      BINDING AFFINITY PREDICTED BY RF-SCORE:    0.00 PKD
ROOT
HETATM    1  C   UNK A   1     -11.208   6.436  69.107  1.00  0.00    -0.421 C  
HETATM    2  C   UNK A   1     -10.344   5.368  68.408  1.00  0.00    -0.216 C  
HETATM    3  C   UNK A   1      -9.336   6.132  67.560  1.00  0.00    -0.113 C  
HETATM    4  C   UNK A   1      -9.929   7.524  67.433  1.00  0.00    -0.246 C  
HETATM    5  C   UNK A   1     -10.547   7.791  68.804  1.00  0.00    -0.135 C  
HETATM    6  N   UNK A   1      -9.631   8.009  69.935  1.00  0.00    -0.171 N  
HETATM    7  C   UNK A   1      -8.883   9.157  70.193  1.00  0.00    -0.197 C  
HETATM    8  C   UNK A   1     -10.049   7.185  71.105  1.00  0.00    -0.187 C  
HETATM    9  C   UNK A   1      -9.001   6.254  71.746  1.00  0.00    -0.140 C  
HETATM   10  C   UNK A   1     -11.233   6.337  70.623  1.00  0.00    -0.401 C  
HETATM   11  O   UNK A   1      -8.340   9.270  71.299  1.00  0.00    -0.317 OA 
HETATM   12  O   UNK A   1      -7.786   6.296  71.150  1.00  0.00    -0.106 OA 
HETATM   13  O   UNK A   1      -9.239   5.507  72.678  1.00  0.00    -0.138 OA 
ENDROOT
BRANCH   7  14
HETATM   14  C   UNK A   1      -8.669  10.249  69.109  1.00  0.00    -0.172 C  
HETATM   15  C   UNK A   1      -7.249  10.826  69.232  1.00  0.00    -0.122 C  
BRANCH  14  16
HETATM   16  N   UNK A   1      -9.696  11.310  69.253  1.00  0.00    -0.413 NA 
HETATM   17  H   UNK A   1      -9.280  12.233  69.131  1.00  0.00     0.000 HD 
BRANCH  16  18
HETATM   18  C   UNK A   0     -10.868  11.132  68.341  1.00  0.00    -0.205 C  
BRANCH  18  19
HETATM   19  C   UNK A   0     -12.177  11.283  69.117  1.00  0.00    -0.251 C  
BRANCH  19  20
HETATM   20  C   UNK A   0     -12.006  11.414  70.638  1.00  0.00    -0.413 C  
BRANCH  20  21
HETATM   21  C   UNK A   0     -12.526  12.775  71.033  1.00  0.00    -0.369 A  
HETATM   22  C   UNK A   0     -12.232  13.900  70.251  1.00  0.00    -0.428 A  
HETATM   23  C   UNK A   0     -13.453  12.889  72.080  1.00  0.00    -0.619 A  
HETATM   24  C   UNK A   0     -12.893  15.106  70.476  1.00  0.00    -0.395 A  
HETATM   25  C   UNK A   0     -14.109  14.098  72.305  1.00  0.00    -0.630 A  
HETATM   26  C   UNK A   0     -13.843  15.198  71.494  1.00  0.00    -0.597 A  
ENDBRANCH  20  21
ENDBRANCH  19  20
ENDBRANCH  18  19
BRANCH  18  27
HETATM   27  C   UNK A   0     -10.790  12.153  67.189  1.00  0.00    -0.244 C  
HETATM   28  O   UNK A   0      -9.768  12.681  66.773  1.00  0.00    -0.227 OA 
BRANCH  27  29
HETATM   29  O   UNK A   0     -12.047  12.372  66.696  1.00  0.00    -0.592 OA 
BRANCH  29  30
HETATM   30  C   UNK A   0     -12.128  12.777  65.321  1.00  0.00    -0.457 C  
HETATM   31  C   UNK A   0     -12.864  14.099  65.187  1.00  0.00    -0.321 C  
ENDBRANCH  29  30
ENDBRANCH  27  29
ENDBRANCH  18  27
ENDBRANCH  16  18
ENDBRANCH  14  16
ENDBRANCH   7  14
TORSDOF 9
ENDMDL
MODEL       39
REMARK 921   NORMALIZED FREE ENERGY PREDICTED BY IDOCK:   -5.91 KCAL/MOL
REMARK 922        TOTAL FREE ENERGY PREDICTED BY IDOCK:  -10.65 KCAL/MOL
REMARK 923 INTER-LIGAND FREE ENERGY PREDICTED BY IDOCK:   -9.07 KCAL/MOL
REMARK 924 INTRA-LIGAND FREE ENERGY PREDICTED BY IDOCK:   -1.58 KCAL/MOL
REMARK 927      BINDING AFFINITY PREDICTED BY RF-SCORE:    0.00 PKD
ROOT
HETATM    1  C   UNK A   1      -9.564   7.540  66.687  1.00  0.00    -0.263 C  
HETATM    2  C   UNK A   1      -8.031   7.449  66.820  1.00  0.00    -0.115 C  
HETATM    3  C   UNK A   1      -7.667   8.261  68.056  1.00  0.00    -0.107 C  
HETATM    4  C   UNK A   1      -8.883   9.137  68.302  1.00  0.00    -0.129 C  
HETATM    5  C   UNK A   1     -10.066   8.234  67.965  1.00  0.00    -0.198 C  
HETATM    6  N   UNK A   1     -10.364   7.126  68.887  1.00  0.00    -0.191 N  
HETATM    7  C   UNK A   1     -10.962   7.222  70.143  1.00  0.00    -0.260 C  
HETATM    8  C   UNK A   1     -10.568   5.860  68.125  1.00  0.00    -0.244 C  
HETATM    9  C   UNK A   1      -9.729   4.630  68.525  1.00  0.00    -0.142 C  
HETATM   10  C   UNK A   1     -10.278   6.199  66.658  1.00  0.00    -0.237 C  
HETATM   11  O   UNK A   1     -11.348   6.183  70.693  1.00  0.00    -0.325 OA 
HETATM   12  O   UNK A   1      -8.877   4.854  69.554  1.00  0.00    -0.088 OA 
HETATM   13  O   UNK A   1      -9.781   3.559  67.949  1.00  0.00    -0.157 OA 
ENDROOT
BRANCH   7  14
HETATM   14  C   UNK A   1     -11.090   8.584  70.879  1.00  0.00    -0.255 C  
HETATM   15  C   UNK A   1     -11.415   8.339  72.362  1.00  0.00    -0.463 C  
BRANCH  14  16
HETATM   16  N   UNK A   1     -12.136   9.412  70.229  1.00  0.00    -0.465 NA 
HETATM   17  H   UNK A   1     -13.032   9.299  70.702  1.00  0.00     0.000 HD 
BRANCH  16  18
HETATM   18  C   UNK A   0     -11.770  10.858  70.124  1.00  0.00    -0.347 C  
BRANCH  18  19
HETATM   19  C   UNK A   0     -11.959  11.355  68.691  1.00  0.00    -0.317 C  
BRANCH  19  20
HETATM   20  C   UNK A   0     -10.713  12.004  68.070  1.00  0.00    -0.244 C  
BRANCH  20  21
HETATM   21  C   UNK A   0     -10.920  12.035  66.575  1.00  0.00    -0.337 A  
HETATM   22  C   UNK A   0     -10.094  11.280  65.731  1.00  0.00    -0.294 A  
HETATM   23  C   UNK A   0     -12.049  12.672  66.041  1.00  0.00    -0.429 A  
HETATM   24  C   UNK A   0     -10.421  11.121  64.385  1.00  0.00    -0.418 A  
HETATM   25  C   UNK A   0     -12.372  12.514  64.694  1.00  0.00    -0.547 A  
HETATM   26  C   UNK A   0     -11.569  11.726  63.873  1.00  0.00    -0.469 A  
ENDBRANCH  20  21
ENDBRANCH  19  20
ENDBRANCH  18  19
BRANCH  18  27
HETATM   27  C   UNK A   0     -12.623  11.682  71.110  1.00  0.00    -0.335 C  
HETATM   28  O   UNK A   0     -13.292  11.226  72.026  1.00  0.00    -0.462 OA 
BRANCH  27  29
HETATM   29  O   UNK A   0     -12.508  13.010  70.802  1.00  0.00    -0.354 OA 
BRANCH  29  30
HETATM   30  C   UNK A   0     -12.794  13.934  71.863  1.00  0.00    -0.322 C  
HETATM   31  C   UNK A   0     -13.678  15.067  71.373  1.00  0.00    -0.552 C  
ENDBRANCH  29  30
ENDBRANCH  27  29
ENDBRANCH  18  27
ENDBRANCH  16  18
ENDBRANCH  14  16
ENDBRANCH   7  14
TORSDOF 9
ENDMDL
MODEL       40
REMARK 921   NORMALIZED FREE ENERGY PREDICTED BY IDOCK:   -5.88 KCAL/MOL
REMARK 922        TOTAL FREE ENERGY PREDICTED BY IDOCK:  -10.61 KCAL/MOL
REMARK 923 INTER-LIGAND FREE ENERGY PREDICTED BY IDOCK:   -9.04 KCAL/MOL
REMARK 924 INTRA-LIGAND FREE ENERGY PREDICTED BY IDOCK:   -1.57 KCAL/MOL
REMARK 927      BINDING AFFINITY PREDICTED BY RF-SCORE:    0.00 PKD
ROOT
HETATM    1  C   UNK A   1     -10.612   6.582  68.981  1.00  0.00    -0.286 C  
HETATM    2  C   UNK A   1      -9.109   6.353  69.235  1.00  0.00    -0.136 C  
HETATM    3  C   UNK A   1      -8.394   7.561  68.643  1.00  0.00    -0.129 C  
HETATM    4  C   UNK A   1      -9.414   8.176  67.699  1.00  0.00    -0.172 C  
HETATM    5  C   UNK A   1     -10.743   8.012  68.430  1.00  0.00    -0.016 C  
HETATM    6  N   UNK A   1     -10.974   8.841  69.624  1.00  0.00    -0.396 N  
HETATM    7  C   UNK A   1     -11.277  10.202  69.649  1.00  0.00    -0.261 C  
HETATM    8  C   UNK A   1     -11.489   8.003  70.744  1.00  0.00    -0.263 C  
HETATM    9  C   UNK A   1     -10.742   8.057  72.092  1.00  0.00    -0.276 C  
HETATM   10  C   UNK A   1     -11.475   6.558  70.231  1.00  0.00    -0.474 C  
HETATM   11  O   UNK A   1     -11.663  10.700  70.713  1.00  0.00    -0.328 OA 
HETATM   12  O   UNK A   1      -9.671   8.886  72.097  1.00  0.00    -0.306 OA 
HETATM   13  O   UNK A   1     -11.047   7.387  73.062  1.00  0.00    -0.342 OA 
ENDROOT
BRANCH   7  14
HETATM   14  C   UNK A   1     -11.077  11.102  68.398  1.00  0.00    -0.247 C  
HETATM   15  C   UNK A   1      -9.666  11.711  68.422  1.00  0.00    -0.199 C  
BRANCH  14  16
HETATM   16  N   UNK A   1     -12.119  12.158  68.366  1.00  0.00    -0.356 NA 
HETATM   17  H   UNK A   1     -12.681  12.136  69.216  1.00  0.00     0.000 HD 
BRANCH  16  18
HETATM   18  C   UNK A   0     -11.571  13.529  68.129  1.00  0.00    -0.333 C  
BRANCH  18  19
HETATM   19  C   UNK A   0     -12.006  14.050  66.759  1.00  0.00    -0.473 C  
BRANCH  19  20
HETATM   20  C   UNK A   0     -10.862  14.225  65.749  1.00  0.00    -0.303 C  
BRANCH  20  21
HETATM   21  C   UNK A   0     -10.035  15.402  66.207  1.00  0.00    -0.308 A  
HETATM   22  C   UNK A   0      -8.705  15.220  66.609  1.00  0.00    -0.327 A  
HETATM   23  C   UNK A   0     -10.534  16.705  66.057  1.00  0.00    -0.306 A  
HETATM   24  C   UNK A   0      -7.873  16.319  66.808  1.00  0.00    -0.300 A  
HETATM   25  C   UNK A   0      -9.700  17.802  66.260  1.00  0.00    -0.277 A  
HETATM   26  C   UNK A   0      -8.368  17.609  66.618  1.00  0.00    -0.288 A  
ENDBRANCH  20  21
ENDBRANCH  19  20
ENDBRANCH  18  19
BRANCH  18  27
HETATM   27  C   UNK A   0     -12.038  14.476  69.252  1.00  0.00    -0.290 C  
HETATM   28  O   UNK A   0     -11.919  15.693  69.253  1.00  0.00    -0.365 OA 
BRANCH  27  29
HETATM   29  O   UNK A   0     -12.617  13.739  70.249  1.00  0.00    -0.301 OA 
BRANCH  29  30
HETATM   30  C   UNK A   0     -13.535  14.439  71.103  1.00  0.00    -0.306 C  
HETATM   31  C   UNK A   0     -13.508  13.870  72.511  1.00  0.00    -0.676 C  
ENDBRANCH  29  30
ENDBRANCH  27  29
ENDBRANCH  18  27
ENDBRANCH  16  18
ENDBRANCH  14  16
ENDBRANCH   7  14
TORSDOF 9
ENDMDL
MODEL       41
REMARK 921   NORMALIZED FREE ENERGY PREDICTED BY IDOCK:   -5.85 KCAL/MOL
REMARK 922        TOTAL FREE ENERGY PREDICTED BY IDOCK:  -10.56 KCAL/MOL
REMARK 923 INTER-LIGAND FREE ENERGY PREDICTED BY IDOCK:   -9.20 KCAL/MOL
REMARK 924 INTRA-LIGAND FREE ENERGY PREDICTED BY IDOCK:   -1.37 KCAL/MOL
REMARK 927      BINDING AFFINITY PREDICTED BY RF-SCORE:    0.00 PKD
ROOT
HETATM    1  C   UNK A   1      -9.181  10.167  69.370  1.00  0.00    -0.229 C  
HETATM    2  C   UNK A   1      -9.240   8.902  68.492  1.00  0.00    -0.137 C  
HETATM    3  C   UNK A   1     -10.533   9.003  67.694  1.00  0.00    -0.324 C  
HETATM    4  C   UNK A   1     -11.362  10.028  68.449  1.00  0.00    -0.117 C  
HETATM    5  C   UNK A   1     -10.341  11.066  68.908  1.00  0.00    -0.205 C  
HETATM    6  N   UNK A   1      -9.741  11.934  67.883  1.00  0.00    -0.186 N  
HETATM    7  C   UNK A   1     -10.351  13.010  67.238  1.00  0.00    -0.238 C  
HETATM    8  C   UNK A   1      -8.261  11.986  68.050  1.00  0.00    -0.156 C  
HETATM    9  C   UNK A   1      -7.381  11.644  66.831  1.00  0.00    -0.125 C  
HETATM   10  C   UNK A   1      -7.930  11.008  69.185  1.00  0.00    -0.081 C  
HETATM   11  O   UNK A   1      -9.644  13.775  66.572  1.00  0.00    -0.274 OA 
HETATM   12  O   UNK A   1      -8.082  11.327  65.716  1.00  0.00    -0.045 OA 
HETATM   13  O   UNK A   1      -6.164  11.613  66.861  1.00  0.00    -0.135 OA 
ENDROOT
BRANCH   7  14
HETATM   14  C   UNK A   1     -11.890  13.222  67.290  1.00  0.00    -0.372 C  
HETATM   15  C   UNK A   1     -12.435  13.385  65.862  1.00  0.00    -0.468 C  
BRANCH  14  16
HETATM   16  N   UNK A   1     -12.208  14.405  68.127  1.00  0.00    -0.590 NA 
HETATM   17  H   UNK A   1     -13.165  14.355  68.474  1.00  0.00     0.000 HD 
BRANCH  16  18
HETATM   18  C   UNK A   0     -11.246  14.613  69.253  1.00  0.00    -0.282 C  
BRANCH  18  19
HETATM   19  C   UNK A   0     -10.691  16.038  69.226  1.00  0.00    -0.275 C  
BRANCH  19  20
HETATM   20  C   UNK A   0     -11.016  16.826  67.949  1.00  0.00    -0.260 C  
BRANCH  20  21
HETATM   21  C   UNK A   0     -10.117  18.038  67.926  1.00  0.00    -0.360 A  
HETATM   22  C   UNK A   0      -8.771  17.928  68.302  1.00  0.00    -0.277 A  
HETATM   23  C   UNK A   0     -10.575  19.235  67.357  1.00  0.00    -0.594 A  
HETATM   24  C   UNK A   0      -7.886  18.978  68.064  1.00  0.00    -0.319 A  
HETATM   25  C   UNK A   0      -9.689  20.285  67.124  1.00  0.00    -0.592 A  
HETATM   26  C   UNK A   0      -8.344  20.149  67.461  1.00  0.00    -0.383 A  
ENDBRANCH  20  21
ENDBRANCH  19  20
ENDBRANCH  18  19
BRANCH  18  27
HETATM   27  C   UNK A   0     -11.947  14.321  70.595  1.00  0.00    -0.322 C  
HETATM   28  O   UNK A   0     -12.515  13.279  70.890  1.00  0.00    -0.362 OA 
BRANCH  27  29
HETATM   29  O   UNK A   0     -11.827  15.413  71.411  1.00  0.00    -0.311 OA 
BRANCH  29  30
HETATM   30  C   UNK A   0     -12.887  15.616  72.359  1.00  0.00    -0.433 C  
HETATM   31  C   UNK A   0     -12.412  15.330  73.773  1.00  0.00    -0.746 C  
ENDBRANCH  29  30
ENDBRANCH  27  29
ENDBRANCH  18  27
ENDBRANCH  16  18
ENDBRANCH  14  16
ENDBRANCH   7  14
TORSDOF 9
ENDMDL
MODEL       42
REMARK 921   NORMALIZED FREE ENERGY PREDICTED BY IDOCK:   -5.84 KCAL/MOL
REMARK 922        TOTAL FREE ENERGY PREDICTED BY IDOCK:  -10.54 KCAL/MOL
REMARK 923 INTER-LIGAND FREE ENERGY PREDICTED BY IDOCK:   -8.76 KCAL/MOL
REMARK 924 INTRA-LIGAND FREE ENERGY PREDICTED BY IDOCK:   -1.79 KCAL/MOL
REMARK 927      BINDING AFFINITY PREDICTED BY RF-SCORE:    0.00 PKD
ROOT
HETATM    1  C   UNK A   1     -10.394   5.524  70.202  1.00  0.00    -0.354 C  
HETATM    2  C   UNK A   1      -8.872   5.316  70.331  1.00  0.00    -0.146 C  
HETATM    3  C   UNK A   1      -8.225   6.416  69.500  1.00  0.00    -0.118 C  
HETATM    4  C   UNK A   1      -9.337   6.899  68.586  1.00  0.00    -0.135 C  
HETATM    5  C   UNK A   1     -10.585   6.860  69.464  1.00  0.00    -0.236 C  
HETATM    6  N   UNK A   1     -10.693   7.857  70.541  1.00  0.00    -0.228 N  
HETATM    7  C   UNK A   1     -10.996   9.211  70.399  1.00  0.00    -0.248 C  
HETATM    8  C   UNK A   1     -11.089   7.197  71.819  1.00  0.00    -0.236 C  
HETATM    9  C   UNK A   1     -10.208   7.437  73.061  1.00  0.00    -0.286 C  
HETATM   10  C   UNK A   1     -11.124   5.692  71.523  1.00  0.00    -0.235 C  
HETATM   11  O   UNK A   1     -11.271   9.863  71.413  1.00  0.00    -0.348 OA 
HETATM   12  O   UNK A   1      -9.144   8.244  72.836  1.00  0.00    -0.247 OA 
HETATM   13  O   UNK A   1     -10.410   6.919  74.144  1.00  0.00    -0.373 OA 
ENDROOT
BRANCH   7  14
HETATM   14  C   UNK A   1     -10.928   9.917  69.017  1.00  0.00    -0.190 C  
HETATM   15  C   UNK A   1      -9.565  10.611  68.859  1.00  0.00    -0.204 C  
BRANCH  14  16
HETATM   16  N   UNK A   1     -12.043  10.887  68.891  1.00  0.00    -0.725 NA 
HETATM   17  H   UNK A   1     -12.667  10.825  69.695  1.00  0.00     0.000 HD 
BRANCH  16  18
HETATM   18  C   UNK A   0     -11.587  12.296  68.682  1.00  0.00    -0.323 C  
BRANCH  18  19
HETATM   19  C   UNK A   0     -12.128  12.843  67.361  1.00  0.00    -0.258 C  
BRANCH  19  20
HETATM   20  C   UNK A   0     -11.175  12.687  66.167  1.00  0.00    -0.350 C  
BRANCH  20  21
HETATM   21  C   UNK A   0     -10.453  14.002  65.994  1.00  0.00    -0.307 A  
HETATM   22  C   UNK A   0     -11.069  15.064  65.319  1.00  0.00    -0.391 A  
HETATM   23  C   UNK A   0      -9.241  14.225  66.663  1.00  0.00    -0.276 A  
HETATM   24  C   UNK A   0     -10.511  16.340  65.356  1.00  0.00    -0.365 A  
HETATM   25  C   UNK A   0      -8.683  15.501  66.696  1.00  0.00    -0.326 A  
HETATM   26  C   UNK A   0      -9.326  16.560  66.060  1.00  0.00    -0.302 A  
ENDBRANCH  20  21
ENDBRANCH  19  20
ENDBRANCH  18  19
BRANCH  18  27
HETATM   27  C   UNK A   0     -12.043  13.170  69.867  1.00  0.00    -0.287 C  
HETATM   28  O   UNK A   0     -12.419  12.756  70.955  1.00  0.00    -0.376 OA 
BRANCH  27  29
HETATM   29  O   UNK A   0     -11.952  14.489  69.514  1.00  0.00    -0.292 OA 
BRANCH  29  30
HETATM   30  C   UNK A   0     -11.002  15.278  70.246  1.00  0.00    -0.289 C  
HETATM   31  C   UNK A   0     -10.729  16.593  69.538  1.00  0.00    -0.306 C  
ENDBRANCH  29  30
ENDBRANCH  27  29
ENDBRANCH  18  27
ENDBRANCH  16  18
ENDBRANCH  14  16
ENDBRANCH   7  14
TORSDOF 9
ENDMDL
MODEL       43
REMARK 921   NORMALIZED FREE ENERGY PREDICTED BY IDOCK:   -5.83 KCAL/MOL
REMARK 922        TOTAL FREE ENERGY PREDICTED BY IDOCK:  -10.53 KCAL/MOL
REMARK 923 INTER-LIGAND FREE ENERGY PREDICTED BY IDOCK:   -9.11 KCAL/MOL
REMARK 924 INTRA-LIGAND FREE ENERGY PREDICTED BY IDOCK:   -1.43 KCAL/MOL
REMARK 927      BINDING AFFINITY PREDICTED BY RF-SCORE:    0.00 PKD
ROOT
HETATM    1  C   UNK A   1      -7.492  18.081  68.357  1.00  0.00    -0.281 C  
HETATM    2  C   UNK A   1      -6.834  18.585  67.058  1.00  0.00    -0.209 C  
HETATM    3  C   UNK A   1      -6.571  17.346  66.211  1.00  0.00    -0.279 C  
HETATM    4  C   UNK A   1      -6.644  16.194  67.199  1.00  0.00    -0.208 C  
HETATM    5  C   UNK A   1      -7.777  16.585  68.143  1.00  0.00    -0.166 C  
HETATM    6  N   UNK A   1      -9.150  16.550  67.614  1.00  0.00    -0.198 N  
HETATM    7  C   UNK A   1      -9.921  15.414  67.369  1.00  0.00    -0.229 C  
HETATM    8  C   UNK A   1      -9.872  17.805  67.966  1.00  0.00    -0.317 C  
HETATM    9  C   UNK A   1     -10.532  18.605  66.825  1.00  0.00    -0.408 C  
HETATM   10  C   UNK A   1      -8.843  18.703  68.665  1.00  0.00    -0.333 C  
HETATM   11  O   UNK A   1     -11.128  15.559  67.140  1.00  0.00    -0.317 OA 
HETATM   12  O   UNK A   1     -10.371  18.053  65.599  1.00  0.00    -0.611 OA 
HETATM   13  O   UNK A   1     -11.112  19.663  66.987  1.00  0.00    -0.412 OA 
ENDROOT
BRANCH   7  14
HETATM   14  C   UNK A   1      -9.285  13.997  67.312  1.00  0.00    -0.230 C  
HETATM   15  C   UNK A   1      -9.851  13.227  66.108  1.00  0.00    -0.286 C  
BRANCH  14  16
HETATM   16  N   UNK A   1      -9.546  13.277  68.583  1.00  0.00    -0.404 NA 
HETATM   17  H   UNK A   1      -9.897  13.918  69.295  1.00  0.00     0.000 HD 
BRANCH  16  18
HETATM   18  C   UNK A   0     -10.462  12.105  68.426  1.00  0.00    -0.231 C  
BRANCH  18  19
HETATM   19  C   UNK A   0      -9.748  10.813  68.824  1.00  0.00    -0.197 C  
BRANCH  19  20
HETATM   20  C   UNK A   0      -9.319   9.931  67.642  1.00  0.00    -0.156 C  
BRANCH  20  21
HETATM   21  C   UNK A   0      -9.792   8.527  67.933  1.00  0.00    -0.208 A  
HETATM   22  C   UNK A   0      -9.892   8.073  69.255  1.00  0.00    -0.178 A  
HETATM   23  C   UNK A   0     -10.305   7.735  66.895  1.00  0.00    -0.396 A  
HETATM   24  C   UNK A   0     -10.541   6.874  69.541  1.00  0.00    -0.261 A  
HETATM   25  C   UNK A   0     -10.950   6.534  67.184  1.00  0.00    -0.480 A  
HETATM   26  C   UNK A   0     -11.084   6.114  68.504  1.00  0.00    -0.352 A  
ENDBRANCH  20  21
ENDBRANCH  19  20
ENDBRANCH  18  19
BRANCH  18  27
HETATM   27  C   UNK A   0     -11.729  12.319  69.278  1.00  0.00    -0.330 C  
HETATM   28  O   UNK A   0     -12.199  13.402  69.597  1.00  0.00    -0.291 OA 
BRANCH  27  29
HETATM   29  O   UNK A   0     -12.253  11.101  69.617  1.00  0.00    -0.320 OA 
BRANCH  29  30
HETATM   30  C   UNK A   0     -12.434  10.856  71.020  1.00  0.00    -0.411 C  
HETATM   31  C   UNK A   0     -13.001   9.469  71.261  1.00  0.00    -0.407 C  
ENDBRANCH  29  30
ENDBRANCH  27  29
ENDBRANCH  18  27
ENDBRANCH  16  18
ENDBRANCH  14  16
ENDBRANCH   7  14
TORSDOF 9
ENDMDL
MODEL       44
REMARK 921   NORMALIZED FREE ENERGY PREDICTED BY IDOCK:   -5.83 KCAL/MOL
REMARK 922        TOTAL FREE ENERGY PREDICTED BY IDOCK:  -10.53 KCAL/MOL
REMARK 923 INTER-LIGAND FREE ENERGY PREDICTED BY IDOCK:   -8.92 KCAL/MOL
REMARK 924 INTRA-LIGAND FREE ENERGY PREDICTED BY IDOCK:   -1.61 KCAL/MOL
REMARK 927      BINDING AFFINITY PREDICTED BY RF-SCORE:    0.00 PKD
ROOT
HETATM    1  C   UNK A   1     -10.975   7.778  72.974  1.00  0.00    -0.442 C  
HETATM    2  C   UNK A   1     -11.468   6.429  72.415  1.00  0.00    -0.320 C  
HETATM    3  C   UNK A   1     -12.124   6.742  71.077  1.00  0.00    -0.426 C  
HETATM    4  C   UNK A   1     -12.396   8.235  71.132  1.00  0.00    -0.224 C  
HETATM    5  C   UNK A   1     -11.178   8.809  71.850  1.00  0.00    -0.368 C  
HETATM    6  N   UNK A   1      -9.897   8.813  71.126  1.00  0.00    -0.220 N  
HETATM    7  C   UNK A   1      -9.527   9.671  70.090  1.00  0.00    -0.253 C  
HETATM    8  C   UNK A   1      -8.810   8.278  71.994  1.00  0.00    -0.193 C  
HETATM    9  C   UNK A   1      -7.956   7.115  71.451  1.00  0.00    -0.102 C  
HETATM   10  C   UNK A   1      -9.490   7.826  73.292  1.00  0.00    -0.344 C  
HETATM   11  O   UNK A   1      -8.341   9.696  69.741  1.00  0.00    -0.138 OA 
HETATM   12  O   UNK A   1      -8.308   6.704  70.210  1.00  0.00    -0.130 OA 
HETATM   13  O   UNK A   1      -7.070   6.572  72.086  1.00  0.00    -0.078 OA 
ENDROOT
BRANCH   7  14
HETATM   14  C   UNK A   1     -10.577  10.532  69.334  1.00  0.00    -0.240 C  
HETATM   15  C   UNK A   1     -11.138   9.735  68.146  1.00  0.00    -0.169 C  
BRANCH  14  16
HETATM   16  N   UNK A   1      -9.956  11.803  68.886  1.00  0.00    -0.398 NA 
HETATM   17  H   UNK A   1      -8.973  11.662  68.654  1.00  0.00     0.000 HD 
BRANCH  16  18
HETATM   18  C   UNK A   0     -10.681  12.451  67.749  1.00  0.00    -0.221 C  
BRANCH  18  19
HETATM   19  C   UNK A   0     -11.704  13.459  68.273  1.00  0.00    -0.391 C  
BRANCH  19  20
HETATM   20  C   UNK A   0     -11.152  14.450  69.308  1.00  0.00    -0.300 C  
BRANCH  20  21
HETATM   21  C   UNK A   0     -12.089  14.434  70.492  1.00  0.00    -0.404 A  
HETATM   22  C   UNK A   0     -12.685  15.620  70.939  1.00  0.00    -0.500 A  
HETATM   23  C   UNK A   0     -12.508  13.209  71.031  1.00  0.00    -0.406 A  
HETATM   24  C   UNK A   0     -13.720  15.580  71.872  1.00  0.00    -0.593 A  
HETATM   25  C   UNK A   0     -13.540  13.172  71.967  1.00  0.00    -0.554 A  
HETATM   26  C   UNK A   0     -14.157  14.353  72.373  1.00  0.00    -0.544 A  
ENDBRANCH  20  21
ENDBRANCH  19  20
ENDBRANCH  18  19
BRANCH  18  27
HETATM   27  C   UNK A   0      -9.668  13.133  66.809  1.00  0.00    -0.246 C  
HETATM   28  O   UNK A   0      -9.947  13.880  65.882  1.00  0.00    -0.299 OA 
BRANCH  27  29
HETATM   29  O   UNK A   0      -8.400  12.777  67.180  1.00  0.00    -0.183 OA 
BRANCH  29  30
HETATM   30  C   UNK A   0      -7.479  13.854  67.406  1.00  0.00    -0.128 C  
HETATM   31  C   UNK A   0      -6.987  13.856  68.843  1.00  0.00    -0.110 C  
ENDBRANCH  29  30
ENDBRANCH  27  29
ENDBRANCH  18  27
ENDBRANCH  16  18
ENDBRANCH  14  16
ENDBRANCH   7  14
TORSDOF 9
ENDMDL
MODEL       45
REMARK 921   NORMALIZED FREE ENERGY PREDICTED BY IDOCK:   -5.83 KCAL/MOL
REMARK 922        TOTAL FREE ENERGY PREDICTED BY IDOCK:  -10.53 KCAL/MOL
REMARK 923 INTER-LIGAND FREE ENERGY PREDICTED BY IDOCK:   -8.99 KCAL/MOL
REMARK 924 INTRA-LIGAND FREE ENERGY PREDICTED BY IDOCK:   -1.54 KCAL/MOL
REMARK 927      BINDING AFFINITY PREDICTED BY RF-SCORE:    0.00 PKD
ROOT
HETATM    1  C   UNK A   1     -11.915  14.173  67.084  1.00  0.00    -0.460 C  
HETATM    2  C   UNK A   1     -10.910  15.274  66.691  1.00  0.00    -0.310 C  
HETATM    3  C   UNK A   1      -9.538  14.758  67.102  1.00  0.00    -0.231 C  
HETATM    4  C   UNK A   1      -9.836  13.649  68.096  1.00  0.00    -0.236 C  
HETATM    5  C   UNK A   1     -11.075  12.963  67.528  1.00  0.00    -0.269 C  
HETATM    6  N   UNK A   1     -10.913  12.165  66.302  1.00  0.00    -0.282 N  
HETATM    7  C   UNK A   1     -10.328  10.904  66.198  1.00  0.00    -0.248 C  
HETATM    8  C   UNK A   1     -11.976  12.511  65.315  1.00  0.00    -0.438 C  
HETATM    9  C   UNK A   1     -11.540  12.924  63.896  1.00  0.00    -0.453 C  
HETATM   10  C   UNK A   1     -12.774  13.662  65.940  1.00  0.00    -0.428 C  
HETATM   11  O   UNK A   1     -10.471  10.272  65.144  1.00  0.00    -0.222 OA 
HETATM   12  O   UNK A   1     -10.199  12.924  63.708  1.00  0.00    -0.378 OA 
HETATM   13  O   UNK A   1     -12.316  13.266  63.022  1.00  0.00    -0.589 OA 
ENDROOT
BRANCH   7  14
HETATM   14  C   UNK A   1      -9.457  10.316  67.343  1.00  0.00    -0.153 C  
HETATM   15  C   UNK A   1      -7.970  10.446  66.976  1.00  0.00    -0.116 C  
BRANCH  14  16
HETATM   16  N   UNK A   1      -9.831   8.900  67.584  1.00  0.00    -0.172 NA 
HETATM   17  H   UNK A   1     -10.033   8.426  66.704  1.00  0.00     0.000 HD 
BRANCH  16  18
HETATM   18  C   UNK A   0      -8.812   8.142  68.374  1.00  0.00    -0.133 C  
BRANCH  18  19
HETATM   19  C   UNK A   0      -9.306   7.912  69.802  1.00  0.00    -0.153 C  
BRANCH  19  20
HETATM   20  C   UNK A   0      -9.396   9.183  70.659  1.00  0.00    -0.312 C  
BRANCH  20  21
HETATM   21  C   UNK A   0     -10.854   9.402  70.986  1.00  0.00    -0.406 A  
HETATM   22  C   UNK A   0     -11.521   8.536  71.863  1.00  0.00    -0.405 A  
HETATM   23  C   UNK A   0     -11.495  10.575  70.560  1.00  0.00    -0.433 A  
HETATM   24  C   UNK A   0     -12.786   8.861  72.347  1.00  0.00    -0.446 A  
HETATM   25  C   UNK A   0     -12.762  10.896  71.044  1.00  0.00    -0.505 A  
HETATM   26  C   UNK A   0     -13.398  10.050  71.949  1.00  0.00    -0.516 A  
ENDBRANCH  20  21
ENDBRANCH  19  20
ENDBRANCH  18  19
BRANCH  18  27
HETATM   27  C   UNK A   0      -8.506   6.802  67.675  1.00  0.00    -0.122 C  
HETATM   28  O   UNK A   0      -7.614   6.610  66.861  1.00  0.00    -0.091 OA 
BRANCH  27  29
HETATM   29  O   UNK A   0      -9.389   5.854  68.115  1.00  0.00    -0.116 OA 
BRANCH  29  30
HETATM   30  C   UNK A   0      -8.876   4.518  68.238  1.00  0.00    -0.107 C  
HETATM   31  C   UNK A   0      -9.511   3.798  69.414  1.00  0.00    -0.257 C  
ENDBRANCH  29  30
ENDBRANCH  27  29
ENDBRANCH  18  27
ENDBRANCH  16  18
ENDBRANCH  14  16
ENDBRANCH   7  14
TORSDOF 9
ENDMDL
MODEL       46
REMARK 921   NORMALIZED FREE ENERGY PREDICTED BY IDOCK:   -5.82 KCAL/MOL
REMARK 922        TOTAL FREE ENERGY PREDICTED BY IDOCK:  -10.52 KCAL/MOL
REMARK 923 INTER-LIGAND FREE ENERGY PREDICTED BY IDOCK:   -8.97 KCAL/MOL
REMARK 924 INTRA-LIGAND FREE ENERGY PREDICTED BY IDOCK:   -1.54 KCAL/MOL
REMARK 927      BINDING AFFINITY PREDICTED BY RF-SCORE:    0.00 PKD
ROOT
HETATM    1  C   UNK A   1     -14.248  13.722  71.391  1.00  0.00     0.190 C  
HETATM    2  C   UNK A   1     -13.637  12.609  72.264  1.00  0.00    -0.508 C  
HETATM    3  C   UNK A   1     -12.413  12.106  71.509  1.00  0.00    -0.144 C  
HETATM    4  C   UNK A   1     -12.625  12.590  70.085  1.00  0.00     0.044 C  
HETATM    5  C   UNK A   1     -13.247  13.974  70.251  1.00  0.00     0.333 C  
HETATM    6  N   UNK A   1     -12.385  15.054  70.757  1.00  0.00    -0.315 N  
HETATM    7  C   UNK A   1     -11.389  15.729  70.050  1.00  0.00    -0.351 C  
HETATM    8  C   UNK A   1     -13.075  15.799  71.848  1.00  0.00    -0.417 C  
HETATM    9  C   UNK A   1     -12.343  15.954  73.196  1.00  0.00    -0.511 C  
HETATM   10  C   UNK A   1     -14.399  15.063  72.089  1.00  0.00    -0.622 C  
HETATM   11  O   UNK A   1     -10.912  16.758  70.543  1.00  0.00    -0.148 OA 
HETATM   12  O   UNK A   1     -11.119  15.376  73.229  1.00  0.00     0.327 OA 
HETATM   13  O   UNK A   1     -12.824  16.506  74.169  1.00  0.00    -0.683 OA 
ENDROOT
BRANCH   7  14
HETATM   14  C   UNK A   1     -10.834  15.180  68.707  1.00  0.00    -0.247 C  
HETATM   15  C   UNK A   1      -9.299  15.111  68.775  1.00  0.00    -0.200 C  
BRANCH  14  16
HETATM   16  N   UNK A   1     -11.285  16.042  67.586  1.00  0.00    -0.243 NA 
HETATM   17  H   UNK A   1     -11.202  17.028  67.833  1.00  0.00     0.000 HD 
BRANCH  16  18
HETATM   18  C   UNK A   0     -10.583  15.757  66.296  1.00  0.00    -0.310 C  
BRANCH  18  19
HETATM   19  C   UNK A   0     -11.223  14.561  65.592  1.00  0.00    -0.335 C  
BRANCH  19  20
HETATM   20  C   UNK A   0     -10.222  13.554  65.007  1.00  0.00    -0.345 C  
BRANCH  20  21
HETATM   21  C   UNK A   0     -10.277  12.314  65.867  1.00  0.00    -0.274 A  
HETATM   22  C   UNK A   0     -11.305  12.148  66.804  1.00  0.00    -0.398 A  
HETATM   23  C   UNK A   0      -9.408  11.244  65.603  1.00  0.00    -0.245 A  
HETATM   24  C   UNK A   0     -11.495  10.917  67.430  1.00  0.00    -0.175 A  
HETATM   25  C   UNK A   0      -9.599  10.016  66.233  1.00  0.00    -0.256 A  
HETATM   26  C   UNK A   0     -10.651   9.847  67.131  1.00  0.00    -0.295 A  
ENDBRANCH  20  21
ENDBRANCH  19  20
ENDBRANCH  18  19
BRANCH  18  27
HETATM   27  C   UNK A   0     -10.621  17.010  65.398  1.00  0.00    -0.134 C  
HETATM   28  O   UNK A   0     -11.242  17.117  64.350  1.00  0.00    -1.143 OA 
BRANCH  27  29
HETATM   29  O   UNK A   0      -9.853  17.991  65.964  1.00  0.00    -0.505 OA 
BRANCH  29  30
HETATM   30  C   UNK A   0     -10.494  19.261  66.165  1.00  0.00    -0.488 C  
HETATM   31  C   UNK A   0     -10.217  19.793  67.560  1.00  0.00    -0.572 C  
ENDBRANCH  29  30
ENDBRANCH  27  29
ENDBRANCH  18  27
ENDBRANCH  16  18
ENDBRANCH  14  16
ENDBRANCH   7  14
TORSDOF 9
ENDMDL
MODEL       47
REMARK 921   NORMALIZED FREE ENERGY PREDICTED BY IDOCK:   -5.79 KCAL/MOL
REMARK 922        TOTAL FREE ENERGY PREDICTED BY IDOCK:  -10.47 KCAL/MOL
REMARK 923 INTER-LIGAND FREE ENERGY PREDICTED BY IDOCK:   -9.46 KCAL/MOL
REMARK 924 INTRA-LIGAND FREE ENERGY PREDICTED BY IDOCK:   -1.01 KCAL/MOL
REMARK 927      BINDING AFFINITY PREDICTED BY RF-SCORE:    0.00 PKD
ROOT
HETATM    1  C   UNK A   1      -7.892  18.431  68.765  1.00  0.00    -0.286 C  
HETATM    2  C   UNK A   1      -6.896  18.602  67.601  1.00  0.00    -0.210 C  
HETATM    3  C   UNK A   1      -6.556  17.195  67.128  1.00  0.00    -0.210 C  
HETATM    4  C   UNK A   1      -6.972  16.300  68.282  1.00  0.00    -0.130 C  
HETATM    5  C   UNK A   1      -8.258  16.937  68.803  1.00  0.00    -0.244 C  
HETATM    6  N   UNK A   1      -9.460  16.837  67.960  1.00  0.00    -0.230 N  
HETATM    7  C   UNK A   1     -10.253  15.706  67.769  1.00  0.00    -0.252 C  
HETATM    8  C   UNK A   1     -10.123  18.167  67.845  1.00  0.00    -0.357 C  
HETATM    9  C   UNK A   1     -10.411  18.714  66.433  1.00  0.00    -0.432 C  
HETATM   10  C   UNK A   1      -9.212  19.158  68.581  1.00  0.00    -0.429 C  
HETATM   11  O   UNK A   1     -11.351  15.844  67.215  1.00  0.00    -0.171 OA 
HETATM   12  O   UNK A   1     -10.013  17.894  65.432  1.00  0.00    -0.304 OA 
HETATM   13  O   UNK A   1     -10.910  19.803  66.217  1.00  0.00    -0.429 OA 
ENDROOT
BRANCH   7  14
HETATM   14  C   UNK A   1      -9.760  14.290  68.174  1.00  0.00    -0.226 C  
HETATM   15  C   UNK A   1      -8.650  13.837  67.211  1.00  0.00    -0.221 C  
BRANCH  14  16
HETATM   16  N   UNK A   1     -10.899  13.339  68.169  1.00  0.00    -0.243 NA 
HETATM   17  H   UNK A   1     -11.781  13.834  68.036  1.00  0.00     0.000 HD 
BRANCH  16  18
HETATM   18  C   UNK A   0     -10.752  12.239  67.166  1.00  0.00    -0.233 C  
BRANCH  18  19
HETATM   19  C   UNK A   0     -10.974  10.879  67.829  1.00  0.00    -0.339 C  
BRANCH  19  20
HETATM   20  C   UNK A   0     -10.323  10.729  69.212  1.00  0.00    -0.228 C  
BRANCH  20  21
HETATM   21  C   UNK A   0     -11.400  10.279  70.169  1.00  0.00    -0.388 A  
HETATM   22  C   UNK A   0     -11.445   8.950  70.611  1.00  0.00    -0.280 A  
HETATM   23  C   UNK A   0     -12.247  11.228  70.760  1.00  0.00    -0.479 A  
HETATM   24  C   UNK A   0     -12.284   8.586  71.663  1.00  0.00    -0.371 A  
HETATM   25  C   UNK A   0     -13.087  10.860  71.809  1.00  0.00    -0.564 A  
HETATM   26  C   UNK A   0     -13.092   9.546  72.271  1.00  0.00    -0.492 A  
ENDBRANCH  20  21
ENDBRANCH  19  20
ENDBRANCH  18  19
BRANCH  18  27
HETATM   27  C   UNK A   0     -11.746  12.456  66.009  1.00  0.00    -0.410 C  
HETATM   28  O   UNK A   0     -12.748  13.156  66.051  1.00  0.00    -0.385 OA 
BRANCH  27  29
HETATM   29  O   UNK A   0     -11.327  11.746  64.917  1.00  0.00    -0.301 OA 
BRANCH  29  30
HETATM   30  C   UNK A   0     -10.010  12.049  64.431  1.00  0.00    -0.228 C  
HETATM   31  C   UNK A   0      -9.780  11.428  63.064  1.00  0.00    -0.393 C  
ENDBRANCH  29  30
ENDBRANCH  27  29
ENDBRANCH  18  27
ENDBRANCH  16  18
ENDBRANCH  14  16
ENDBRANCH   7  14
TORSDOF 9
ENDMDL
MODEL       48
REMARK 921   NORMALIZED FREE ENERGY PREDICTED BY IDOCK:   -5.79 KCAL/MOL
REMARK 922        TOTAL FREE ENERGY PREDICTED BY IDOCK:  -10.47 KCAL/MOL
REMARK 923 INTER-LIGAND FREE ENERGY PREDICTED BY IDOCK:   -9.96 KCAL/MOL
REMARK 924 INTRA-LIGAND FREE ENERGY PREDICTED BY IDOCK:   -0.50 KCAL/MOL
REMARK 927      BINDING AFFINITY PREDICTED BY RF-SCORE:    0.00 PKD
ROOT
HETATM    1  C   UNK A   1      -6.558  18.711  68.069  1.00  0.00    -0.227 C  
HETATM    2  C   UNK A   1      -6.193  18.867  66.579  1.00  0.00    -0.198 C  
HETATM    3  C   UNK A   1      -6.480  17.518  65.932  1.00  0.00    -0.158 C  
HETATM    4  C   UNK A   1      -6.544  16.548  67.098  1.00  0.00    -0.229 C  
HETATM    5  C   UNK A   1      -7.240  17.338  68.203  1.00  0.00    -0.196 C  
HETATM    6  N   UNK A   1      -8.673  17.627  68.038  1.00  0.00    -0.246 N  
HETATM    7  C   UNK A   1      -9.729  16.730  68.195  1.00  0.00    -0.247 C  
HETATM    8  C   UNK A   1      -8.947  19.064  68.322  1.00  0.00    -0.332 C  
HETATM    9  C   UNK A   1      -9.691  19.886  67.250  1.00  0.00    -0.387 C  
HETATM   10  C   UNK A   1      -7.580  19.712  68.577  1.00  0.00    -0.372 C  
HETATM   11  O   UNK A   1     -10.881  17.178  68.244  1.00  0.00    -0.369 OA 
HETATM   12  O   UNK A   1     -10.018  19.180  66.142  1.00  0.00    -0.375 OA 
HETATM   13  O   UNK A   1      -9.933  21.074  67.355  1.00  0.00    -0.334 OA 
ENDROOT
BRANCH   7  14
HETATM   14  C   UNK A   1      -9.491  15.195  68.242  1.00  0.00    -0.201 C  
HETATM   15  C   UNK A   1      -8.351  14.881  69.226  1.00  0.00    -0.114 C  
BRANCH  14  16
HETATM   16  N   UNK A   1      -9.182  14.691  66.882  1.00  0.00    -0.237 NA 
HETATM   17  H   UNK A   1      -8.326  14.137  66.888  1.00  0.00     0.000 HD 
BRANCH  16  18
HETATM   18  C   UNK A   0     -10.306  13.924  66.261  1.00  0.00    -0.293 C  
BRANCH  18  19
HETATM   19  C   UNK A   0     -11.390  13.630  67.299  1.00  0.00    -0.346 C  
BRANCH  19  20
HETATM   20  C   UNK A   0     -11.436  12.172  67.779  1.00  0.00    -0.398 C  
BRANCH  20  21
HETATM   21  C   UNK A   0     -11.792  12.193  69.246  1.00  0.00    -0.370 A  
HETATM   22  C   UNK A   0     -12.018  13.410  69.903  1.00  0.00    -0.408 A  
HETATM   23  C   UNK A   0     -12.076  10.991  69.911  1.00  0.00    -0.435 A  
HETATM   24  C   UNK A   0     -12.569  13.427  71.183  1.00  0.00    -0.430 A  
HETATM   25  C   UNK A   0     -12.623  11.011  71.192  1.00  0.00    -0.522 A  
HETATM   26  C   UNK A   0     -12.886  12.227  71.819  1.00  0.00    -0.359 A  
ENDBRANCH  20  21
ENDBRANCH  19  20
ENDBRANCH  18  19
BRANCH  18  27
HETATM   27  C   UNK A   0     -10.883  14.718  65.073  1.00  0.00    -0.425 C  
HETATM   28  O   UNK A   0     -10.655  15.894  64.823  1.00  0.00    -0.562 OA 
BRANCH  27  29
HETATM   29  O   UNK A   0     -11.688  13.897  64.332  1.00  0.00    -0.388 OA 
BRANCH  29  30
HETATM   30  C   UNK A   0     -11.136  12.620  63.976  1.00  0.00    -0.405 C  
HETATM   31  C   UNK A   0     -12.174  11.753  63.286  1.00  0.00    -0.400 C  
ENDBRANCH  29  30
ENDBRANCH  27  29
ENDBRANCH  18  27
ENDBRANCH  16  18
ENDBRANCH  14  16
ENDBRANCH   7  14
TORSDOF 9
ENDMDL
MODEL       49
REMARK 921   NORMALIZED FREE ENERGY PREDICTED BY IDOCK:   -5.76 KCAL/MOL
REMARK 922        TOTAL FREE ENERGY PREDICTED BY IDOCK:  -10.42 KCAL/MOL
REMARK 923 INTER-LIGAND FREE ENERGY PREDICTED BY IDOCK:   -8.96 KCAL/MOL
REMARK 924 INTRA-LIGAND FREE ENERGY PREDICTED BY IDOCK:   -1.47 KCAL/MOL
REMARK 927      BINDING AFFINITY PREDICTED BY RF-SCORE:    0.00 PKD
ROOT
HETATM    1  C   UNK A   1      -7.096  18.017  68.515  1.00  0.00    -0.257 C  
HETATM    2  C   UNK A   1      -6.147  18.467  67.387  1.00  0.00    -0.174 C  
HETATM    3  C   UNK A   1      -6.279  17.424  66.285  1.00  0.00    -0.241 C  
HETATM    4  C   UNK A   1      -6.903  16.224  66.976  1.00  0.00    -0.235 C  
HETATM    5  C   UNK A   1      -7.905  16.836  67.952  1.00  0.00    -0.172 C  
HETATM    6  N   UNK A   1      -9.113  17.459  67.389  1.00  0.00    -0.234 N  
HETATM    7  C   UNK A   1     -10.225  16.800  66.864  1.00  0.00    -0.290 C  
HETATM    8  C   UNK A   1      -9.337  18.800  68.001  1.00  0.00    -0.306 C  
HETATM    9  C   UNK A   1      -9.500  20.008  67.057  1.00  0.00    -0.395 C  
HETATM   10  C   UNK A   1      -8.134  19.051  68.919  1.00  0.00    -0.310 C  
HETATM   11  O   UNK A   1     -11.248  17.458  66.641  1.00  0.00     0.272 OA 
HETATM   12  O   UNK A   1      -9.419  19.697  65.742  1.00  0.00    -0.384 OA 
HETATM   13  O   UNK A   1      -9.647  21.154  67.444  1.00  0.00    -0.343 OA 
ENDROOT
BRANCH   7  14
HETATM   14  C   UNK A   1     -10.177  15.290  66.500  1.00  0.00    -0.275 C  
HETATM   15  C   UNK A   1     -10.162  15.130  64.971  1.00  0.00    -0.332 C  
BRANCH  14  16
HETATM   16  N   UNK A   1     -11.337  14.590  67.104  1.00  0.00    -0.337 NA 
HETATM   17  H   UNK A   1     -11.955  14.224  66.379  1.00  0.00     0.000 HD 
BRANCH  16  18
HETATM   18  C   UNK A   0     -10.948  13.510  68.062  1.00  0.00    -0.251 C  
BRANCH  18  19
HETATM   19  C   UNK A   0     -11.617  13.732  69.419  1.00  0.00    -0.365 C  
BRANCH  19  20
HETATM   20  C   UNK A   0     -11.039  14.899  70.232  1.00  0.00    -0.228 C  
BRANCH  20  21
HETATM   21  C   UNK A   0     -11.906  15.065  71.457  1.00  0.00    -0.429 A  
HETATM   22  C   UNK A   0     -11.327  15.359  72.699  1.00  0.00    -0.256 A  
HETATM   23  C   UNK A   0     -13.302  15.107  71.323  1.00  0.00    -0.551 A  
HETATM   24  C   UNK A   0     -12.126  15.741  73.776  1.00  0.00    -0.581 A  
HETATM   25  C   UNK A   0     -14.098  15.486  72.402  1.00  0.00    -0.627 A  
HETATM   26  C   UNK A   0     -13.510  15.819  73.620  1.00  0.00    -0.202 A  
ENDBRANCH  20  21
ENDBRANCH  19  20
ENDBRANCH  18  19
BRANCH  18  27
HETATM   27  C   UNK A   0     -11.329  12.135  67.478  1.00  0.00    -0.326 C  
HETATM   28  O   UNK A   0     -12.256  11.432  67.857  1.00  0.00    -0.592 OA 
BRANCH  27  29
HETATM   29  O   UNK A   0     -10.471  11.826  66.459  1.00  0.00    -0.218 OA 
BRANCH  29  30
HETATM   30  C   UNK A   0      -9.080  11.733  66.807  1.00  0.00    -0.194 C  
HETATM   31  C   UNK A   0      -8.758  10.373  67.399  1.00  0.00    -0.125 C  
ENDBRANCH  29  30
ENDBRANCH  27  29
ENDBRANCH  18  27
ENDBRANCH  16  18
ENDBRANCH  14  16
ENDBRANCH   7  14
TORSDOF 9
ENDMDL
MODEL       50
REMARK 921   NORMALIZED FREE ENERGY PREDICTED BY IDOCK:   -5.75 KCAL/MOL
REMARK 922        TOTAL FREE ENERGY PREDICTED BY IDOCK:  -10.41 KCAL/MOL
REMARK 923 INTER-LIGAND FREE ENERGY PREDICTED BY IDOCK:   -8.91 KCAL/MOL
REMARK 924 INTRA-LIGAND FREE ENERGY PREDICTED BY IDOCK:   -1.49 KCAL/MOL
REMARK 927      BINDING AFFINITY PREDICTED BY RF-SCORE:    0.00 PKD
ROOT
HETATM    1  C   UNK A   1      -9.954   6.826  69.049  1.00  0.00    -0.161 C  
HETATM    2  C   UNK A   1      -8.618   6.769  69.817  1.00  0.00    -0.141 C  
HETATM    3  C   UNK A   1      -8.183   8.215  70.013  1.00  0.00    -0.120 C  
HETATM    4  C   UNK A   1      -8.994   8.993  68.991  1.00  0.00    -0.140 C  
HETATM    5  C   UNK A   1     -10.358   8.310  68.999  1.00  0.00    -0.221 C  
HETATM    6  N   UNK A   1     -11.207   8.494  70.187  1.00  0.00    -0.406 N  
HETATM    7  C   UNK A   1     -11.925   9.640  70.530  1.00  0.00    -0.172 C  
HETATM    8  C   UNK A   1     -11.750   7.183  70.643  1.00  0.00    -0.307 C  
HETATM    9  C   UNK A   1     -11.526   6.779  72.114  1.00  0.00    -0.282 C  
HETATM   10  C   UNK A   1     -11.110   6.123  69.738  1.00  0.00    -0.486 C  
HETATM   11  O   UNK A   1     -12.766   9.560  71.434  1.00  0.00    -0.322 OA 
HETATM   12  O   UNK A   1     -10.840   7.693  72.840  1.00  0.00    -0.325 OA 
HETATM   13  O   UNK A   1     -11.888   5.716  72.587  1.00  0.00    -0.283 OA 
ENDROOT
BRANCH   7  14
HETATM   14  C   UNK A   1     -11.643  11.009  69.851  1.00  0.00    -0.337 C  
HETATM   15  C   UNK A   1     -12.337  12.129  70.644  1.00  0.00    -0.385 C  
BRANCH  14  16
HETATM   16  N   UNK A   1     -12.108  10.978  68.443  1.00  0.00    -0.786 NA 
HETATM   17  H   UNK A   1     -13.114  11.134  68.392  1.00  0.00     0.000 HD 
BRANCH  16  18
HETATM   18  C   UNK A   0     -11.377  11.933  67.554  1.00  0.00    -0.314 C  
BRANCH  18  19
HETATM   19  C   UNK A   0     -10.107  12.437  68.239  1.00  0.00    -0.227 C  
BRANCH  19  20
HETATM   20  C   UNK A   0      -9.099  13.115  67.298  1.00  0.00    -0.217 C  
BRANCH  20  21
HETATM   21  C   UNK A   0      -9.399  14.594  67.308  1.00  0.00    -0.212 A  
HETATM   22  C   UNK A   0      -9.204  15.364  66.154  1.00  0.00    -0.362 A  
HETATM   23  C   UNK A   0     -10.044  15.167  68.414  1.00  0.00    -0.225 A  
HETATM   24  C   UNK A   0      -9.693  16.667  66.086  1.00  0.00    -0.329 A  
HETATM   25  C   UNK A   0     -10.529  16.471  68.344  1.00  0.00    -0.307 A  
HETATM   26  C   UNK A   0     -10.369  17.213  67.177  1.00  0.00    -0.307 A  
ENDBRANCH  20  21
ENDBRANCH  19  20
ENDBRANCH  18  19
BRANCH  18  27
HETATM   27  C   UNK A   0     -11.045  11.245  66.215  1.00  0.00    -0.166 C  
HETATM   28  O   UNK A   0     -10.547  10.135  66.088  1.00  0.00    -0.146 OA 
BRANCH  27  29
HETATM   29  O   UNK A   0     -11.402  12.071  65.184  1.00  0.00    -0.319 OA 
BRANCH  29  30
HETATM   30  C   UNK A   0     -12.483  12.980  65.446  1.00  0.00    -0.476 C  
HETATM   31  C   UNK A   0     -12.333  14.252  64.630  1.00  0.00    -0.433 C  
ENDBRANCH  29  30
ENDBRANCH  27  29
ENDBRANCH  18  27
ENDBRANCH  16  18
ENDBRANCH  14  16
ENDBRANCH   7  14
TORSDOF 9
ENDMDL
MODEL       51
REMARK 921   NORMALIZED FREE ENERGY PREDICTED BY IDOCK:   -5.75 KCAL/MOL
REMARK 922        TOTAL FREE ENERGY PREDICTED BY IDOCK:  -10.40 KCAL/MOL
REMARK 923 INTER-LIGAND FREE ENERGY PREDICTED BY IDOCK:   -8.03 KCAL/MOL
REMARK 924 INTRA-LIGAND FREE ENERGY PREDICTED BY IDOCK:   -2.38 KCAL/MOL
REMARK 927      BINDING AFFINITY PREDICTED BY RF-SCORE:    0.00 PKD
ROOT
HETATM    1  C   UNK A   1      -9.666   6.887  69.118  1.00  0.00    -0.155 C  
HETATM    2  C   UNK A   1      -8.419   6.884  70.023  1.00  0.00    -0.140 C  
HETATM    3  C   UNK A   1      -8.029   8.345  70.208  1.00  0.00    -0.102 C  
HETATM    4  C   UNK A   1      -8.738   9.069  69.076  1.00  0.00    -0.138 C  
HETATM    5  C   UNK A   1     -10.086   8.360  68.967  1.00  0.00    -0.203 C  
HETATM    6  N   UNK A   1     -11.058   8.572  70.051  1.00  0.00    -0.390 N  
HETATM    7  C   UNK A   1     -11.825   9.716  70.272  1.00  0.00    -0.099 C  
HETATM    8  C   UNK A   1     -11.627   7.269  70.499  1.00  0.00    -0.258 C  
HETATM    9  C   UNK A   1     -11.554   6.924  71.999  1.00  0.00    -0.285 C  
HETATM   10  C   UNK A   1     -10.879   6.189  69.708  1.00  0.00    -0.421 C  
HETATM   11  O   UNK A   1     -12.756   9.654  71.084  1.00  0.00    -0.321 OA 
HETATM   12  O   UNK A   1     -10.962   7.878  72.757  1.00  0.00    -0.344 OA 
HETATM   13  O   UNK A   1     -11.948   5.874  72.472  1.00  0.00    -0.274 OA 
ENDROOT
BRANCH   7  14
HETATM   14  C   UNK A   1     -11.493  11.064  69.574  1.00  0.00    -0.299 C  
HETATM   15  C   UNK A   1     -12.072  12.226  70.397  1.00  0.00    -0.385 C  
BRANCH  14  16
HETATM   16  N   UNK A   1     -12.033  11.062  68.192  1.00  0.00    -0.763 NA 
HETATM   17  H   UNK A   1     -12.985  11.426  68.175  1.00  0.00     0.000 HD 
BRANCH  16  18
HETATM   18  C   UNK A   0     -11.168  11.793  67.214  1.00  0.00    -0.305 C  
BRANCH  18  19
HETATM   19  C   UNK A   0     -10.528  10.814  66.230  1.00  0.00    -0.287 C  
BRANCH  19  20
HETATM   20  C   UNK A   0      -9.185  11.279  65.648  1.00  0.00    -0.231 C  
BRANCH  20  21
HETATM   21  C   UNK A   0      -8.246  10.098  65.685  1.00  0.00    -0.150 A  
HETATM   22  C   UNK A   0      -6.920  10.261  66.107  1.00  0.00    -0.116 A  
HETATM   23  C   UNK A   0      -8.744   8.804  65.471  1.00  0.00    -0.217 A  
HETATM   24  C   UNK A   0      -6.121   9.148  66.364  1.00  0.00    -0.063 A  
HETATM   25  C   UNK A   0      -7.942   7.694  65.725  1.00  0.00    -0.116 A  
HETATM   26  C   UNK A   0      -6.639   7.865  66.187  1.00  0.00    -0.050 A  
ENDBRANCH  20  21
ENDBRANCH  19  20
ENDBRANCH  18  19
BRANCH  18  27
HETATM   27  C   UNK A   0     -12.007  12.851  66.470  1.00  0.00    -0.377 C  
HETATM   28  O   UNK A   0     -12.365  12.786  65.303  1.00  0.00    -0.465 OA 
BRANCH  27  29
HETATM   29  O   UNK A   0     -12.297  13.878  67.328  1.00  0.00    -0.347 OA 
BRANCH  29  30
HETATM   30  C   UNK A   0     -11.237  14.813  67.579  1.00  0.00    -0.332 C  
HETATM   31  C   UNK A   0     -11.642  15.819  68.642  1.00  0.00    -0.392 C  
ENDBRANCH  29  30
ENDBRANCH  27  29
ENDBRANCH  18  27
ENDBRANCH  16  18
ENDBRANCH  14  16
ENDBRANCH   7  14
TORSDOF 9
ENDMDL
MODEL       52
REMARK 921   NORMALIZED FREE ENERGY PREDICTED BY IDOCK:   -5.74 KCAL/MOL
REMARK 922        TOTAL FREE ENERGY PREDICTED BY IDOCK:  -10.40 KCAL/MOL
REMARK 923 INTER-LIGAND FREE ENERGY PREDICTED BY IDOCK:  -10.05 KCAL/MOL
REMARK 924 INTRA-LIGAND FREE ENERGY PREDICTED BY IDOCK:   -0.35 KCAL/MOL
REMARK 927      BINDING AFFINITY PREDICTED BY RF-SCORE:    0.00 PKD
ROOT
HETATM    1  C   UNK A   1      -9.163   9.133  65.802  1.00  0.00    -0.294 C  
HETATM    2  C   UNK A   1      -7.775   9.552  66.323  1.00  0.00    -0.101 C  
HETATM    3  C   UNK A   1      -7.771  11.075  66.334  1.00  0.00    -0.146 C  
HETATM    4  C   UNK A   1      -8.919  11.460  65.418  1.00  0.00    -0.055 C  
HETATM    5  C   UNK A   1      -9.998  10.422  65.717  1.00  0.00    -0.270 C  
HETATM    6  N   UNK A   1     -10.678  10.501  67.019  1.00  0.00    -0.264 N  
HETATM    7  C   UNK A   1     -11.648  11.428  67.400  1.00  0.00    -0.184 C  
HETATM    8  C   UNK A   1     -10.728   9.155  67.659  1.00  0.00    -0.189 C  
HETATM    9  C   UNK A   1     -10.178   9.013  69.092  1.00  0.00    -0.205 C  
HETATM   10  C   UNK A   1      -9.940   8.219  66.734  1.00  0.00    -0.355 C  
HETATM   11  O   UNK A   1     -12.283  11.222  68.442  1.00  0.00    -0.604 OA 
HETATM   12  O   UNK A   1      -9.699  10.166  69.616  1.00  0.00    -0.228 OA 
HETATM   13  O   UNK A   1     -10.130   7.958  69.697  1.00  0.00    -0.188 OA 
ENDROOT
BRANCH   7  14
HETATM   14  C   UNK A   1     -11.894  12.727  66.585  1.00  0.00    -0.393 C  
HETATM   15  C   UNK A   1     -12.039  12.380  65.094  1.00  0.00    -0.464 C  
BRANCH  14  16
HETATM   16  N   UNK A   1     -10.781  13.681  66.810  1.00  0.00    -0.272 NA 
HETATM   17  H   UNK A   1     -10.058  13.566  66.100  1.00  0.00     0.000 HD 
BRANCH  16  18
HETATM   18  C   UNK A   0     -11.225  15.108  66.888  1.00  0.00    -0.292 C  
BRANCH  18  19
HETATM   19  C   UNK A   0     -11.311  15.563  68.345  1.00  0.00    -0.357 C  
BRANCH  19  20
HETATM   20  C   UNK A   0     -10.988  14.470  69.375  1.00  0.00    -0.275 C  
BRANCH  20  21
HETATM   21  C   UNK A   0     -11.816  14.754  70.605  1.00  0.00    -0.364 A  
HETATM   22  C   UNK A   0     -12.666  13.770  71.128  1.00  0.00    -0.438 A  
HETATM   23  C   UNK A   0     -11.601  15.934  71.333  1.00  0.00    -0.529 A  
HETATM   24  C   UNK A   0     -13.250  13.939  72.382  1.00  0.00    -0.587 A  
HETATM   25  C   UNK A   0     -12.190  16.101  72.585  1.00  0.00    -0.625 A  
HETATM   26  C   UNK A   0     -12.998  15.099  73.116  1.00  0.00    -0.627 A  
ENDBRANCH  20  21
ENDBRANCH  19  20
ENDBRANCH  18  19
BRANCH  18  27
HETATM   27  C   UNK A   0     -10.253  15.998  66.089  1.00  0.00    -0.324 C  
HETATM   28  O   UNK A   0     -10.562  16.748  65.174  1.00  0.00    -0.663 OA 
BRANCH  27  29
HETATM   29  O   UNK A   0      -8.985  15.824  66.572  1.00  0.00    -0.249 OA 
BRANCH  29  30
HETATM   30  C   UNK A   0      -8.155  16.995  66.614  1.00  0.00    -0.262 C  
HETATM   31  C   UNK A   0      -8.436  17.814  67.862  1.00  0.00    -0.245 C  
ENDBRANCH  29  30
ENDBRANCH  27  29
ENDBRANCH  18  27
ENDBRANCH  16  18
ENDBRANCH  14  16
ENDBRANCH   7  14
TORSDOF 9
ENDMDL
MODEL       53
REMARK 921   NORMALIZED FREE ENERGY PREDICTED BY IDOCK:   -5.74 KCAL/MOL
REMARK 922        TOTAL FREE ENERGY PREDICTED BY IDOCK:  -10.39 KCAL/MOL
REMARK 923 INTER-LIGAND FREE ENERGY PREDICTED BY IDOCK:   -7.77 KCAL/MOL
REMARK 924 INTRA-LIGAND FREE ENERGY PREDICTED BY IDOCK:   -2.62 KCAL/MOL
REMARK 927      BINDING AFFINITY PREDICTED BY RF-SCORE:    0.00 PKD
ROOT
HETATM    1  C   UNK A   1     -11.830  14.123  67.137  1.00  0.00    -0.454 C  
HETATM    2  C   UNK A   1     -11.966  14.899  68.462  1.00  0.00    -0.275 C  
HETATM    3  C   UNK A   1     -11.398  13.988  69.543  1.00  0.00    -0.298 C  
HETATM    4  C   UNK A   1     -11.396  12.608  68.909  1.00  0.00    -0.345 C  
HETATM    5  C   UNK A   1     -11.002  12.867  67.457  1.00  0.00    -0.255 C  
HETATM    6  N   UNK A   1      -9.613  13.270  67.187  1.00  0.00    -0.232 N  
HETATM    7  C   UNK A   1      -8.485  12.449  67.210  1.00  0.00    -0.183 C  
HETATM    8  C   UNK A   1      -9.584  14.449  66.275  1.00  0.00    -0.298 C  
HETATM    9  C   UNK A   1      -8.792  15.693  66.723  1.00  0.00    -0.272 C  
HETATM   10  C   UNK A   1     -11.049  14.849  66.056  1.00  0.00    -0.334 C  
HETATM   11  O   UNK A   1      -7.428  12.888  66.742  1.00  0.00     0.147 OA 
HETATM   12  O   UNK A   1      -8.198  15.564  67.932  1.00  0.00    -0.138 OA 
HETATM   13  O   UNK A   1      -8.733  16.726  66.080  1.00  0.00    -0.454 OA 
ENDROOT
BRANCH   7  14
HETATM   14  C   UNK A   1      -8.520  11.040  67.864  1.00  0.00    -0.128 C  
HETATM   15  C   UNK A   1      -7.708  11.059  69.169  1.00  0.00    -0.102 C  
BRANCH  14  16
HETATM   16  N   UNK A   1      -7.990  10.032  66.914  1.00  0.00    -0.112 NA 
HETATM   17  H   UNK A   1      -7.292   9.441  67.366  1.00  0.00     0.000 HD 
BRANCH  16  18
HETATM   18  C   UNK A   0      -9.055   9.198  66.274  1.00  0.00    -0.178 C  
BRANCH  18  19
HETATM   19  C   UNK A   0     -10.344   9.256  67.094  1.00  0.00    -0.330 C  
BRANCH  19  20
HETATM   20  C   UNK A   0     -10.629   7.996  67.926  1.00  0.00    -0.210 C  
BRANCH  20  21
HETATM   21  C   UNK A   0     -10.230   8.297  69.350  1.00  0.00    -0.204 A  
HETATM   22  C   UNK A   0     -11.031   9.124  70.150  1.00  0.00    -0.267 A  
HETATM   23  C   UNK A   0      -9.158   7.607  69.934  1.00  0.00    -0.147 A  
HETATM   24  C   UNK A   0     -10.797   9.218  71.520  1.00  0.00    -0.442 A  
HETATM   25  C   UNK A   0      -8.925   7.706  71.305  1.00  0.00    -0.141 A  
HETATM   26  C   UNK A   0      -9.753   8.496  72.098  1.00  0.00    -0.387 A  
ENDBRANCH  20  21
ENDBRANCH  19  20
ENDBRANCH  18  19
BRANCH  18  27
HETATM   27  C   UNK A   0      -9.298   9.685  64.832  1.00  0.00    -0.242 C  
HETATM   28  O   UNK A   0      -8.610   9.407  63.860  1.00  0.00    -0.193 OA 
BRANCH  27  29
HETATM   29  O   UNK A   0     -10.415  10.475  64.807  1.00  0.00    -0.304 OA 
BRANCH  29  30
HETATM   30  C   UNK A   0     -10.475  11.456  63.760  1.00  0.00    -0.399 C  
HETATM   31  C   UNK A   0     -11.834  12.132  63.727  1.00  0.00    -0.592 C  
ENDBRANCH  29  30
ENDBRANCH  27  29
ENDBRANCH  18  27
ENDBRANCH  16  18
ENDBRANCH  14  16
ENDBRANCH   7  14
TORSDOF 9
ENDMDL
MODEL       54
REMARK 921   NORMALIZED FREE ENERGY PREDICTED BY IDOCK:   -5.73 KCAL/MOL
REMARK 922        TOTAL FREE ENERGY PREDICTED BY IDOCK:  -10.38 KCAL/MOL
REMARK 923 INTER-LIGAND FREE ENERGY PREDICTED BY IDOCK:   -8.56 KCAL/MOL
REMARK 924 INTRA-LIGAND FREE ENERGY PREDICTED BY IDOCK:   -1.82 KCAL/MOL
REMARK 927      BINDING AFFINITY PREDICTED BY RF-SCORE:    0.00 PKD
ROOT
HETATM    1  C   UNK A   1     -10.641   6.563  68.992  1.00  0.00    -0.286 C  
HETATM    2  C   UNK A   1      -9.205   6.217  69.432  1.00  0.00    -0.139 C  
HETATM    3  C   UNK A   1      -8.305   7.273  68.802  1.00  0.00    -0.129 C  
HETATM    4  C   UNK A   1      -9.152   7.873  67.693  1.00  0.00    -0.139 C  
HETATM    5  C   UNK A   1     -10.558   7.927  68.285  1.00  0.00    -0.109 C  
HETATM    6  N   UNK A   1     -10.812   8.905  69.353  1.00  0.00    -0.376 N  
HETATM    7  C   UNK A   1     -10.964  10.284  69.205  1.00  0.00    -0.238 C  
HETATM    8  C   UNK A   1     -11.526   8.256  70.490  1.00  0.00    -0.175 C  
HETATM    9  C   UNK A   1     -10.915   8.389  71.900  1.00  0.00    -0.305 C  
HETATM   10  C   UNK A   1     -11.621   6.767  70.134  1.00  0.00    -0.397 C  
HETATM   11  O   UNK A   1     -11.397  10.935  70.163  1.00  0.00    -0.293 OA 
HETATM   12  O   UNK A   1      -9.766   9.103  71.938  1.00  0.00    -0.282 OA 
HETATM   13  O   UNK A   1     -11.387   7.868  72.894  1.00  0.00    -0.406 OA 
ENDROOT
BRANCH   7  14
HETATM   14  C   UNK A   1     -10.543  11.011  67.897  1.00  0.00    -0.205 C  
HETATM   15  C   UNK A   1      -9.521  12.110  68.227  1.00  0.00    -0.204 C  
BRANCH  14  16
HETATM   16  N   UNK A   1     -11.741  11.572  67.226  1.00  0.00    -0.603 NA 
HETATM   17  H   UNK A   1     -12.334  12.062  67.895  1.00  0.00     0.000 HD 
BRANCH  16  18
HETATM   18  C   UNK A   0     -11.413  12.455  66.064  1.00  0.00    -0.382 C  
BRANCH  18  19
HETATM   19  C   UNK A   0     -11.434  11.655  64.761  1.00  0.00    -0.225 C  
BRANCH  19  20
HETATM   20  C   UNK A   0     -10.223  11.891  63.847  1.00  0.00    -0.420 C  
BRANCH  20  21
HETATM   21  C   UNK A   0      -9.321  10.688  63.977  1.00  0.00    -0.303 A  
HETATM   22  C   UNK A   0      -9.279   9.721  62.964  1.00  0.00    -0.226 A  
HETATM   23  C   UNK A   0      -8.389  10.626  65.024  1.00  0.00    -0.106 A  
HETATM   24  C   UNK A   0      -8.289   8.740  62.967  1.00  0.00    -0.175 A  
HETATM   25  C   UNK A   0      -7.402   9.641  65.026  1.00  0.00    -0.117 A  
HETATM   26  C   UNK A   0      -7.342   8.711  63.991  1.00  0.00    -0.106 A  
ENDBRANCH  20  21
ENDBRANCH  19  20
ENDBRANCH  18  19
BRANCH  18  27
HETATM   27  C   UNK A   0     -12.411  13.629  66.006  1.00  0.00    -0.445 C  
HETATM   28  O   UNK A   0     -13.267  13.795  65.149  1.00  0.00    -0.757 OA 
BRANCH  27  29
HETATM   29  O   UNK A   0     -12.194  14.456  67.074  1.00  0.00    -0.400 OA 
BRANCH  29  30
HETATM   30  C   UNK A   0     -10.996  15.247  67.031  1.00  0.00    -0.324 C  
HETATM   31  C   UNK A   0     -10.744  15.924  68.366  1.00  0.00    -0.281 C  
ENDBRANCH  29  30
ENDBRANCH  27  29
ENDBRANCH  18  27
ENDBRANCH  16  18
ENDBRANCH  14  16
ENDBRANCH   7  14
TORSDOF 9
ENDMDL
MODEL       55
REMARK 921   NORMALIZED FREE ENERGY PREDICTED BY IDOCK:   -5.73 KCAL/MOL
REMARK 922        TOTAL FREE ENERGY PREDICTED BY IDOCK:  -10.37 KCAL/MOL
REMARK 923 INTER-LIGAND FREE ENERGY PREDICTED BY IDOCK:   -8.49 KCAL/MOL
REMARK 924 INTRA-LIGAND FREE ENERGY PREDICTED BY IDOCK:   -1.88 KCAL/MOL
REMARK 927      BINDING AFFINITY PREDICTED BY RF-SCORE:    0.00 PKD
ROOT
HETATM    1  C   UNK A   1     -10.657  14.393  64.802  1.00  0.00    -0.417 C  
HETATM    2  C   UNK A   1     -12.148  14.726  64.599  1.00  0.00    -0.437 C  
HETATM    3  C   UNK A   1     -12.925  13.636  65.326  1.00  0.00    -0.315 C  
HETATM    4  C   UNK A   1     -11.919  12.513  65.505  1.00  0.00    -0.500 C  
HETATM    5  C   UNK A   1     -10.608  13.233  65.812  1.00  0.00    -0.284 C  
HETATM    6  N   UNK A   1     -10.483  13.895  67.120  1.00  0.00    -0.268 N  
HETATM    7  C   UNK A   1     -10.279  13.276  68.353  1.00  0.00    -0.249 C  
HETATM    8  C   UNK A   1      -9.950  15.278  66.951  1.00  0.00    -0.239 C  
HETATM    9  C   UNK A   1     -10.748  16.442  67.570  1.00  0.00    -0.298 C  
HETATM   10  C   UNK A   1      -9.841  15.506  65.438  1.00  0.00    -0.291 C  
HETATM   11  O   UNK A   1      -9.970  13.980  69.322  1.00  0.00    -0.004 OA 
HETATM   12  O   UNK A   1     -11.875  16.058  68.215  1.00  0.00    -0.250 OA 
HETATM   13  O   UNK A   1     -10.432  17.613  67.461  1.00  0.00    -0.351 OA 
ENDROOT
BRANCH   7  14
HETATM   14  C   UNK A   1     -10.497  11.749  68.541  1.00  0.00    -0.215 C  
HETATM   15  C   UNK A   1     -11.615  11.512  69.569  1.00  0.00    -0.400 C  
BRANCH  14  16
HETATM   16  N   UNK A   1      -9.228  11.109  68.966  1.00  0.00    -0.379 NA 
HETATM   17  H   UNK A   1      -9.278  10.824  69.944  1.00  0.00     0.000 HD 
BRANCH  16  18
HETATM   18  C   UNK A   0      -8.821   9.959  68.099  1.00  0.00    -0.118 C  
BRANCH  18  19
HETATM   19  C   UNK A   0      -9.924   8.901  68.063  1.00  0.00    -0.215 C  
BRANCH  19  20
HETATM   20  C   UNK A   0      -9.588   7.603  68.811  1.00  0.00    -0.153 C  
BRANCH  20  21
HETATM   21  C   UNK A   0     -10.428   7.576  70.065  1.00  0.00    -0.231 A  
HETATM   22  C   UNK A   0     -10.165   8.469  71.112  1.00  0.00    -0.272 A  
HETATM   23  C   UNK A   0     -11.585   6.784  70.112  1.00  0.00    -0.397 A  
HETATM   24  C   UNK A   0     -11.070   8.607  72.163  1.00  0.00    -0.434 A  
HETATM   25  C   UNK A   0     -12.486   6.923  71.165  1.00  0.00    -0.398 A  
HETATM   26  C   UNK A   0     -12.238   7.845  72.179  1.00  0.00    -0.353 A  
ENDBRANCH  20  21
ENDBRANCH  19  20
ENDBRANCH  18  19
BRANCH  18  27
HETATM   27  C   UNK A   0      -8.499  10.468  66.680  1.00  0.00    -0.129 C  
HETATM   28  O   UNK A   0      -7.630  11.279  66.394  1.00  0.00    -0.137 OA 
BRANCH  27  29
HETATM   29  O   UNK A   0      -9.338   9.862  65.785  1.00  0.00    -0.173 OA 
BRANCH  29  30
HETATM   30  C   UNK A   0      -8.815   9.660  64.463  1.00  0.00    -0.223 C  
HETATM   31  C   UNK A   0      -9.622  10.435  63.436  1.00  0.00    -0.361 C  
ENDBRANCH  29  30
ENDBRANCH  27  29
ENDBRANCH  18  27
ENDBRANCH  16  18
ENDBRANCH  14  16
ENDBRANCH   7  14
TORSDOF 9
ENDMDL
MODEL       56
REMARK 921   NORMALIZED FREE ENERGY PREDICTED BY IDOCK:   -5.71 KCAL/MOL
REMARK 922        TOTAL FREE ENERGY PREDICTED BY IDOCK:  -10.34 KCAL/MOL
REMARK 923 INTER-LIGAND FREE ENERGY PREDICTED BY IDOCK:   -8.73 KCAL/MOL
REMARK 924 INTRA-LIGAND FREE ENERGY PREDICTED BY IDOCK:   -1.61 KCAL/MOL
REMARK 927      BINDING AFFINITY PREDICTED BY RF-SCORE:    0.00 PKD
ROOT
HETATM    1  C   UNK A   1     -11.424   7.184  71.751  1.00  0.00    -0.301 C  
HETATM    2  C   UNK A   1     -11.008   5.764  72.184  1.00  0.00    -0.311 C  
HETATM    3  C   UNK A   1     -10.466   5.084  70.933  1.00  0.00    -0.212 C  
HETATM    4  C   UNK A   1     -11.004   5.923  69.787  1.00  0.00    -0.452 C  
HETATM    5  C   UNK A   1     -10.924   7.356  70.306  1.00  0.00    -0.255 C  
HETATM    6  N   UNK A   1      -9.589   7.957  70.453  1.00  0.00    -0.171 N  
HETATM    7  C   UNK A   1      -8.765   8.421  69.428  1.00  0.00    -0.137 C  
HETATM    8  C   UNK A   1      -9.461   8.612  71.786  1.00  0.00    -0.284 C  
HETATM    9  C   UNK A   1      -8.269   8.211  72.678  1.00  0.00    -0.170 C  
HETATM   10  C   UNK A   1     -10.763   8.304  72.535  1.00  0.00    -0.411 C  
HETATM   11  O   UNK A   1      -7.777   9.101  69.729  1.00  0.00    -0.070 OA 
HETATM   12  O   UNK A   1      -7.455   7.281  72.127  1.00  0.00    -0.079 OA 
HETATM   13  O   UNK A   1      -8.086   8.650  73.800  1.00  0.00    -0.400 OA 
ENDROOT
BRANCH   7  14
HETATM   14  C   UNK A   1      -9.027   8.048  67.943  1.00  0.00    -0.129 C  
HETATM   15  C   UNK A   1      -7.686   7.851  67.217  1.00  0.00    -0.105 C  
BRANCH  14  16
HETATM   16  N   UNK A   1      -9.841   9.104  67.294  1.00  0.00    -0.176 NA 
HETATM   17  H   UNK A   1     -10.816   8.815  67.221  1.00  0.00     0.000 HD 
BRANCH  16  18
HETATM   18  C   UNK A   0      -9.733  10.436  67.966  1.00  0.00    -0.150 C  
BRANCH  18  19
HETATM   19  C   UNK A   0      -9.039  11.443  67.048  1.00  0.00    -0.169 C  
BRANCH  19  20
HETATM   20  C   UNK A   0      -9.023  11.049  65.563  1.00  0.00    -0.208 C  
BRANCH  20  21
HETATM   21  C   UNK A   0     -10.040  11.914  64.858  1.00  0.00    -0.296 A  
HETATM   22  C   UNK A   0     -10.933  11.349  63.938  1.00  0.00    -0.442 A  
HETATM   23  C   UNK A   0     -10.215  13.248  65.254  1.00  0.00    -0.303 A  
HETATM   24  C   UNK A   0     -12.015  12.088  63.462  1.00  0.00    -0.605 A  
HETATM   25  C   UNK A   0     -11.295  13.985  64.774  1.00  0.00    -0.366 A  
HETATM   26  C   UNK A   0     -12.203  13.401  63.894  1.00  0.00    -0.478 A  
ENDBRANCH  20  21
ENDBRANCH  19  20
ENDBRANCH  18  19
BRANCH  18  27
HETATM   27  C   UNK A   0     -11.137  10.932  68.365  1.00  0.00    -0.262 C  
HETATM   28  O   UNK A   0     -11.980  11.379  67.600  1.00  0.00    -0.630 OA 
BRANCH  27  29
HETATM   29  O   UNK A   0     -11.297  10.785  69.716  1.00  0.00    -0.254 OA 
BRANCH  29  30
HETATM   30  C   UNK A   0     -12.257  11.654  70.339  1.00  0.00    -0.347 C  
HETATM   31  C   UNK A   0     -12.893  10.984  71.544  1.00  0.00    -0.555 C  
ENDBRANCH  29  30
ENDBRANCH  27  29
ENDBRANCH  18  27
ENDBRANCH  16  18
ENDBRANCH  14  16
ENDBRANCH   7  14
TORSDOF 9
ENDMDL
MODEL       57
REMARK 921   NORMALIZED FREE ENERGY PREDICTED BY IDOCK:   -5.70 KCAL/MOL
REMARK 922        TOTAL FREE ENERGY PREDICTED BY IDOCK:  -10.34 KCAL/MOL
REMARK 923 INTER-LIGAND FREE ENERGY PREDICTED BY IDOCK:   -9.25 KCAL/MOL
REMARK 924 INTRA-LIGAND FREE ENERGY PREDICTED BY IDOCK:   -1.09 KCAL/MOL
REMARK 927      BINDING AFFINITY PREDICTED BY RF-SCORE:    0.00 PKD
ROOT
HETATM    1  C   UNK A   1      -8.861   8.209  70.522  1.00  0.00    -0.144 C  
HETATM    2  C   UNK A   1     -10.069   7.389  71.018  1.00  0.00    -0.191 C  
HETATM    3  C   UNK A   1     -11.247   8.354  71.055  1.00  0.00    -0.304 C  
HETATM    4  C   UNK A   1     -10.605   9.730  71.038  1.00  0.00    -0.295 C  
HETATM    5  C   UNK A   1      -9.418   9.576  70.091  1.00  0.00    -0.246 C  
HETATM    6  N   UNK A   1      -9.705   9.415  68.657  1.00  0.00    -0.150 N  
HETATM    7  C   UNK A   1     -10.116  10.411  67.771  1.00  0.00    -0.181 C  
HETATM    8  C   UNK A   1      -8.917   8.281  68.096  1.00  0.00    -0.139 C  
HETATM    9  C   UNK A   1      -9.679   7.174  67.340  1.00  0.00    -0.148 C  
HETATM   10  C   UNK A   1      -8.182   7.649  69.284  1.00  0.00    -0.133 C  
HETATM   11  O   UNK A   1     -10.096  10.165  66.558  1.00  0.00    -0.215 OA 
HETATM   12  O   UNK A   1     -11.017   7.370  67.273  1.00  0.00    -0.280 OA 
HETATM   13  O   UNK A   1      -9.146   6.182  66.875  1.00  0.00    -0.121 OA 
ENDROOT
BRANCH   7  14
HETATM   14  C   UNK A   1     -10.652  11.778  68.277  1.00  0.00    -0.211 C  
HETATM   15  C   UNK A   1     -12.107  11.618  68.749  1.00  0.00    -0.221 C  
BRANCH  14  16
HETATM   16  N   UNK A   1     -10.544  12.792  67.199  1.00  0.00    -0.236 NA 
HETATM   17  H   UNK A   1     -10.287  12.353  66.316  1.00  0.00     0.000 HD 
BRANCH  16  18
HETATM   18  C   UNK A   0     -11.776  13.625  67.039  1.00  0.00    -0.384 C  
BRANCH  18  19
HETATM   19  C   UNK A   0     -11.474  15.092  67.346  1.00  0.00    -0.326 C  
BRANCH  19  20
HETATM   20  C   UNK A   0     -10.302  15.683  66.548  1.00  0.00    -0.296 C  
BRANCH  20  21
HETATM   21  C   UNK A   0     -10.192  17.140  66.924  1.00  0.00    -0.315 A  
HETATM   22  C   UNK A   0     -10.444  18.138  65.973  1.00  0.00    -0.346 A  
HETATM   23  C   UNK A   0     -10.016  17.502  68.268  1.00  0.00    -0.330 A  
HETATM   24  C   UNK A   0     -10.571  19.469  66.366  1.00  0.00    -0.571 A  
HETATM   25  C   UNK A   0     -10.140  18.834  68.657  1.00  0.00    -0.432 A  
HETATM   26  C   UNK A   0     -10.435  19.812  67.711  1.00  0.00    -0.555 A  
ENDBRANCH  20  21
ENDBRANCH  19  20
ENDBRANCH  18  19
BRANCH  18  27
HETATM   27  C   UNK A   0     -12.329  13.464  65.609  1.00  0.00    -0.470 C  
HETATM   28  O   UNK A   0     -13.168  14.181  65.084  1.00  0.00    -0.743 OA 
BRANCH  27  29
HETATM   29  O   UNK A   0     -11.724  12.391  65.012  1.00  0.00    -0.346 OA 
BRANCH  29  30
HETATM   30  C   UNK A   0     -11.498  12.496  63.598  1.00  0.00    -0.493 C  
HETATM   31  C   UNK A   0     -10.145  11.920  63.220  1.00  0.00    -0.427 C  
ENDBRANCH  29  30
ENDBRANCH  27  29
ENDBRANCH  18  27
ENDBRANCH  16  18
ENDBRANCH  14  16
ENDBRANCH   7  14
TORSDOF 9
ENDMDL
MODEL       58
REMARK 921   NORMALIZED FREE ENERGY PREDICTED BY IDOCK:   -5.70 KCAL/MOL
REMARK 922        TOTAL FREE ENERGY PREDICTED BY IDOCK:  -10.34 KCAL/MOL
REMARK 923 INTER-LIGAND FREE ENERGY PREDICTED BY IDOCK:   -8.82 KCAL/MOL
REMARK 924 INTRA-LIGAND FREE ENERGY PREDICTED BY IDOCK:   -1.52 KCAL/MOL
REMARK 927      BINDING AFFINITY PREDICTED BY RF-SCORE:    0.00 PKD
ROOT
HETATM    1  C   UNK A   1      -6.791   8.736  68.957  1.00  0.00    -0.059 C  
HETATM    2  C   UNK A   1      -7.445   7.476  69.557  1.00  0.00    -0.093 C  
HETATM    3  C   UNK A   1      -8.818   7.910  70.054  1.00  0.00    -0.141 C  
HETATM    4  C   UNK A   1      -8.721   9.423  70.151  1.00  0.00    -0.245 C  
HETATM    5  C   UNK A   1      -7.882   9.821  68.939  1.00  0.00    -0.087 C  
HETATM    6  N   UNK A   1      -8.499   9.692  67.610  1.00  0.00    -0.125 N  
HETATM    7  C   UNK A   1      -9.464  10.531  67.052  1.00  0.00    -0.163 C  
HETATM    8  C   UNK A   1      -7.569   9.001  66.672  1.00  0.00    -0.089 C  
HETATM    9  C   UNK A   1      -8.089   7.760  65.919  1.00  0.00    -0.121 C  
HETATM   10  C   UNK A   1      -6.351   8.593  67.511  1.00  0.00    -0.057 C  
HETATM   11  O   UNK A   1      -9.714  10.422  65.846  1.00  0.00    -0.192 OA 
HETATM   12  O   UNK A   1      -9.371   7.436  66.209  1.00  0.00    -0.169 OA 
HETATM   13  O   UNK A   1      -7.408   7.093  65.162  1.00  0.00    -0.073 OA 
ENDROOT
BRANCH   7  14
HETATM   14  C   UNK A   1     -10.265  11.538  67.923  1.00  0.00    -0.184 C  
HETATM   15  C   UNK A   1     -11.572  10.882  68.398  1.00  0.00    -0.346 C  
BRANCH  14  16
HETATM   16  N   UNK A   1     -10.535  12.773  67.146  1.00  0.00    -0.232 NA 
HETATM   17  H   UNK A   1     -10.189  12.680  66.191  1.00  0.00     0.000 HD 
BRANCH  16  18
HETATM   18  C   UNK A   0     -11.974  13.179  67.153  1.00  0.00    -0.341 C  
BRANCH  18  19
HETATM   19  C   UNK A   0     -12.151  14.509  67.885  1.00  0.00    -0.261 C  
BRANCH  19  20
HETATM   20  C   UNK A   0     -11.282  14.667  69.141  1.00  0.00    -0.291 C  
BRANCH  20  21
HETATM   21  C   UNK A   0     -12.178  14.459  70.338  1.00  0.00    -0.404 A  
HETATM   22  C   UNK A   0     -13.031  15.484  70.770  1.00  0.00    -0.490 A  
HETATM   23  C   UNK A   0     -12.294  13.183  70.908  1.00  0.00    -0.393 A  
HETATM   24  C   UNK A   0     -14.019  15.224  71.718  1.00  0.00    -0.638 A  
HETATM   25  C   UNK A   0     -13.281  12.928  71.859  1.00  0.00    -0.521 A  
HETATM   26  C   UNK A   0     -14.152  13.941  72.249  1.00  0.00    -0.632 A  
ENDBRANCH  20  21
ENDBRANCH  19  20
ENDBRANCH  18  19
BRANCH  18  27
HETATM   27  C   UNK A   0     -12.492  13.275  65.704  1.00  0.00    -0.451 C  
HETATM   28  O   UNK A   0     -12.876  14.296  65.150  1.00  0.00    -0.659 OA 
BRANCH  27  29
HETATM   29  O   UNK A   0     -12.449  12.034  65.128  1.00  0.00    -0.425 OA 
BRANCH  29  30
HETATM   30  C   UNK A   0     -12.224  12.000  63.710  1.00  0.00    -0.498 C  
HETATM   31  C   UNK A   0     -10.762  12.246  63.386  1.00  0.00    -0.438 C  
ENDBRANCH  29  30
ENDBRANCH  27  29
ENDBRANCH  18  27
ENDBRANCH  16  18
ENDBRANCH  14  16
ENDBRANCH   7  14
TORSDOF 9
ENDMDL
MODEL       59
REMARK 921   NORMALIZED FREE ENERGY PREDICTED BY IDOCK:   -5.65 KCAL/MOL
REMARK 922        TOTAL FREE ENERGY PREDICTED BY IDOCK:  -10.26 KCAL/MOL
REMARK 923 INTER-LIGAND FREE ENERGY PREDICTED BY IDOCK:   -8.82 KCAL/MOL
REMARK 924 INTRA-LIGAND FREE ENERGY PREDICTED BY IDOCK:   -1.44 KCAL/MOL
REMARK 927      BINDING AFFINITY PREDICTED BY RF-SCORE:    0.00 PKD
ROOT
HETATM    1  C   UNK A   1      -9.361   7.455  66.291  1.00  0.00    -0.166 C  
HETATM    2  C   UNK A   1      -8.180   6.611  66.810  1.00  0.00    -0.114 C  
HETATM    3  C   UNK A   1      -7.057   7.597  67.106  1.00  0.00    -0.085 C  
HETATM    4  C   UNK A   1      -7.444   8.849  66.339  1.00  0.00    -0.088 C  
HETATM    5  C   UNK A   1      -8.961   8.926  66.494  1.00  0.00    -0.155 C  
HETATM    6  N   UNK A   1      -9.496   9.269  67.821  1.00  0.00    -0.139 N  
HETATM    7  C   UNK A   1      -9.502  10.529  68.419  1.00  0.00    -0.157 C  
HETATM    8  C   UNK A   1     -10.587   8.326  68.198  1.00  0.00    -0.111 C  
HETATM    9  C   UNK A   1     -10.476   7.591  69.548  1.00  0.00    -0.226 C  
HETATM   10  C   UNK A   1     -10.652   7.284  67.074  1.00  0.00    -0.415 C  
HETATM   11  O   UNK A   1     -10.188  10.695  69.435  1.00  0.00    -0.220 OA 
HETATM   12  O   UNK A   1      -9.363   7.899  70.254  1.00  0.00    -0.159 OA 
HETATM   13  O   UNK A   1     -11.285   6.770  69.941  1.00  0.00    -0.296 OA 
ENDROOT
BRANCH   7  14
HETATM   14  C   UNK A   1      -8.624  11.690  67.876  1.00  0.00    -0.150 C  
HETATM   15  C   UNK A   1      -7.306  11.750  68.665  1.00  0.00    -0.115 C  
BRANCH  14  16
HETATM   16  N   UNK A   1      -9.367  12.970  67.971  1.00  0.00    -0.207 NA 
HETATM   17  H   UNK A   1      -8.756  13.758  67.758  1.00  0.00     0.000 HD 
BRANCH  16  18
HETATM   18  C   UNK A   0     -10.597  13.009  67.121  1.00  0.00    -0.246 C  
BRANCH  18  19
HETATM   19  C   UNK A   0     -11.751  13.664  67.880  1.00  0.00    -0.395 C  
BRANCH  19  20
HETATM   20  C   UNK A   0     -11.323  14.502  69.094  1.00  0.00    -0.305 C  
BRANCH  20  21
HETATM   21  C   UNK A   0     -12.336  14.261  70.187  1.00  0.00    -0.413 A  
HETATM   22  C   UNK A   0     -12.506  12.979  70.725  1.00  0.00    -0.384 A  
HETATM   23  C   UNK A   0     -12.979  15.351  70.793  1.00  0.00    -0.510 A  
HETATM   24  C   UNK A   0     -13.263  12.794  71.880  1.00  0.00    -0.511 A  
HETATM   25  C   UNK A   0     -13.738  15.163  71.947  1.00  0.00    -0.577 A  
HETATM   26  C   UNK A   0     -13.864  13.890  72.499  1.00  0.00    -0.620 A  
ENDBRANCH  20  21
ENDBRANCH  19  20
ENDBRANCH  18  19
BRANCH  18  27
HETATM   27  C   UNK A   0     -10.300  13.765  65.811  1.00  0.00    -0.307 C  
HETATM   28  O   UNK A   0      -9.829  14.891  65.729  1.00  0.00    -0.315 OA 
BRANCH  27  29
HETATM   29  O   UNK A   0     -10.640  12.974  64.748  1.00  0.00    -0.323 OA 
BRANCH  29  30
HETATM   30  C   UNK A   0     -11.821  13.355  64.025  1.00  0.00    -0.445 C  
HETATM   31  C   UNK A   0     -12.525  12.137  63.455  1.00  0.00    -0.666 C  
ENDBRANCH  29  30
ENDBRANCH  27  29
ENDBRANCH  18  27
ENDBRANCH  16  18
ENDBRANCH  14  16
ENDBRANCH   7  14
TORSDOF 9
ENDMDL
MODEL       60
REMARK 921   NORMALIZED FREE ENERGY PREDICTED BY IDOCK:   -5.63 KCAL/MOL
REMARK 922        TOTAL FREE ENERGY PREDICTED BY IDOCK:  -10.23 KCAL/MOL
REMARK 923 INTER-LIGAND FREE ENERGY PREDICTED BY IDOCK:   -9.90 KCAL/MOL
REMARK 924 INTRA-LIGAND FREE ENERGY PREDICTED BY IDOCK:   -0.33 KCAL/MOL
REMARK 927      BINDING AFFINITY PREDICTED BY RF-SCORE:    0.00 PKD
ROOT
HETATM    1  C   UNK A   1      -9.846  11.181  65.816  1.00  0.00    -0.279 C  
HETATM    2  C   UNK A   1     -10.899  10.530  66.734  1.00  0.00    -0.209 C  
HETATM    3  C   UNK A   1     -11.274  11.590  67.763  1.00  0.00    -0.343 C  
HETATM    4  C   UNK A   1     -10.138  12.595  67.697  1.00  0.00    -0.218 C  
HETATM    5  C   UNK A   1      -9.789  12.667  66.213  1.00  0.00    -0.262 C  
HETATM    6  N   UNK A   1     -10.755  13.319  65.315  1.00  0.00    -0.301 N  
HETATM    7  C   UNK A   1     -10.987  14.689  65.192  1.00  0.00    -0.386 C  
HETATM    8  C   UNK A   1     -10.996  12.473  64.112  1.00  0.00    -0.381 C  
HETATM    9  C   UNK A   1     -12.453  12.108  63.763  1.00  0.00    -0.514 C  
HETATM   10  C   UNK A   1     -10.205  11.179  64.340  1.00  0.00    -0.390 C  
HETATM   11  O   UNK A   1     -11.664  15.089  64.238  1.00  0.00    -0.335 OA 
HETATM   12  O   UNK A   1     -13.370  12.616  64.620  1.00  0.00    -0.767 OA 
HETATM   13  O   UNK A   1     -12.767  11.391  62.830  1.00  0.00    -0.092 OA 
ENDROOT
BRANCH   7  14
HETATM   14  C   UNK A   1     -10.472  15.699  66.256  1.00  0.00    -0.306 C  
HETATM   15  C   UNK A   1      -8.937  15.644  66.317  1.00  0.00    -0.377 C  
BRANCH  14  16
HETATM   16  N   UNK A   1     -11.076  15.391  67.576  1.00  0.00    -0.320 NA 
HETATM   17  H   UNK A   1     -10.885  14.425  67.843  1.00  0.00     0.000 HD 
BRANCH  16  18
HETATM   18  C   UNK A   0     -10.654  16.333  68.658  1.00  0.00    -0.297 C  
BRANCH  18  19
HETATM   19  C   UNK A   0     -10.841  17.782  68.208  1.00  0.00    -0.155 C  
BRANCH  19  20
HETATM   20  C   UNK A   0     -10.025  18.809  69.007  1.00  0.00    -0.348 C  
BRANCH  20  21
HETATM   21  C   UNK A   0      -8.888  19.265  68.125  1.00  0.00    -0.373 A  
HETATM   22  C   UNK A   0      -9.077  19.412  66.745  1.00  0.00    -0.382 A  
HETATM   23  C   UNK A   0      -7.694  19.717  68.706  1.00  0.00    -0.273 A  
HETATM   24  C   UNK A   0      -8.113  20.047  65.965  1.00  0.00    -0.281 A  
HETATM   25  C   UNK A   0      -6.730  20.350  67.923  1.00  0.00    -0.335 A  
HETATM   26  C   UNK A   0      -6.947  20.530  66.560  1.00  0.00    -0.303 A  
ENDBRANCH  20  21
ENDBRANCH  19  20
ENDBRANCH  18  19
BRANCH  18  27
HETATM   27  C   UNK A   0     -11.461  16.046  69.940  1.00  0.00    -0.326 C  
HETATM   28  O   UNK A   0     -11.366  16.658  70.994  1.00  0.00    -0.226 OA 
BRANCH  27  29
HETATM   29  O   UNK A   0     -12.311  14.998  69.710  1.00  0.00    -0.297 OA 
BRANCH  29  30
HETATM   30  C   UNK A   0     -12.162  13.860  70.572  1.00  0.00    -0.373 C  
HETATM   31  C   UNK A   0     -13.265  13.820  71.615  1.00  0.00    -0.450 C  
ENDBRANCH  29  30
ENDBRANCH  27  29
ENDBRANCH  18  27
ENDBRANCH  16  18
ENDBRANCH  14  16
ENDBRANCH   7  14
TORSDOF 9
ENDMDL
MODEL       61
REMARK 921   NORMALIZED FREE ENERGY PREDICTED BY IDOCK:   -5.59 KCAL/MOL
REMARK 922        TOTAL FREE ENERGY PREDICTED BY IDOCK:  -10.16 KCAL/MOL
REMARK 923 INTER-LIGAND FREE ENERGY PREDICTED BY IDOCK:   -9.21 KCAL/MOL
REMARK 924 INTRA-LIGAND FREE ENERGY PREDICTED BY IDOCK:   -0.95 KCAL/MOL
REMARK 927      BINDING AFFINITY PREDICTED BY RF-SCORE:    0.00 PKD
ROOT
HETATM    1  C   UNK A   1     -11.013   7.269  72.311  1.00  0.00    -0.286 C  
HETATM    2  C   UNK A   1     -12.390   6.636  72.034  1.00  0.00    -0.316 C  
HETATM    3  C   UNK A   1     -13.267   7.757  71.492  1.00  0.00    -0.356 C  
HETATM    4  C   UNK A   1     -12.548   9.029  71.904  1.00  0.00    -0.452 C  
HETATM    5  C   UNK A   1     -11.069   8.693  71.732  1.00  0.00    -0.326 C  
HETATM    6  N   UNK A   1     -10.556   8.547  70.361  1.00  0.00    -0.217 N  
HETATM    7  C   UNK A   1     -10.294   9.574  69.454  1.00  0.00    -0.214 C  
HETATM    8  C   UNK A   1      -9.743   7.303  70.242  1.00  0.00    -0.175 C  
HETATM    9  C   UNK A   1     -10.112   6.300  69.131  1.00  0.00    -0.168 C  
HETATM   10  C   UNK A   1      -9.852   6.597  71.599  1.00  0.00    -0.177 C  
HETATM   11  O   UNK A   1      -9.656   9.305  68.428  1.00  0.00    -0.145 OA 
HETATM   12  O   UNK A   1     -11.165   6.681  68.370  1.00  0.00    -0.230 OA 
HETATM   13  O   UNK A   1      -9.545   5.235  68.965  1.00  0.00    -0.126 OA 
ENDROOT
BRANCH   7  14
HETATM   14  C   UNK A   1     -10.838  11.012  69.675  1.00  0.00    -0.183 C  
HETATM   15  C   UNK A   1     -12.272  11.110  69.128  1.00  0.00    -0.244 C  
BRANCH  14  16
HETATM   16  N   UNK A   1      -9.943  11.996  69.019  1.00  0.00    -0.415 NA 
HETATM   17  H   UNK A   1      -9.308  11.530  68.371  1.00  0.00     0.000 HD 
BRANCH  16  18
HETATM   18  C   UNK A   0     -10.676  13.106  68.336  1.00  0.00    -0.253 C  
BRANCH  18  19
HETATM   19  C   UNK A   0     -10.718  14.347  69.228  1.00  0.00    -0.225 C  
BRANCH  19  20
HETATM   20  C   UNK A   0     -12.071  15.075  69.246  1.00  0.00    -0.282 C  
BRANCH  20  21
HETATM   21  C   UNK A   0     -12.493  15.204  70.690  1.00  0.00    -0.442 A  
HETATM   22  C   UNK A   0     -13.334  14.245  71.270  1.00  0.00    -0.388 A  
HETATM   23  C   UNK A   0     -11.899  16.180  71.505  1.00  0.00    -0.528 A  
HETATM   24  C   UNK A   0     -13.538  14.229  72.648  1.00  0.00    -0.601 A  
HETATM   25  C   UNK A   0     -12.108  16.163  72.883  1.00  0.00    -0.643 A  
HETATM   26  C   UNK A   0     -12.911  15.179  73.455  1.00  0.00    -0.661 A  
ENDBRANCH  20  21
ENDBRANCH  19  20
ENDBRANCH  18  19
BRANCH  18  27
HETATM   27  C   UNK A   0     -10.002  13.421  66.986  1.00  0.00    -0.246 C  
HETATM   28  O   UNK A   0     -10.580  13.748  65.959  1.00  0.00    -0.282 OA 
BRANCH  27  29
HETATM   29  O   UNK A   0      -8.647  13.285  67.119  1.00  0.00    -0.201 OA 
BRANCH  29  30
HETATM   30  C   UNK A   0      -7.917  14.482  67.432  1.00  0.00    -0.200 C  
HETATM   31  C   UNK A   0      -8.255  15.595  66.457  1.00  0.00    -0.227 C  
ENDBRANCH  29  30
ENDBRANCH  27  29
ENDBRANCH  18  27
ENDBRANCH  16  18
ENDBRANCH  14  16
ENDBRANCH   7  14
TORSDOF 9
ENDMDL
MODEL       62
REMARK 921   NORMALIZED FREE ENERGY PREDICTED BY IDOCK:   -5.58 KCAL/MOL
REMARK 922        TOTAL FREE ENERGY PREDICTED BY IDOCK:  -10.14 KCAL/MOL
REMARK 923 INTER-LIGAND FREE ENERGY PREDICTED BY IDOCK:   -9.15 KCAL/MOL
REMARK 924 INTRA-LIGAND FREE ENERGY PREDICTED BY IDOCK:   -0.99 KCAL/MOL
REMARK 927      BINDING AFFINITY PREDICTED BY RF-SCORE:    0.00 PKD
ROOT
HETATM    1  C   UNK A   1     -11.852  14.823  66.371  1.00  0.00    -0.231 C  
HETATM    2  C   UNK A   1     -11.020  15.587  65.322  1.00  0.00    -0.391 C  
HETATM    3  C   UNK A   1      -9.563  15.265  65.625  1.00  0.00    -0.313 C  
HETATM    4  C   UNK A   1      -9.582  14.742  67.050  1.00  0.00    -0.248 C  
HETATM    5  C   UNK A   1     -10.864  13.917  67.127  1.00  0.00    -0.284 C  
HETATM    6  N   UNK A   1     -10.903  12.644  66.390  1.00  0.00    -0.264 N  
HETATM    7  C   UNK A   1     -10.271  11.453  66.748  1.00  0.00    -0.223 C  
HETATM    8  C   UNK A   1     -12.163  12.541  65.601  1.00  0.00    -0.335 C  
HETATM    9  C   UNK A   1     -12.051  12.247  64.092  1.00  0.00    -0.436 C  
HETATM   10  C   UNK A   1     -12.890  13.879  65.789  1.00  0.00    -0.437 C  
HETATM   11  O   UNK A   1     -10.584  10.417  66.149  1.00  0.00    -0.187 OA 
HETATM   12  O   UNK A   1     -10.779  12.114  63.648  1.00  0.00    -0.388 OA 
HETATM   13  O   UNK A   1     -13.008  12.182  63.342  1.00  0.00    -0.776 OA 
ENDROOT
BRANCH   7  14
HETATM   14  C   UNK A   1      -9.151  11.419  67.824  1.00  0.00    -0.158 C  
HETATM   15  C   UNK A   1      -8.281  10.168  67.622  1.00  0.00    -0.110 C  
BRANCH  14  16
HETATM   16  N   UNK A   1      -9.754  11.443  69.179  1.00  0.00    -0.415 NA 
HETATM   17  H   UNK A   1      -9.662  12.368  69.599  1.00  0.00     0.000 HD 
BRANCH  16  18
HETATM   18  C   UNK A   0     -11.178  10.988  69.206  1.00  0.00    -0.257 C  
BRANCH  18  19
HETATM   19  C   UNK A   0     -11.262   9.512  69.593  1.00  0.00    -0.138 C  
BRANCH  19  20
HETATM   20  C   UNK A   0     -10.334   9.100  70.745  1.00  0.00    -0.323 C  
BRANCH  20  21
HETATM   21  C   UNK A   0     -10.049   7.626  70.589  1.00  0.00    -0.187 A  
HETATM   22  C   UNK A   0      -9.406   6.917  71.612  1.00  0.00    -0.154 A  
HETATM   23  C   UNK A   0     -10.587   6.924  69.500  1.00  0.00    -0.261 A  
HETATM   24  C   UNK A   0      -9.349   5.525  71.575  1.00  0.00    -0.172 A  
HETATM   25  C   UNK A   0     -10.525   5.532  69.465  1.00  0.00    -0.368 A  
HETATM   26  C   UNK A   0      -9.923   4.834  70.508  1.00  0.00    -0.306 A  
ENDBRANCH  20  21
ENDBRANCH  19  20
ENDBRANCH  18  19
BRANCH  18  27
HETATM   27  C   UNK A   0     -11.984  11.861  70.189  1.00  0.00    -0.332 C  
HETATM   28  O   UNK A   0     -12.634  11.450  71.139  1.00  0.00    -0.394 OA 
BRANCH  27  29
HETATM   29  O   UNK A   0     -11.850  13.176  69.835  1.00  0.00    -0.317 OA 
BRANCH  29  30
HETATM   30  C   UNK A   0     -12.131  14.141  70.860  1.00  0.00    -0.344 C  
HETATM   31  C   UNK A   0     -12.451  15.497  70.257  1.00  0.00    -0.403 C  
ENDBRANCH  29  30
ENDBRANCH  27  29
ENDBRANCH  18  27
ENDBRANCH  16  18
ENDBRANCH  14  16
ENDBRANCH   7  14
TORSDOF 9
ENDMDL
MODEL       63
REMARK 921   NORMALIZED FREE ENERGY PREDICTED BY IDOCK:   -5.53 KCAL/MOL
REMARK 922        TOTAL FREE ENERGY PREDICTED BY IDOCK:  -10.07 KCAL/MOL
REMARK 923 INTER-LIGAND FREE ENERGY PREDICTED BY IDOCK:   -8.90 KCAL/MOL
REMARK 924 INTRA-LIGAND FREE ENERGY PREDICTED BY IDOCK:   -1.17 KCAL/MOL
REMARK 927      BINDING AFFINITY PREDICTED BY RF-SCORE:    0.00 PKD
ROOT
HETATM    1  C   UNK A   1      -9.445  10.358  66.168  1.00  0.00    -0.227 C  
HETATM    2  C   UNK A   1      -8.671   9.548  67.226  1.00  0.00    -0.132 C  
HETATM    3  C   UNK A   1      -7.553  10.458  67.718  1.00  0.00    -0.089 C  
HETATM    4  C   UNK A   1      -7.436  11.525  66.644  1.00  0.00    -0.078 C  
HETATM    5  C   UNK A   1      -8.879  11.788  66.222  1.00  0.00    -0.142 C  
HETATM    6  N   UNK A   1      -9.753  12.487  67.177  1.00  0.00    -0.202 N  
HETATM    7  C   UNK A   1      -9.733  13.847  67.486  1.00  0.00    -0.232 C  
HETATM    8  C   UNK A   1     -11.057  11.776  67.303  1.00  0.00    -0.287 C  
HETATM    9  C   UNK A   1     -11.530  11.374  68.714  1.00  0.00    -0.290 C  
HETATM   10  C   UNK A   1     -10.930  10.508  66.447  1.00  0.00    -0.019 C  
HETATM   11  O   UNK A   1     -10.675  14.318  68.135  1.00  0.00    -0.236 OA 
HETATM   12  O   UNK A   1     -10.677  11.728  69.704  1.00  0.00    -0.008 OA 
HETATM   13  O   UNK A   1     -12.556  10.755  68.933  1.00  0.00    -0.283 OA 
ENDROOT
BRANCH   7  14
HETATM   14  C   UNK A   1      -8.533  14.752  67.091  1.00  0.00    -0.223 C  
HETATM   15  C   UNK A   1      -8.181  15.681  68.265  1.00  0.00    -0.142 C  
BRANCH  14  16
HETATM   16  N   UNK A   1      -8.867  15.528  65.872  1.00  0.00    -0.376 NA 
HETATM   17  H   UNK A   1      -8.798  14.941  65.040  1.00  0.00     0.000 HD 
BRANCH  16  18
HETATM   18  C   UNK A   0     -10.204  16.196  65.938  1.00  0.00    -0.360 C  
BRANCH  18  19
HETATM   19  C   UNK A   0     -10.040  17.714  66.009  1.00  0.00    -0.263 C  
BRANCH  19  20
HETATM   20  C   UNK A   0     -10.151  18.304  67.423  1.00  0.00    -0.364 C  
BRANCH  20  21
HETATM   21  C   UNK A   0      -8.982  19.240  67.614  1.00  0.00    -0.346 A  
HETATM   22  C   UNK A   0      -8.213  19.182  68.784  1.00  0.00    -0.382 A  
HETATM   23  C   UNK A   0      -8.551  20.043  66.548  1.00  0.00    -0.366 A  
HETATM   24  C   UNK A   0      -7.006  19.874  68.867  1.00  0.00    -0.345 A  
HETATM   25  C   UNK A   0      -7.346  20.736  66.635  1.00  0.00    -0.203 A  
HETATM   26  C   UNK A   0      -6.566  20.637  67.785  1.00  0.00    -0.368 A  
ENDBRANCH  20  21
ENDBRANCH  19  20
ENDBRANCH  18  19
BRANCH  18  27
HETATM   27  C   UNK A   0     -11.049  15.790  64.714  1.00  0.00    -0.400 C  
HETATM   28  O   UNK A   0     -11.643  16.559  63.972  1.00  0.00    -1.154 OA 
BRANCH  27  29
HETATM   29  O   UNK A   0     -11.023  14.429  64.583  1.00  0.00    -0.390 OA 
BRANCH  29  30
HETATM   30  C   UNK A   0     -12.300  13.773  64.523  1.00  0.00    -0.358 C  
HETATM   31  C   UNK A   0     -12.268  12.612  63.546  1.00  0.00    -0.638 C  
ENDBRANCH  29  30
ENDBRANCH  27  29
ENDBRANCH  18  27
ENDBRANCH  16  18
ENDBRANCH  14  16
ENDBRANCH   7  14
TORSDOF 9
ENDMDL
MODEL       64
REMARK 921   NORMALIZED FREE ENERGY PREDICTED BY IDOCK:   -5.52 KCAL/MOL
REMARK 922        TOTAL FREE ENERGY PREDICTED BY IDOCK:  -10.06 KCAL/MOL
REMARK 923 INTER-LIGAND FREE ENERGY PREDICTED BY IDOCK:   -9.04 KCAL/MOL
REMARK 924 INTRA-LIGAND FREE ENERGY PREDICTED BY IDOCK:   -1.01 KCAL/MOL
REMARK 927      BINDING AFFINITY PREDICTED BY RF-SCORE:    0.00 PKD
ROOT
HETATM    1  C   UNK A   1      -7.015  11.267  67.122  1.00  0.00    -0.114 C  
HETATM    2  C   UNK A   1      -7.244  10.230  68.240  1.00  0.00    -0.083 C  
HETATM    3  C   UNK A   1      -8.605  10.553  68.842  1.00  0.00    -0.153 C  
HETATM    4  C   UNK A   1      -8.884  11.978  68.396  1.00  0.00    -0.149 C  
HETATM    5  C   UNK A   1      -8.339  12.036  66.972  1.00  0.00    -0.178 C  
HETATM    6  N   UNK A   1      -9.070  11.299  65.930  1.00  0.00    -0.204 N  
HETATM    7  C   UNK A   1     -10.281  11.666  65.342  1.00  0.00    -0.263 C  
HETATM    8  C   UNK A   1      -8.126  10.492  65.106  1.00  0.00    -0.112 C  
HETATM    9  C   UNK A   1      -8.407   8.984  64.949  1.00  0.00    -0.169 C  
HETATM   10  C   UNK A   1      -6.745  10.670  65.751  1.00  0.00    -0.097 C  
HETATM   11  O   UNK A   1     -10.649  11.062  64.327  1.00  0.00    -0.357 OA 
HETATM   12  O   UNK A   1      -9.516   8.559  65.599  1.00  0.00    -0.133 OA 
HETATM   13  O   UNK A   1      -7.684   8.221  64.336  1.00  0.00    -0.109 OA 
ENDROOT
BRANCH   7  14
HETATM   14  C   UNK A   1     -11.191  12.758  65.969  1.00  0.00    -0.299 C  
HETATM   15  C   UNK A   1     -12.556  12.758  65.262  1.00  0.00    -0.460 C  
BRANCH  14  16
HETATM   16  N   UNK A   1     -10.531  14.082  65.867  1.00  0.00    -0.300 NA 
HETATM   17  H   UNK A   1     -10.571  14.433  64.910  1.00  0.00     0.000 HD 
BRANCH  16  18
HETATM   18  C   UNK A   0     -11.076  15.094  66.825  1.00  0.00    -0.307 C  
BRANCH  18  19
HETATM   19  C   UNK A   0     -10.888  14.621  68.266  1.00  0.00    -0.249 C  
BRANCH  19  20
HETATM   20  C   UNK A   0     -12.153  14.044  68.919  1.00  0.00    -0.351 C  
BRANCH  20  21
HETATM   21  C   UNK A   0     -12.211  14.571  70.332  1.00  0.00    -0.394 A  
HETATM   22  C   UNK A   0     -11.490  15.718  70.690  1.00  0.00    -0.415 A  
HETATM   23  C   UNK A   0     -13.127  14.024  71.243  1.00  0.00    -0.399 A  
HETATM   24  C   UNK A   0     -11.718  16.340  71.916  1.00  0.00    -0.518 A  
HETATM   25  C   UNK A   0     -13.350  14.646  72.470  1.00  0.00    -0.542 A  
HETATM   26  C   UNK A   0     -12.660  15.811  72.798  1.00  0.00    -0.547 A  
ENDBRANCH  20  21
ENDBRANCH  19  20
ENDBRANCH  18  19
BRANCH  18  27
HETATM   27  C   UNK A   0     -10.381  16.451  66.596  1.00  0.00    -0.292 C  
HETATM   28  O   UNK A   0      -9.834  16.807  65.562  1.00  0.00    -0.564 OA 
BRANCH  27  29
HETATM   29  O   UNK A   0     -10.480  17.204  67.735  1.00  0.00    -0.336 OA 
BRANCH  29  30
HETATM   30  C   UNK A   0     -10.590  18.623  67.550  1.00  0.00    -0.423 C  
HETATM   31  C   UNK A   0      -9.933  19.373  68.695  1.00  0.00    -0.527 C  
ENDBRANCH  29  30
ENDBRANCH  27  29
ENDBRANCH  18  27
ENDBRANCH  16  18
ENDBRANCH  14  16
ENDBRANCH   7  14
TORSDOF 9
ENDMDL
MODEL       65
REMARK 921   NORMALIZED FREE ENERGY PREDICTED BY IDOCK:   -5.51 KCAL/MOL
REMARK 922        TOTAL FREE ENERGY PREDICTED BY IDOCK:  -10.04 KCAL/MOL
REMARK 923 INTER-LIGAND FREE ENERGY PREDICTED BY IDOCK:   -8.66 KCAL/MOL
REMARK 924 INTRA-LIGAND FREE ENERGY PREDICTED BY IDOCK:   -1.38 KCAL/MOL
REMARK 927      BINDING AFFINITY PREDICTED BY RF-SCORE:    0.00 PKD
ROOT
HETATM    1  C   UNK A   1      -8.525   6.924  70.263  1.00  0.00    -0.139 C  
HETATM    2  C   UNK A   1      -7.640   7.212  71.492  1.00  0.00    -0.088 C  
HETATM    3  C   UNK A   1      -7.776   8.703  71.768  1.00  0.00    -0.131 C  
HETATM    4  C   UNK A   1      -8.324   9.277  70.473  1.00  0.00    -0.237 C  
HETATM    5  C   UNK A   1      -9.308   8.218  69.984  1.00  0.00    -0.162 C  
HETATM    6  N   UNK A   1     -10.562   8.052  70.736  1.00  0.00    -0.211 N  
HETATM    7  C   UNK A   1     -11.667   8.902  70.714  1.00  0.00    -0.230 C  
HETATM    8  C   UNK A   1     -10.813   6.609  71.011  1.00  0.00    -0.245 C  
HETATM    9  C   UNK A   1     -11.062   6.182  72.472  1.00  0.00    -0.274 C  
HETATM   10  C   UNK A   1      -9.585   5.858  70.482  1.00  0.00    -0.208 C  
HETATM   11  O   UNK A   1     -12.724   8.508  71.222  1.00  0.00    -0.289 OA 
HETATM   12  O   UNK A   1     -11.022   7.203  73.360  1.00  0.00    -0.332 OA 
HETATM   13  O   UNK A   1     -11.237   5.028  72.819  1.00  0.00    -0.251 OA 
ENDROOT
BRANCH   7  14
HETATM   14  C   UNK A   1     -11.575  10.339  70.130  1.00  0.00    -0.299 C  
HETATM   15  C   UNK A   1     -12.389  11.304  71.009  1.00  0.00    -0.472 C  
BRANCH  14  16
HETATM   16  N   UNK A   1     -12.062  10.346  68.729  1.00  0.00    -0.728 NA 
HETATM   17  H   UNK A   1     -12.985  10.776  68.670  1.00  0.00     0.000 HD 
BRANCH  16  18
HETATM   18  C   UNK A   0     -11.113  10.993  67.772  1.00  0.00    -0.295 C  
BRANCH  18  19
HETATM   19  C   UNK A   0     -10.167  11.938  68.513  1.00  0.00    -0.221 C  
BRANCH  19  20
HETATM   20  C   UNK A   0     -10.618  13.406  68.534  1.00  0.00    -0.264 C  
BRANCH  20  21
HETATM   21  C   UNK A   0     -10.940  13.798  67.112  1.00  0.00    -0.299 A  
HETATM   22  C   UNK A   0     -12.263  13.760  66.650  1.00  0.00    -0.454 A  
HETATM   23  C   UNK A   0      -9.948  14.374  66.306  1.00  0.00    -0.320 A  
HETATM   24  C   UNK A   0     -12.597  14.336  65.426  1.00  0.00    -0.422 A  
HETATM   25  C   UNK A   0     -10.285  14.946  65.081  1.00  0.00    -0.409 A  
HETATM   26  C   UNK A   0     -11.609  14.942  64.650  1.00  0.00    -0.395 A  
ENDBRANCH  20  21
ENDBRANCH  19  20
ENDBRANCH  18  19
BRANCH  18  27
HETATM   27  C   UNK A   0     -10.324   9.909  67.011  1.00  0.00    -0.239 C  
HETATM   28  O   UNK A   0     -10.641   8.732  66.915  1.00  0.00    -0.276 OA 
BRANCH  27  29
HETATM   29  O   UNK A   0      -9.211  10.474  66.451  1.00  0.00    -0.161 OA 
BRANCH  29  30
HETATM   30  C   UNK A   0      -9.090  10.357  65.024  1.00  0.00    -0.203 C  
HETATM   31  C   UNK A   0     -10.385  10.749  64.336  1.00  0.00    -0.405 C  
ENDBRANCH  29  30
ENDBRANCH  27  29
ENDBRANCH  18  27
ENDBRANCH  16  18
ENDBRANCH  14  16
ENDBRANCH   7  14
TORSDOF 9
ENDMDL
MODEL       66
REMARK 921   NORMALIZED FREE ENERGY PREDICTED BY IDOCK:   -5.51 KCAL/MOL
REMARK 922        TOTAL FREE ENERGY PREDICTED BY IDOCK:  -10.04 KCAL/MOL
REMARK 923 INTER-LIGAND FREE ENERGY PREDICTED BY IDOCK:   -8.22 KCAL/MOL
REMARK 924 INTRA-LIGAND FREE ENERGY PREDICTED BY IDOCK:   -1.82 KCAL/MOL
REMARK 927      BINDING AFFINITY PREDICTED BY RF-SCORE:    0.00 PKD
ROOT
HETATM    1  C   UNK A   1      -8.479  10.267  66.277  1.00  0.00    -0.138 C  
HETATM    2  C   UNK A   1      -6.974  10.532  66.477  1.00  0.00    -0.115 C  
HETATM    3  C   UNK A   1      -6.809  10.949  67.933  1.00  0.00    -0.068 C  
HETATM    4  C   UNK A   1      -8.208  11.350  68.369  1.00  0.00    -0.151 C  
HETATM    5  C   UNK A   1      -9.118  10.340  67.675  1.00  0.00    -0.137 C  
HETATM    6  N   UNK A   1      -9.092   8.951  68.159  1.00  0.00    -0.140 N  
HETATM    7  C   UNK A   1      -9.667   8.465  69.333  1.00  0.00    -0.177 C  
HETATM    8  C   UNK A   1      -8.972   8.006  67.012  1.00  0.00    -0.138 C  
HETATM    9  C   UNK A   1      -7.829   6.972  67.042  1.00  0.00    -0.108 C  
HETATM   10  C   UNK A   1      -8.814   8.879  65.761  1.00  0.00    -0.223 C  
HETATM   11  O   UNK A   1      -9.753   7.240  69.483  1.00  0.00    -0.158 OA 
HETATM   12  O   UNK A   1      -7.045   7.047  68.143  1.00  0.00    -0.080 OA 
HETATM   13  O   UNK A   1      -7.610   6.179  66.144  1.00  0.00    -0.087 OA 
ENDROOT
BRANCH   7  14
HETATM   14  C   UNK A   1     -10.134   9.421  70.465  1.00  0.00    -0.275 C  
HETATM   15  C   UNK A   1     -10.081   8.685  71.814  1.00  0.00    -0.380 C  
BRANCH  14  16
HETATM   16  N   UNK A   1     -11.501   9.916  70.174  1.00  0.00    -0.302 NA 
HETATM   17  H   UNK A   1     -12.182   9.485  70.799  1.00  0.00     0.000 HD 
BRANCH  16  18
HETATM   18  C   UNK A   0     -11.616  11.407  70.213  1.00  0.00    -0.243 C  
BRANCH  18  19
HETATM   19  C   UNK A   0     -12.010  11.950  68.840  1.00  0.00    -0.313 C  
BRANCH  19  20
HETATM   20  C   UNK A   0     -11.347  13.283  68.465  1.00  0.00    -0.319 C  
BRANCH  20  21
HETATM   21  C   UNK A   0     -11.248  13.330  66.960  1.00  0.00    -0.319 A  
HETATM   22  C   UNK A   0     -10.667  14.434  66.322  1.00  0.00    -0.307 A  
HETATM   23  C   UNK A   0     -11.570  12.192  66.205  1.00  0.00    -0.424 A  
HETATM   24  C   UNK A   0     -10.364  14.382  64.963  1.00  0.00    -0.449 A  
HETATM   25  C   UNK A   0     -11.268  12.145  64.845  1.00  0.00    -0.374 A  
HETATM   26  C   UNK A   0     -10.650  13.231  64.230  1.00  0.00    -0.402 A  
ENDBRANCH  20  21
ENDBRANCH  19  20
ENDBRANCH  18  19
BRANCH  18  27
HETATM   27  C   UNK A   0     -12.645  11.820  71.284  1.00  0.00    -0.296 C  
HETATM   28  O   UNK A   0     -13.266  11.056  72.009  1.00  0.00    -0.499 OA 
BRANCH  27  29
HETATM   29  O   UNK A   0     -12.750  13.184  71.303  1.00  0.00    -0.363 OA 
BRANCH  29  30
HETATM   30  C   UNK A   0     -13.713  13.734  72.215  1.00  0.00    -0.575 C  
HETATM   31  C   UNK A   0     -14.393  14.954  71.619  1.00  0.00    -0.660 C  
ENDBRANCH  29  30
ENDBRANCH  27  29
ENDBRANCH  18  27
ENDBRANCH  16  18
ENDBRANCH  14  16
ENDBRANCH   7  14
TORSDOF 9
ENDMDL
MODEL       67
REMARK 921   NORMALIZED FREE ENERGY PREDICTED BY IDOCK:   -5.47 KCAL/MOL
REMARK 922        TOTAL FREE ENERGY PREDICTED BY IDOCK:   -9.99 KCAL/MOL
REMARK 923 INTER-LIGAND FREE ENERGY PREDICTED BY IDOCK:   -8.32 KCAL/MOL
REMARK 924 INTRA-LIGAND FREE ENERGY PREDICTED BY IDOCK:   -1.67 KCAL/MOL
REMARK 927      BINDING AFFINITY PREDICTED BY RF-SCORE:    0.00 PKD
ROOT
HETATM    1  C   UNK A   1     -10.659   6.830  67.091  1.00  0.00    -0.401 C  
HETATM    2  C   UNK A   1      -9.291   6.204  66.756  1.00  0.00    -0.152 C  
HETATM    3  C   UNK A   1      -8.365   7.368  66.427  1.00  0.00    -0.127 C  
HETATM    4  C   UNK A   1      -9.305   8.524  66.134  1.00  0.00    -0.279 C  
HETATM    5  C   UNK A   1     -10.435   8.351  67.145  1.00  0.00    -0.310 C  
HETATM    6  N   UNK A   1     -10.135   8.623  68.559  1.00  0.00    -0.185 N  
HETATM    7  C   UNK A   1      -9.973   9.875  69.152  1.00  0.00    -0.198 C  
HETATM    8  C   UNK A   1     -10.648   7.519  69.419  1.00  0.00    -0.223 C  
HETATM    9  C   UNK A   1      -9.662   6.837  70.388  1.00  0.00    -0.175 C  
HETATM   10  C   UNK A   1     -11.206   6.461  68.459  1.00  0.00    -0.321 C  
HETATM   11  O   UNK A   1      -9.949   9.944  70.387  1.00  0.00    -0.259 OA 
HETATM   12  O   UNK A   1      -8.405   7.339  70.341  1.00  0.00    -0.127 OA 
HETATM   13  O   UNK A   1      -9.958   5.900  71.107  1.00  0.00    -0.180 OA 
ENDROOT
BRANCH   7  14
HETATM   14  C   UNK A   1      -9.758  11.156  68.299  1.00  0.00    -0.188 C  
HETATM   15  C   UNK A   1      -8.253  11.396  68.101  1.00  0.00    -0.143 C  
BRANCH  14  16
HETATM   16  N   UNK A   1     -10.406  12.315  68.961  1.00  0.00    -0.423 NA 
HETATM   17  H   UNK A   1      -9.745  13.084  69.071  1.00  0.00     0.000 HD 
BRANCH  16  18
HETATM   18  C   UNK A   0     -11.647  12.780  68.268  1.00  0.00    -0.334 C  
BRANCH  18  19
HETATM   19  C   UNK A   0     -12.056  14.164  68.772  1.00  0.00    -0.326 C  
BRANCH  19  20
HETATM   20  C   UNK A   0     -11.056  14.811  69.742  1.00  0.00    -0.288 C  
BRANCH  20  21
HETATM   21  C   UNK A   0     -10.322  15.887  68.980  1.00  0.00    -0.231 A  
HETATM   22  C   UNK A   0     -11.008  17.015  68.509  1.00  0.00    -0.247 A  
HETATM   23  C   UNK A   0      -8.922  15.852  68.900  1.00  0.00    -0.228 A  
HETATM   24  C   UNK A   0     -10.304  18.111  68.014  1.00  0.00    -0.405 A  
HETATM   25  C   UNK A   0      -8.221  16.949  68.402  1.00  0.00    -0.232 A  
HETATM   26  C   UNK A   0      -8.910  18.083  67.977  1.00  0.00    -0.278 A  
ENDBRANCH  20  21
ENDBRANCH  19  20
ENDBRANCH  18  19
BRANCH  18  27
HETATM   27  C   UNK A   0     -11.415  12.796  66.744  1.00  0.00    -0.343 C  
HETATM   28  O   UNK A   0     -12.025  12.125  65.923  1.00  0.00    -0.561 OA 
BRANCH  27  29
HETATM   29  O   UNK A   0     -10.421  13.688  66.450  1.00  0.00    -0.280 OA 
BRANCH  29  30
HETATM   30  C   UNK A   0     -10.417  14.217  65.115  1.00  0.00    -0.411 C  
HETATM   31  C   UNK A   0     -10.784  15.690  65.113  1.00  0.00    -0.463 C  
ENDBRANCH  29  30
ENDBRANCH  27  29
ENDBRANCH  18  27
ENDBRANCH  16  18
ENDBRANCH  14  16
ENDBRANCH   7  14
TORSDOF 9
ENDMDL
MODEL       68
REMARK 921   NORMALIZED FREE ENERGY PREDICTED BY IDOCK:   -5.46 KCAL/MOL
REMARK 922        TOTAL FREE ENERGY PREDICTED BY IDOCK:   -9.97 KCAL/MOL
REMARK 923 INTER-LIGAND FREE ENERGY PREDICTED BY IDOCK:   -8.37 KCAL/MOL
REMARK 924 INTRA-LIGAND FREE ENERGY PREDICTED BY IDOCK:   -1.59 KCAL/MOL
REMARK 927      BINDING AFFINITY PREDICTED BY RF-SCORE:    0.00 PKD
ROOT
HETATM    1  C   UNK A   1     -11.405   8.146  72.496  1.00  0.00    -0.469 C  
HETATM    2  C   UNK A   1     -12.869   7.694  72.325  1.00  0.00    -0.064 C  
HETATM    3  C   UNK A   1     -13.541   8.757  71.466  1.00  0.00    -0.374 C  
HETATM    4  C   UNK A   1     -12.618   9.959  71.567  1.00  0.00    -0.513 C  
HETATM    5  C   UNK A   1     -11.217   9.354  71.562  1.00  0.00    -0.386 C  
HETATM    6  N   UNK A   1     -10.729   8.767  70.304  1.00  0.00    -0.222 N  
HETATM    7  C   UNK A   1     -10.292   9.459  69.175  1.00  0.00    -0.211 C  
HETATM    8  C   UNK A   1     -10.138   7.422  70.555  1.00  0.00    -0.191 C  
HETATM    9  C   UNK A   1     -10.666   6.233  69.728  1.00  0.00    -0.297 C  
HETATM   10  C   UNK A   1     -10.372   7.130  72.043  1.00  0.00    -0.214 C  
HETATM   11  O   UNK A   1      -9.704   8.828  68.288  1.00  0.00    -0.152 OA 
HETATM   12  O   UNK A   1     -11.636   6.563  68.843  1.00  0.00    -0.195 OA 
HETATM   13  O   UNK A   1     -10.287   5.085  69.875  1.00  0.00    -0.279 OA 
ENDROOT
BRANCH   7  14
HETATM   14  C   UNK A   1     -10.586  10.973  68.985  1.00  0.00    -0.225 C  
HETATM   15  C   UNK A   1     -11.774  11.150  68.025  1.00  0.00    -0.288 C  
BRANCH  14  16
HETATM   16  N   UNK A   1      -9.375  11.661  68.476  1.00  0.00    -0.269 NA 
HETATM   17  H   UNK A   1      -8.540  11.103  68.655  1.00  0.00     0.000 HD 
BRANCH  16  18
HETATM   18  C   UNK A   0      -9.464  12.032  67.030  1.00  0.00    -0.198 C  
BRANCH  18  19
HETATM   19  C   UNK A   0      -9.288  13.540  66.852  1.00  0.00    -0.255 C  
BRANCH  19  20
HETATM   20  C   UNK A   0     -10.404  14.223  66.049  1.00  0.00    -0.318 C  
BRANCH  20  21
HETATM   21  C   UNK A   0     -10.592  15.606  66.625  1.00  0.00    -0.307 A  
HETATM   22  C   UNK A   0     -10.802  15.778  68.000  1.00  0.00    -0.309 A  
HETATM   23  C   UNK A   0     -10.374  16.732  65.817  1.00  0.00    -0.322 A  
HETATM   24  C   UNK A   0     -10.743  17.049  68.567  1.00  0.00    -0.352 A  
HETATM   25  C   UNK A   0     -10.320  18.003  66.387  1.00  0.00    -0.382 A  
HETATM   26  C   UNK A   0     -10.486  18.159  67.761  1.00  0.00    -0.421 A  
ENDBRANCH  20  21
ENDBRANCH  19  20
ENDBRANCH  18  19
BRANCH  18  27
HETATM   27  C   UNK A   0      -8.400  11.256  66.229  1.00  0.00    -0.142 C  
HETATM   28  O   UNK A   0      -7.360  10.797  66.682  1.00  0.00    -0.120 OA 
BRANCH  27  29
HETATM   29  O   UNK A   0      -8.805  11.152  64.926  1.00  0.00    -0.114 OA 
BRANCH  29  30
HETATM   30  C   UNK A   0     -10.167  10.748  64.716  1.00  0.00    -0.334 C  
HETATM   31  C   UNK A   0     -10.756  11.436  63.497  1.00  0.00    -0.453 C  
ENDBRANCH  29  30
ENDBRANCH  27  29
ENDBRANCH  18  27
ENDBRANCH  16  18
ENDBRANCH  14  16
ENDBRANCH   7  14
TORSDOF 9
ENDMDL
MODEL       69
REMARK 921   NORMALIZED FREE ENERGY PREDICTED BY IDOCK:   -5.45 KCAL/MOL
REMARK 922        TOTAL FREE ENERGY PREDICTED BY IDOCK:   -9.95 KCAL/MOL
REMARK 923 INTER-LIGAND FREE ENERGY PREDICTED BY IDOCK:   -8.66 KCAL/MOL
REMARK 924 INTRA-LIGAND FREE ENERGY PREDICTED BY IDOCK:   -1.28 KCAL/MOL
REMARK 927      BINDING AFFINITY PREDICTED BY RF-SCORE:    0.00 PKD
ROOT
HETATM    1  C   UNK A   1     -11.659  14.955  66.525  1.00  0.00    -0.254 C  
HETATM    2  C   UNK A   1     -10.428  15.570  65.830  1.00  0.00    -0.378 C  
HETATM    3  C   UNK A   1      -9.212  15.026  66.568  1.00  0.00    -0.320 C  
HETATM    4  C   UNK A   1      -9.768  14.525  67.889  1.00  0.00    -0.218 C  
HETATM    5  C   UNK A   1     -11.116  13.912  67.517  1.00  0.00    -0.286 C  
HETATM    6  N   UNK A   1     -11.108  12.655  66.754  1.00  0.00    -0.266 N  
HETATM    7  C   UNK A   1     -10.813  11.383  67.244  1.00  0.00    -0.263 C  
HETATM    8  C   UNK A   1     -12.047  12.744  65.600  1.00  0.00    -0.459 C  
HETATM    9  C   UNK A   1     -11.501  12.423  64.195  1.00  0.00    -0.381 C  
HETATM   10  C   UNK A   1     -12.585  14.180  65.604  1.00  0.00    -0.495 C  
HETATM   11  O   UNK A   1     -11.069  10.403  66.533  1.00  0.00    -0.025 OA 
HETATM   12  O   UNK A   1     -10.190  12.087  64.175  1.00  0.00    -0.299 OA 
HETATM   13  O   UNK A   1     -12.165  12.502  63.177  1.00  0.00    -0.462 OA 
ENDROOT
BRANCH   7  14
HETATM   14  C   UNK A   1     -10.117  11.183  68.619  1.00  0.00    -0.200 C  
HETATM   15  C   UNK A   1      -8.591  11.191  68.429  1.00  0.00    -0.152 C  
BRANCH  14  16
HETATM   16  N   UNK A   1     -10.576   9.915  69.236  1.00  0.00    -0.212 NA 
HETATM   17  H   UNK A   1     -11.162   9.389  68.588  1.00  0.00     0.000 HD 
BRANCH  16  18
HETATM   18  C   UNK A   0      -9.459   9.064  69.751  1.00  0.00    -0.175 C  
BRANCH  18  19
HETATM   19  C   UNK A   0      -9.518   8.969  71.276  1.00  0.00    -0.339 C  
BRANCH  19  20
HETATM   20  C   UNK A   0     -10.935   8.852  71.855  1.00  0.00    -0.439 C  
BRANCH  20  21
HETATM   21  C   UNK A   0     -10.991   7.571  72.652  1.00  0.00    -0.385 A  
HETATM   22  C   UNK A   0     -11.615   6.434  72.122  1.00  0.00    -0.357 A  
HETATM   23  C   UNK A   0     -10.262   7.461  73.845  1.00  0.00    -0.218 A  
HETATM   24  C   UNK A   0     -11.469   5.196  72.745  1.00  0.00    -0.284 A  
HETATM   25  C   UNK A   0     -10.120   6.222  74.467  1.00  0.00    -0.353 A  
HETATM   26  C   UNK A   0     -10.708   5.089  73.909  1.00  0.00    -0.356 A  
ENDBRANCH  20  21
ENDBRANCH  19  20
ENDBRANCH  18  19
BRANCH  18  27
HETATM   27  C   UNK A   0      -9.535   7.664  69.109  1.00  0.00    -0.154 C  
HETATM   28  O   UNK A   0      -9.199   6.616  69.643  1.00  0.00    -0.145 OA 
BRANCH  27  29
HETATM   29  O   UNK A   0     -10.047   7.777  67.845  1.00  0.00    -0.168 OA 
BRANCH  29  30
HETATM   30  C   UNK A   0     -11.010   6.783  67.460  1.00  0.00    -0.303 C  
HETATM   31  C   UNK A   0     -10.339   5.628  66.739  1.00  0.00    -0.316 C  
ENDBRANCH  29  30
ENDBRANCH  27  29
ENDBRANCH  18  27
ENDBRANCH  16  18
ENDBRANCH  14  16
ENDBRANCH   7  14
TORSDOF 9
ENDMDL
MODEL       70
REMARK 921   NORMALIZED FREE ENERGY PREDICTED BY IDOCK:   -5.43 KCAL/MOL
REMARK 922        TOTAL FREE ENERGY PREDICTED BY IDOCK:   -9.92 KCAL/MOL
REMARK 923 INTER-LIGAND FREE ENERGY PREDICTED BY IDOCK:   -8.20 KCAL/MOL
REMARK 924 INTRA-LIGAND FREE ENERGY PREDICTED BY IDOCK:   -1.71 KCAL/MOL
REMARK 927      BINDING AFFINITY PREDICTED BY RF-SCORE:    0.00 PKD
ROOT
HETATM    1  C   UNK A   1      -9.621   7.061  71.840  1.00  0.00    -0.159 C  
HETATM    2  C   UNK A   1     -10.867   6.156  71.904  1.00  0.00    -0.295 C  
HETATM    3  C   UNK A   1     -12.069   7.092  71.860  1.00  0.00    -0.358 C  
HETATM    4  C   UNK A   1     -11.502   8.450  72.235  1.00  0.00    -0.454 C  
HETATM    5  C   UNK A   1     -10.135   8.483  71.556  1.00  0.00    -0.245 C  
HETATM    6  N   UNK A   1     -10.104   8.593  70.089  1.00  0.00    -0.181 N  
HETATM    7  C   UNK A   1     -10.362   9.736  69.332  1.00  0.00    -0.217 C  
HETATM    8  C   UNK A   1      -9.164   7.589  69.514  1.00  0.00    -0.146 C  
HETATM    9  C   UNK A   1      -9.697   6.640  68.422  1.00  0.00    -0.126 C  
HETATM   10  C   UNK A   1      -8.670   6.748  70.698  1.00  0.00    -0.143 C  
HETATM   11  O   UNK A   1     -10.075   9.723  68.129  1.00  0.00    -0.152 OA 
HETATM   12  O   UNK A   1     -10.998   6.839  68.104  1.00  0.00    -0.238 OA 
HETATM   13  O   UNK A   1      -9.034   5.756  67.911  1.00  0.00    -0.113 OA 
ENDROOT
BRANCH   7  14
HETATM   14  C   UNK A   1     -11.055  10.981  69.951  1.00  0.00    -0.205 C  
HETATM   15  C   UNK A   1     -12.576  10.758  69.987  1.00  0.00    -0.247 C  
BRANCH  14  16
HETATM   16  N   UNK A   1     -10.706  12.192  69.170  1.00  0.00    -0.417 NA 
HETATM   17  H   UNK A   1     -10.050  11.964  68.423  1.00  0.00     0.000 HD 
BRANCH  16  18
HETATM   18  C   UNK A   0     -11.898  12.914  68.625  1.00  0.00    -0.312 C  
BRANCH  18  19
HETATM   19  C   UNK A   0     -11.923  14.358  69.124  1.00  0.00    -0.357 C  
BRANCH  19  20
HETATM   20  C   UNK A   0     -10.600  14.848  69.731  1.00  0.00    -0.189 C  
BRANCH  20  21
HETATM   21  C   UNK A   0     -10.052  15.914  68.814  1.00  0.00    -0.221 A  
HETATM   22  C   UNK A   0     -10.841  17.015  68.456  1.00  0.00    -0.310 A  
HETATM   23  C   UNK A   0      -8.693  15.902  68.465  1.00  0.00    -0.194 A  
HETATM   24  C   UNK A   0     -10.272  18.109  67.807  1.00  0.00    -0.395 A  
HETATM   25  C   UNK A   0      -8.127  16.995  67.813  1.00  0.00    -0.196 A  
HETATM   26  C   UNK A   0      -8.911  18.104  67.501  1.00  0.00    -0.256 A  
ENDBRANCH  20  21
ENDBRANCH  19  20
ENDBRANCH  18  19
BRANCH  18  27
HETATM   27  C   UNK A   0     -11.875  12.864  67.084  1.00  0.00    -0.362 C  
HETATM   28  O   UNK A   0     -11.944  11.850  66.403  1.00  0.00    -0.572 OA 
BRANCH  27  29
HETATM   29  O   UNK A   0     -11.774  14.137  66.595  1.00  0.00    -0.365 OA 
BRANCH  29  30
HETATM   30  C   UNK A   0     -10.807  14.342  65.554  1.00  0.00    -0.331 C  
HETATM   31  C   UNK A   0     -10.981  15.707  64.912  1.00  0.00    -0.447 C  
ENDBRANCH  29  30
ENDBRANCH  27  29
ENDBRANCH  18  27
ENDBRANCH  16  18
ENDBRANCH  14  16
ENDBRANCH   7  14
TORSDOF 9
ENDMDL
MODEL       71
REMARK 921   NORMALIZED FREE ENERGY PREDICTED BY IDOCK:   -5.41 KCAL/MOL
REMARK 922        TOTAL FREE ENERGY PREDICTED BY IDOCK:   -9.88 KCAL/MOL
REMARK 923 INTER-LIGAND FREE ENERGY PREDICTED BY IDOCK:   -8.23 KCAL/MOL
REMARK 924 INTRA-LIGAND FREE ENERGY PREDICTED BY IDOCK:   -1.66 KCAL/MOL
REMARK 927      BINDING AFFINITY PREDICTED BY RF-SCORE:    0.00 PKD
ROOT
HETATM    1  C   UNK A   1     -10.598  14.346  64.822  1.00  0.00    -0.417 C  
HETATM    2  C   UNK A   1     -12.076  14.754  64.668  1.00  0.00    -0.437 C  
HETATM    3  C   UNK A   1     -12.887  13.676  65.375  1.00  0.00    -0.440 C  
HETATM    4  C   UNK A   1     -11.930  12.502  65.489  1.00  0.00    -0.500 C  
HETATM    5  C   UNK A   1     -10.581  13.149  65.788  1.00  0.00    -0.282 C  
HETATM    6  N   UNK A   1     -10.393  13.757  67.115  1.00  0.00    -0.260 N  
HETATM    7  C   UNK A   1     -10.190  13.084  68.320  1.00  0.00    -0.246 C  
HETATM    8  C   UNK A   1      -9.800  15.118  66.982  1.00  0.00    -0.230 C  
HETATM    9  C   UNK A   1     -10.528  16.295  67.662  1.00  0.00    -0.295 C  
HETATM   10  C   UNK A   1      -9.716  15.396  65.475  1.00  0.00    -0.318 C  
HETATM   11  O   UNK A   1      -9.825  13.738  69.305  1.00  0.00     0.132 OA 
HETATM   12  O   UNK A   1     -11.656  15.940  68.321  1.00  0.00    -0.355 OA 
HETATM   13  O   UNK A   1     -10.160  17.453  67.586  1.00  0.00    -0.301 OA 
ENDROOT
BRANCH   7  14
HETATM   14  C   UNK A   1     -10.474  11.563  68.459  1.00  0.00    -0.208 C  
HETATM   15  C   UNK A   1     -11.906  11.353  68.980  1.00  0.00    -0.415 C  
BRANCH  14  16
HETATM   16  N   UNK A   1      -9.475  10.945  69.365  1.00  0.00    -0.423 NA 
HETATM   17  H   UNK A   1      -9.440  11.441  70.255  1.00  0.00     0.000 HD 
BRANCH  16  18
HETATM   18  C   UNK A   0      -9.694   9.481  69.583  1.00  0.00    -0.200 C  
BRANCH  18  19
HETATM   19  C   UNK A   0      -8.583   8.670  68.915  1.00  0.00    -0.130 C  
BRANCH  19  20
HETATM   20  C   UNK A   0      -9.067   7.691  67.836  1.00  0.00    -0.134 C  
BRANCH  20  21
HETATM   21  C   UNK A   0      -8.829   8.344  66.496  1.00  0.00    -0.172 A  
HETATM   22  C   UNK A   0      -9.832   9.118  65.897  1.00  0.00    -0.305 A  
HETATM   23  C   UNK A   0      -7.544   8.330  65.933  1.00  0.00    -0.082 A  
HETATM   24  C   UNK A   0      -9.542   9.907  64.785  1.00  0.00    -0.339 A  
HETATM   25  C   UNK A   0      -7.259   9.117  64.819  1.00  0.00    -0.097 A  
HETATM   26  C   UNK A   0      -8.251   9.917  64.258  1.00  0.00    -0.161 A  
ENDBRANCH  20  21
ENDBRANCH  19  20
ENDBRANCH  18  19
BRANCH  18  27
HETATM   27  C   UNK A   0      -9.759   9.185  71.094  1.00  0.00    -0.290 C  
HETATM   28  O   UNK A   0      -8.803   9.146  71.855  1.00  0.00    -0.340 OA 
BRANCH  27  29
HETATM   29  O   UNK A   0     -11.063   8.980  71.455  1.00  0.00    -0.295 OA 
BRANCH  29  30
HETATM   30  C   UNK A   0     -11.284   8.082  72.554  1.00  0.00    -0.388 C  
HETATM   31  C   UNK A   0     -11.190   6.636  72.101  1.00  0.00    -0.299 C  
ENDBRANCH  29  30
ENDBRANCH  27  29
ENDBRANCH  18  27
ENDBRANCH  16  18
ENDBRANCH  14  16
ENDBRANCH   7  14
TORSDOF 9
ENDMDL
MODEL       72
REMARK 921   NORMALIZED FREE ENERGY PREDICTED BY IDOCK:   -5.41 KCAL/MOL
REMARK 922        TOTAL FREE ENERGY PREDICTED BY IDOCK:   -9.88 KCAL/MOL
REMARK 923 INTER-LIGAND FREE ENERGY PREDICTED BY IDOCK:   -7.80 KCAL/MOL
REMARK 924 INTRA-LIGAND FREE ENERGY PREDICTED BY IDOCK:   -2.09 KCAL/MOL
REMARK 927      BINDING AFFINITY PREDICTED BY RF-SCORE:    0.00 PKD
ROOT
HETATM    1  C   UNK A   1     -10.462  12.955  68.128  1.00  0.00    -0.245 C  
HETATM    2  C   UNK A   1      -9.712  14.286  67.928  1.00  0.00    -0.222 C  
HETATM    3  C   UNK A   1      -8.445  13.943  67.155  1.00  0.00    -0.196 C  
HETATM    4  C   UNK A   1      -8.284  12.445  67.344  1.00  0.00    -0.180 C  
HETATM    5  C   UNK A   1      -9.711  11.907  67.289  1.00  0.00    -0.184 C  
HETATM    6  N   UNK A   1     -10.398  11.924  65.988  1.00  0.00    -0.225 N  
HETATM    7  C   UNK A   1     -10.172  11.064  64.913  1.00  0.00    -0.311 C  
HETATM    8  C   UNK A   1     -11.768  12.493  66.133  1.00  0.00    -0.409 C  
HETATM    9  C   UNK A   1     -12.165  13.670  65.220  1.00  0.00    -0.439 C  
HETATM   10  C   UNK A   1     -11.885  12.944  67.595  1.00  0.00    -0.400 C  
HETATM   11  O   UNK A   1     -10.983  11.063  63.979  1.00  0.00    -0.313 OA 
HETATM   12  O   UNK A   1     -11.189  14.059  64.366  1.00  0.00    -0.368 OA 
HETATM   13  O   UNK A   1     -13.239  14.240  65.278  1.00  0.00    -0.704 OA 
ENDROOT
BRANCH   7  14
HETATM   14  C   UNK A   1      -8.903  10.171  64.840  1.00  0.00    -0.190 C  
HETATM   15  C   UNK A   1      -8.301  10.246  63.428  1.00  0.00    -0.169 C  
BRANCH  14  16
HETATM   16  N   UNK A   1      -9.249   8.775  65.206  1.00  0.00    -0.433 NA 
HETATM   17  H   UNK A   1      -9.273   8.181  64.377  1.00  0.00     0.000 HD 
BRANCH  16  18
HETATM   18  C   UNK A   0      -8.349   8.192  66.249  1.00  0.00    -0.119 C  
BRANCH  18  19
HETATM   19  C   UNK A   0      -8.941   8.402  67.643  1.00  0.00    -0.141 C  
BRANCH  19  20
HETATM   20  C   UNK A   0     -10.475   8.355  67.699  1.00  0.00    -0.307 C  
BRANCH  20  21
HETATM   21  C   UNK A   0     -10.873   8.409  69.155  1.00  0.00    -0.042 A  
HETATM   22  C   UNK A   0     -10.998   7.228  69.898  1.00  0.00    -0.262 A  
HETATM   23  C   UNK A   0     -10.941   9.645  69.813  1.00  0.00    -0.266 A  
HETATM   24  C   UNK A   0     -11.135   7.280  71.284  1.00  0.00    -0.270 A  
HETATM   25  C   UNK A   0     -11.082   9.694  71.199  1.00  0.00    -0.444 A  
HETATM   26  C   UNK A   0     -11.161   8.514  71.934  1.00  0.00    -0.397 A  
ENDBRANCH  20  21
ENDBRANCH  19  20
ENDBRANCH  18  19
BRANCH  18  27
HETATM   27  C   UNK A   0      -8.128   6.693  65.965  1.00  0.00    -0.122 C  
HETATM   28  O   UNK A   0      -8.482   6.099  64.957  1.00  0.00    -0.138 OA 
BRANCH  27  29
HETATM   29  O   UNK A   0      -7.462   6.130  67.019  1.00  0.00    -0.084 OA 
BRANCH  29  30
HETATM   30  C   UNK A   0      -7.730   4.742  67.270  1.00  0.00    -0.091 C  
HETATM   31  C   UNK A   0      -8.844   4.580  68.289  1.00  0.00    -0.126 C  
ENDBRANCH  29  30
ENDBRANCH  27  29
ENDBRANCH  18  27
ENDBRANCH  16  18
ENDBRANCH  14  16
ENDBRANCH   7  14
TORSDOF 9
ENDMDL
MODEL       73
REMARK 921   NORMALIZED FREE ENERGY PREDICTED BY IDOCK:   -5.41 KCAL/MOL
REMARK 922        TOTAL FREE ENERGY PREDICTED BY IDOCK:   -9.88 KCAL/MOL
REMARK 923 INTER-LIGAND FREE ENERGY PREDICTED BY IDOCK:   -9.04 KCAL/MOL
REMARK 924 INTRA-LIGAND FREE ENERGY PREDICTED BY IDOCK:   -0.84 KCAL/MOL
REMARK 927      BINDING AFFINITY PREDICTED BY RF-SCORE:    0.00 PKD
ROOT
HETATM    1  C   UNK A   1      -9.818   5.941  70.902  1.00  0.00    -0.224 C  
HETATM    2  C   UNK A   1     -11.354   5.995  71.011  1.00  0.00    -0.299 C  
HETATM    3  C   UNK A   1     -11.720   7.472  71.075  1.00  0.00    -0.317 C  
HETATM    4  C   UNK A   1     -10.425   8.164  71.463  1.00  0.00    -0.276 C  
HETATM    5  C   UNK A   1      -9.349   7.393  70.702  1.00  0.00    -0.160 C  
HETATM    6  N   UNK A   1      -9.296   7.558  69.241  1.00  0.00    -0.151 N  
HETATM    7  C   UNK A   1      -8.812   8.665  68.543  1.00  0.00    -0.142 C  
HETATM    8  C   UNK A   1      -9.195   6.229  68.573  1.00  0.00    -0.123 C  
HETATM    9  C   UNK A   1     -10.229   5.886  67.482  1.00  0.00    -0.190 C  
HETATM   10  C   UNK A   1      -9.295   5.186  69.693  1.00  0.00    -0.182 C  
HETATM   11  O   UNK A   1      -8.626   8.558  67.324  1.00  0.00    -0.121 OA 
HETATM   12  O   UNK A   1     -11.136   6.864  67.253  1.00  0.00    -0.339 OA 
HETATM   13  O   UNK A   1     -10.268   4.817  66.900  1.00  0.00    -0.216 OA 
ENDROOT
BRANCH   7  14
HETATM   14  C   UNK A   1      -8.570  10.028  69.248  1.00  0.00    -0.168 C  
HETATM   15  C   UNK A   1      -7.569   9.840  70.401  1.00  0.00    -0.165 C  
BRANCH  14  16
HETATM   16  N   UNK A   1      -9.858  10.578  69.737  1.00  0.00    -0.431 NA 
HETATM   17  H   UNK A   1      -9.702  11.408  70.308  1.00  0.00     0.000 HD 
BRANCH  16  18
HETATM   18  C   UNK A   0     -10.836  10.864  68.642  1.00  0.00    -0.217 C  
BRANCH  18  19
HETATM   19  C   UNK A   0     -12.155  11.374  69.224  1.00  0.00    -0.356 C  
BRANCH  19  20
HETATM   20  C   UNK A   0     -12.193  11.442  70.758  1.00  0.00    -0.475 C  
BRANCH  20  21
HETATM   21  C   UNK A   0     -12.564  12.855  71.137  1.00  0.00    -0.373 A  
HETATM   22  C   UNK A   0     -12.122  13.935  70.362  1.00  0.00    -0.421 A  
HETATM   23  C   UNK A   0     -13.502  13.079  72.156  1.00  0.00    -0.638 A  
HETATM   24  C   UNK A   0     -12.647  15.210  70.567  1.00  0.00    -0.429 A  
HETATM   25  C   UNK A   0     -14.022  14.356  72.361  1.00  0.00    -0.585 A  
HETATM   26  C   UNK A   0     -13.608  15.415  71.556  1.00  0.00    -0.604 A  
ENDBRANCH  20  21
ENDBRANCH  19  20
ENDBRANCH  18  19
BRANCH  18  27
HETATM   27  C   UNK A   0     -10.234  11.890  67.662  1.00  0.00    -0.201 C  
HETATM   28  O   UNK A   0      -9.622  12.901  67.976  1.00  0.00    -0.208 OA 
BRANCH  27  29
HETATM   29  O   UNK A   0     -10.484  11.485  66.379  1.00  0.00    -0.233 OA 
BRANCH  29  30
HETATM   30  C   UNK A   0     -10.746  12.527  65.426  1.00  0.00    -0.280 C  
HETATM   31  C   UNK A   0     -12.173  13.030  65.550  1.00  0.00    -0.521 C  
ENDBRANCH  29  30
ENDBRANCH  27  29
ENDBRANCH  18  27
ENDBRANCH  16  18
ENDBRANCH  14  16
ENDBRANCH   7  14
TORSDOF 9
ENDMDL
MODEL       74
REMARK 921   NORMALIZED FREE ENERGY PREDICTED BY IDOCK:   -5.40 KCAL/MOL
REMARK 922        TOTAL FREE ENERGY PREDICTED BY IDOCK:   -9.87 KCAL/MOL
REMARK 923 INTER-LIGAND FREE ENERGY PREDICTED BY IDOCK:   -8.69 KCAL/MOL
REMARK 924 INTRA-LIGAND FREE ENERGY PREDICTED BY IDOCK:   -1.18 KCAL/MOL
REMARK 927      BINDING AFFINITY PREDICTED BY RF-SCORE:    0.00 PKD
ROOT
HETATM    1  C   UNK A   1      -9.684   8.486  66.150  1.00  0.00    -0.259 C  
HETATM    2  C   UNK A   1      -8.157   8.281  66.214  1.00  0.00    -0.109 C  
HETATM    3  C   UNK A   1      -7.550   9.673  66.325  1.00  0.00    -0.101 C  
HETATM    4  C   UNK A   1      -8.657  10.604  65.864  1.00  0.00    -0.177 C  
HETATM    5  C   UNK A   1      -9.929   9.979  66.430  1.00  0.00    -0.237 C  
HETATM    6  N   UNK A   1     -10.134  10.046  67.886  1.00  0.00    -0.161 N  
HETATM    7  C   UNK A   1     -10.512  11.166  68.625  1.00  0.00    -0.197 C  
HETATM    8  C   UNK A   1     -10.532   8.710  68.414  1.00  0.00    -0.176 C  
HETATM    9  C   UNK A   1      -9.709   8.115  69.575  1.00  0.00    -0.170 C  
HETATM   10  C   UNK A   1     -10.467   7.748  67.221  1.00  0.00    -0.392 C  
HETATM   11  O   UNK A   1     -10.861  11.006  69.801  1.00  0.00    -0.231 OA 
HETATM   12  O   UNK A   1      -8.690   8.903  69.989  1.00  0.00    -0.130 OA 
HETATM   13  O   UNK A   1      -9.917   7.017  70.058  1.00  0.00    -0.180 OA 
ENDROOT
BRANCH   7  14
HETATM   14  C   UNK A   1     -10.440  12.598  68.025  1.00  0.00    -0.224 C  
HETATM   15  C   UNK A   1      -9.126  13.270  68.455  1.00  0.00    -0.137 C  
BRANCH  14  16
HETATM   16  N   UNK A   1     -11.617  13.387  68.462  1.00  0.00    -0.309 NA 
HETATM   17  H   UNK A   1     -12.333  12.778  68.858  1.00  0.00     0.000 HD 
BRANCH  16  18
HETATM   18  C   UNK A   0     -11.275  14.490  69.412  1.00  0.00    -0.280 C  
BRANCH  18  19
HETATM   19  C   UNK A   0     -11.580  15.850  68.783  1.00  0.00    -0.389 C  
BRANCH  19  20
HETATM   20  C   UNK A   0     -10.758  16.171  67.525  1.00  0.00    -0.304 C  
BRANCH  20  21
HETATM   21  C   UNK A   0     -10.124  17.524  67.734  1.00  0.00    -0.330 A  
HETATM   22  C   UNK A   0      -8.846  17.628  68.299  1.00  0.00    -0.276 A  
HETATM   23  C   UNK A   0     -10.733  18.669  67.199  1.00  0.00    -0.433 A  
HETATM   24  C   UNK A   0      -8.165  18.843  68.281  1.00  0.00    -0.362 A  
HETATM   25  C   UNK A   0     -10.050  19.884  67.186  1.00  0.00    -0.573 A  
HETATM   26  C   UNK A   0      -8.762  19.967  67.710  1.00  0.00    -0.377 A  
ENDBRANCH  20  21
ENDBRANCH  19  20
ENDBRANCH  18  19
BRANCH  18  27
HETATM   27  C   UNK A   0     -12.058  14.305  70.727  1.00  0.00    -0.348 C  
HETATM   28  O   UNK A   0     -12.626  13.281  71.080  1.00  0.00    -0.356 OA 
BRANCH  27  29
HETATM   29  O   UNK A   0     -12.011  15.468  71.446  1.00  0.00    -0.318 OA 
BRANCH  29  30
HETATM   30  C   UNK A   0     -13.051  15.656  72.417  1.00  0.00    -0.460 C  
HETATM   31  C   UNK A   0     -12.484  16.174  73.727  1.00  0.00    -0.694 C  
ENDBRANCH  29  30
ENDBRANCH  27  29
ENDBRANCH  18  27
ENDBRANCH  16  18
ENDBRANCH  14  16
ENDBRANCH   7  14
TORSDOF 9
ENDMDL
MODEL       75
REMARK 921   NORMALIZED FREE ENERGY PREDICTED BY IDOCK:   -5.39 KCAL/MOL
REMARK 922        TOTAL FREE ENERGY PREDICTED BY IDOCK:   -9.86 KCAL/MOL
REMARK 923 INTER-LIGAND FREE ENERGY PREDICTED BY IDOCK:   -8.39 KCAL/MOL
REMARK 924 INTRA-LIGAND FREE ENERGY PREDICTED BY IDOCK:   -1.47 KCAL/MOL
REMARK 927      BINDING AFFINITY PREDICTED BY RF-SCORE:    0.00 PKD
ROOT
HETATM    1  C   UNK A   1     -11.392  14.973  67.021  1.00  0.00    -0.319 C  
HETATM    2  C   UNK A   1     -11.594  15.885  68.247  1.00  0.00    -0.274 C  
HETATM    3  C   UNK A   1     -11.144  15.073  69.455  1.00  0.00    -0.290 C  
HETATM    4  C   UNK A   1     -11.150  13.636  68.964  1.00  0.00    -0.295 C  
HETATM    5  C   UNK A   1     -10.640  13.730  67.529  1.00  0.00    -0.244 C  
HETATM    6  N   UNK A   1      -9.220  14.059  67.328  1.00  0.00    -0.220 N  
HETATM    7  C   UNK A   1      -8.131  13.209  67.520  1.00  0.00    -0.181 C  
HETATM    8  C   UNK A   1      -9.077  15.135  66.306  1.00  0.00    -0.278 C  
HETATM    9  C   UNK A   1      -8.272  16.393  66.687  1.00  0.00    -0.278 C  
HETATM   10  C   UNK A   1     -10.505  15.558  65.936  1.00  0.00    -0.356 C  
HETATM   11  O   UNK A   1      -7.025  13.562  67.093  1.00  0.00    -0.097 OA 
HETATM   12  O   UNK A   1      -7.773  16.370  67.946  1.00  0.00    -0.147 OA 
HETATM   13  O   UNK A   1      -8.124  17.351  65.950  1.00  0.00    -0.537 OA 
ENDROOT
BRANCH   7  14
HETATM   14  C   UNK A   1      -8.270  11.876  68.307  1.00  0.00    -0.157 C  
HETATM   15  C   UNK A   1      -6.917  11.508  68.938  1.00  0.00    -0.100 C  
BRANCH  14  16
HETATM   16  N   UNK A   1      -8.752  10.805  67.402  1.00  0.00    -0.126 NA 
HETATM   17  H   UNK A   1      -8.018  10.524  66.753  1.00  0.00     0.000 HD 
BRANCH  16  18
HETATM   18  C   UNK A   0      -9.302   9.617  68.125  1.00  0.00    -0.132 C  
BRANCH  18  19
HETATM   19  C   UNK A   0     -10.435  10.039  69.062  1.00  0.00    -0.233 C  
BRANCH  19  20
HETATM   20  C   UNK A   0     -10.184   9.732  70.546  1.00  0.00    -0.321 C  
BRANCH  20  21
HETATM   21  C   UNK A   0     -11.410   9.025  71.072  1.00  0.00    -0.362 A  
HETATM   22  C   UNK A   0     -12.511   9.763  71.528  1.00  0.00    -0.495 A  
HETATM   23  C   UNK A   0     -11.524   7.634  70.938  1.00  0.00    -0.299 A  
HETATM   24  C   UNK A   0     -13.723   9.127  71.794  1.00  0.00    -0.465 A  
HETATM   25  C   UNK A   0     -12.735   7.001  71.209  1.00  0.00    -0.400 A  
HETATM   26  C   UNK A   0     -13.837   7.748  71.619  1.00  0.00    -0.465 A  
ENDBRANCH  20  21
ENDBRANCH  19  20
ENDBRANCH  18  19
BRANCH  18  27
HETATM   27  C   UNK A   0      -9.793   8.570  67.106  1.00  0.00    -0.206 C  
HETATM   28  O   UNK A   0      -9.992   8.772  65.916  1.00  0.00    -0.213 OA 
BRANCH  27  29
HETATM   29  O   UNK A   0      -9.964   7.370  67.741  1.00  0.00    -0.152 OA 
BRANCH  29  30
HETATM   30  C   UNK A   0     -11.035   6.544  67.260  1.00  0.00    -0.400 C  
HETATM   31  C   UNK A   0     -10.502   5.243  66.687  1.00  0.00    -0.345 C  
ENDBRANCH  29  30
ENDBRANCH  27  29
ENDBRANCH  18  27
ENDBRANCH  16  18
ENDBRANCH  14  16
ENDBRANCH   7  14
TORSDOF 9
ENDMDL
MODEL       76
REMARK 921   NORMALIZED FREE ENERGY PREDICTED BY IDOCK:   -5.38 KCAL/MOL
REMARK 922        TOTAL FREE ENERGY PREDICTED BY IDOCK:   -9.84 KCAL/MOL
REMARK 923 INTER-LIGAND FREE ENERGY PREDICTED BY IDOCK:   -7.99 KCAL/MOL
REMARK 924 INTRA-LIGAND FREE ENERGY PREDICTED BY IDOCK:   -1.85 KCAL/MOL
REMARK 927      BINDING AFFINITY PREDICTED BY RF-SCORE:    0.00 PKD
ROOT
HETATM    1  C   UNK A   1     -14.031  13.479  71.083  1.00  0.00     0.495 C  
HETATM    2  C   UNK A   1     -13.531  12.413  72.077  1.00  0.00    -0.460 C  
HETATM    3  C   UNK A   1     -12.175  11.954  71.556  1.00  0.00     0.214 C  
HETATM    4  C   UNK A   1     -12.160  12.400  70.105  1.00  0.00    -0.366 C  
HETATM    5  C   UNK A   1     -12.859  13.756  70.124  1.00  0.00     0.041 C  
HETATM    6  N   UNK A   1     -12.145  14.885  70.742  1.00  0.00    -0.293 N  
HETATM    7  C   UNK A   1     -11.073  15.592  70.198  1.00  0.00    -0.336 C  
HETATM    8  C   UNK A   1     -13.044  15.617  71.678  1.00  0.00    -0.475 C  
HETATM    9  C   UNK A   1     -12.562  15.832  73.127  1.00  0.00    -0.494 C  
HETATM   10  C   UNK A   1     -14.357  14.824  71.709  1.00  0.00    -0.656 C  
HETATM   11  O   UNK A   1     -10.732  16.652  70.737  1.00  0.00     0.142 OA 
HETATM   12  O   UNK A   1     -11.339  15.312  73.384  1.00  0.00    -0.066 OA 
HETATM   13  O   UNK A   1     -13.228  16.378  73.988  1.00  0.00    -0.634 OA 
ENDROOT
BRANCH   7  14
HETATM   14  C   UNK A   1     -10.271  15.045  68.984  1.00  0.00    -0.242 C  
HETATM   15  C   UNK A   1      -8.806  15.499  69.090  1.00  0.00    -0.253 C  
BRANCH  14  16
HETATM   16  N   UNK A   1     -10.890  15.513  67.720  1.00  0.00    -0.301 NA 
HETATM   17  H   UNK A   1     -10.722  16.509  67.583  1.00  0.00     0.000 HD 
BRANCH  16  18
HETATM   18  C   UNK A   0     -10.456  14.732  66.520  1.00  0.00    -0.291 C  
BRANCH  18  19
HETATM   19  C   UNK A   0     -10.611  13.232  66.774  1.00  0.00    -0.276 C  
BRANCH  19  20
HETATM   20  C   UNK A   0      -9.304  12.431  66.684  1.00  0.00    -0.227 C  
BRANCH  20  21
HETATM   21  C   UNK A   0      -9.520  11.132  67.422  1.00  0.00    -0.176 A  
HETATM   22  C   UNK A   0      -8.833  10.873  68.615  1.00  0.00    -0.158 A  
HETATM   23  C   UNK A   0     -10.543  10.262  67.016  1.00  0.00    -0.302 A  
HETATM   24  C   UNK A   0      -9.196   9.792  69.417  1.00  0.00    -0.214 A  
HETATM   25  C   UNK A   0     -10.901   9.180  67.817  1.00  0.00    -0.159 A  
HETATM   26  C   UNK A   0     -10.242   8.956  69.023  1.00  0.00    -0.217 A  
ENDBRANCH  20  21
ENDBRANCH  19  20
ENDBRANCH  18  19
BRANCH  18  27
HETATM   27  C   UNK A   0     -11.277  15.170  65.291  1.00  0.00    -0.358 C  
HETATM   28  O   UNK A   0     -11.103  16.194  64.646  1.00  0.00    -0.598 OA 
BRANCH  27  29
HETATM   29  O   UNK A   0     -12.231  14.225  65.029  1.00  0.00    -0.402 OA 
BRANCH  29  30
HETATM   30  C   UNK A   0     -12.112  13.534  63.775  1.00  0.00    -0.425 C  
HETATM   31  C   UNK A   0     -11.781  12.068  63.993  1.00  0.00    -0.498 C  
ENDBRANCH  29  30
ENDBRANCH  27  29
ENDBRANCH  18  27
ENDBRANCH  16  18
ENDBRANCH  14  16
ENDBRANCH   7  14
TORSDOF 9
ENDMDL
MODEL       77
REMARK 921   NORMALIZED FREE ENERGY PREDICTED BY IDOCK:   -5.38 KCAL/MOL
REMARK 922        TOTAL FREE ENERGY PREDICTED BY IDOCK:   -9.84 KCAL/MOL
REMARK 923 INTER-LIGAND FREE ENERGY PREDICTED BY IDOCK:   -8.58 KCAL/MOL
REMARK 924 INTRA-LIGAND FREE ENERGY PREDICTED BY IDOCK:   -1.26 KCAL/MOL
REMARK 927      BINDING AFFINITY PREDICTED BY RF-SCORE:    0.00 PKD
ROOT
HETATM    1  C   UNK A   1     -11.764  14.527  66.586  1.00  0.00    -0.384 C  
HETATM    2  C   UNK A   1     -10.891  15.459  65.722  1.00  0.00    -0.349 C  
HETATM    3  C   UNK A   1      -9.447  15.077  66.018  1.00  0.00    -0.337 C  
HETATM    4  C   UNK A   1      -9.522  14.308  67.325  1.00  0.00    -0.220 C  
HETATM    5  C   UNK A   1     -10.807  13.494  67.205  1.00  0.00    -0.276 C  
HETATM    6  N   UNK A   1     -10.819  12.372  66.253  1.00  0.00    -0.258 N  
HETATM    7  C   UNK A   1     -10.203  11.132  66.417  1.00  0.00    -0.233 C  
HETATM    8  C   UNK A   1     -12.048  12.421  65.411  1.00  0.00    -0.365 C  
HETATM    9  C   UNK A   1     -11.878  12.400  63.879  1.00  0.00    -0.466 C  
HETATM   10  C   UNK A   1     -12.780  13.710  65.807  1.00  0.00    -0.470 C  
HETATM   11  O   UNK A   1     -10.494  10.221  65.631  1.00  0.00    -0.200 OA 
HETATM   12  O   UNK A   1     -10.590  12.337  63.467  1.00  0.00    -0.436 OA 
HETATM   13  O   UNK A   1     -12.806  12.477  63.094  1.00  0.00    -0.599 OA 
ENDROOT
BRANCH   7  14
HETATM   14  C   UNK A   1      -9.125  10.898  67.511  1.00  0.00    -0.140 C  
HETATM   15  C   UNK A   1      -7.727  11.116  66.910  1.00  0.00    -0.148 C  
BRANCH  14  16
HETATM   16  N   UNK A   1      -9.264   9.531  68.071  1.00  0.00    -0.130 NA 
HETATM   17  H   UNK A   1      -8.453   8.960  67.835  1.00  0.00     0.000 HD 
BRANCH  16  18
HETATM   18  C   UNK A   0      -9.514   9.514  69.545  1.00  0.00    -0.185 C  
BRANCH  18  19
HETATM   19  C   UNK A   0     -10.723   8.637  69.873  1.00  0.00    -0.227 C  
BRANCH  19  20
HETATM   20  C   UNK A   0     -11.308   8.854  71.276  1.00  0.00    -0.371 C  
BRANCH  20  21
HETATM   21  C   UNK A   0     -11.020   7.611  72.082  1.00  0.00    -0.304 A  
HETATM   22  C   UNK A   0     -10.198   7.676  73.215  1.00  0.00    -0.398 A  
HETATM   23  C   UNK A   0     -11.717   6.425  71.806  1.00  0.00    -0.376 A  
HETATM   24  C   UNK A   0     -10.116   6.592  74.088  1.00  0.00    -0.390 A  
HETATM   25  C   UNK A   0     -11.630   5.342  72.679  1.00  0.00    -0.270 A  
HETATM   26  C   UNK A   0     -10.846   5.432  73.827  1.00  0.00    -0.282 A  
ENDBRANCH  20  21
ENDBRANCH  19  20
ENDBRANCH  18  19
BRANCH  18  27
HETATM   27  C   UNK A   0      -8.255   9.013  70.280  1.00  0.00    -0.143 C  
HETATM   28  O   UNK A   0      -7.943   7.842  70.441  1.00  0.00    -0.093 OA 
BRANCH  27  29
HETATM   29  O   UNK A   0      -7.532  10.089  70.718  1.00  0.00    -0.298 OA 
BRANCH  29  30
HETATM   30  C   UNK A   0      -6.195  10.206  70.207  1.00  0.00    -0.103 C  
HETATM   31  C   UNK A   0      -5.513  11.449  70.750  1.00  0.00    -0.126 C  
ENDBRANCH  29  30
ENDBRANCH  27  29
ENDBRANCH  18  27
ENDBRANCH  16  18
ENDBRANCH  14  16
ENDBRANCH   7  14
TORSDOF 9
ENDMDL
MODEL       78
REMARK 921   NORMALIZED FREE ENERGY PREDICTED BY IDOCK:   -5.37 KCAL/MOL
REMARK 922        TOTAL FREE ENERGY PREDICTED BY IDOCK:   -9.83 KCAL/MOL
REMARK 923 INTER-LIGAND FREE ENERGY PREDICTED BY IDOCK:   -8.96 KCAL/MOL
REMARK 924 INTRA-LIGAND FREE ENERGY PREDICTED BY IDOCK:   -0.87 KCAL/MOL
REMARK 927      BINDING AFFINITY PREDICTED BY RF-SCORE:    0.00 PKD
ROOT
HETATM    1  C   UNK A   1      -9.283  17.043  67.296  1.00  0.00    -0.225 C  
HETATM    2  C   UNK A   1      -8.021  16.452  66.637  1.00  0.00    -0.323 C  
HETATM    3  C   UNK A   1      -7.807  15.089  67.285  1.00  0.00    -0.241 C  
HETATM    4  C   UNK A   1      -8.629  15.147  68.561  1.00  0.00    -0.163 C  
HETATM    5  C   UNK A   1      -9.882  15.922  68.161  1.00  0.00    -0.214 C  
HETATM    6  N   UNK A   1     -10.845  15.252  67.272  1.00  0.00    -0.313 N  
HETATM    7  C   UNK A   1     -11.740  14.241  67.620  1.00  0.00    -0.389 C  
HETATM    8  C   UNK A   1     -11.238  16.161  66.157  1.00  0.00     0.225 C  
HETATM    9  C   UNK A   1     -11.083  15.645  64.713  1.00  0.00    -0.412 C  
HETATM   10  C   UNK A   1     -10.384  17.425  66.323  1.00  0.00    -0.330 C  
HETATM   11  O   UNK A   1     -12.633  13.943  66.819  1.00  0.00    -0.311 OA 
HETATM   12  O   UNK A   1     -10.592  14.386  64.626  1.00  0.00    -0.415 OA 
HETATM   13  O   UNK A   1     -11.333  16.312  63.725  1.00  0.00    -0.780 OA 
ENDROOT
BRANCH   7  14
HETATM   14  C   UNK A   1     -11.594  13.449  68.949  1.00  0.00    -0.314 C  
HETATM   15  C   UNK A   1     -11.557  14.431  70.132  1.00  0.00    -0.327 C  
BRANCH  14  16
HETATM   16  N   UNK A   1     -10.369  12.613  68.905  1.00  0.00    -0.421 NA 
HETATM   17  H   UNK A   1      -9.725  12.877  69.650  1.00  0.00     0.000 HD 
BRANCH  16  18
HETATM   18  C   UNK A   0     -10.650  11.144  68.942  1.00  0.00    -0.207 C  
BRANCH  18  19
HETATM   19  C   UNK A   0     -12.002  10.874  69.603  1.00  0.00    -0.414 C  
BRANCH  19  20
HETATM   20  C   UNK A   0     -11.941  10.675  71.124  1.00  0.00    -0.401 C  
BRANCH  20  21
HETATM   21  C   UNK A   0     -11.576   9.231  71.375  1.00  0.00    -0.437 A  
HETATM   22  C   UNK A   0     -12.450   8.204  70.994  1.00  0.00    -0.109 A  
HETATM   23  C   UNK A   0     -10.287   8.905  71.821  1.00  0.00    -0.426 A  
HETATM   24  C   UNK A   0     -12.025   6.877  71.008  1.00  0.00    -0.422 A  
HETATM   25  C   UNK A   0      -9.866   7.577  71.837  1.00  0.00    -0.196 A  
HETATM   26  C   UNK A   0     -10.727   6.567  71.415  1.00  0.00    -0.280 A  
ENDBRANCH  20  21
ENDBRANCH  19  20
ENDBRANCH  18  19
BRANCH  18  27
HETATM   27  C   UNK A   0     -10.612  10.572  67.511  1.00  0.00    -0.259 C  
HETATM   28  O   UNK A   0     -11.385  10.860  66.608  1.00  0.00    -0.238 OA 
BRANCH  27  29
HETATM   29  O   UNK A   0      -9.568   9.694  67.406  1.00  0.00    -0.142 OA 
BRANCH  29  30
HETATM   30  C   UNK A   0      -9.630   8.531  68.246  1.00  0.00    -0.144 C  
HETATM   31  C   UNK A   0     -10.418   7.419  67.576  1.00  0.00    -0.338 C  
ENDBRANCH  29  30
ENDBRANCH  27  29
ENDBRANCH  18  27
ENDBRANCH  16  18
ENDBRANCH  14  16
ENDBRANCH   7  14
TORSDOF 9
ENDMDL
MODEL       79
REMARK 921   NORMALIZED FREE ENERGY PREDICTED BY IDOCK:   -5.36 KCAL/MOL
REMARK 922        TOTAL FREE ENERGY PREDICTED BY IDOCK:   -9.81 KCAL/MOL
REMARK 923 INTER-LIGAND FREE ENERGY PREDICTED BY IDOCK:   -9.29 KCAL/MOL
REMARK 924 INTRA-LIGAND FREE ENERGY PREDICTED BY IDOCK:   -0.52 KCAL/MOL
REMARK 927      BINDING AFFINITY PREDICTED BY RF-SCORE:    0.00 PKD
ROOT
HETATM    1  C   UNK A   1     -10.229   5.104  71.138  1.00  0.00    -0.291 C  
HETATM    2  C   UNK A   1      -9.995   4.725  69.662  1.00  0.00    -0.297 C  
HETATM    3  C   UNK A   1     -10.692   5.798  68.836  1.00  0.00    -0.334 C  
HETATM    4  C   UNK A   1     -11.654   6.456  69.810  1.00  0.00    -0.397 C  
HETATM    5  C   UNK A   1     -10.881   6.497  71.126  1.00  0.00    -0.249 C  
HETATM    6  N   UNK A   1      -9.748   7.430  71.223  1.00  0.00    -0.165 N  
HETATM    7  C   UNK A   1      -9.817   8.815  71.371  1.00  0.00    -0.283 C  
HETATM    8  C   UNK A   1      -8.556   6.738  71.793  1.00  0.00    -0.121 C  
HETATM    9  C   UNK A   1      -7.235   6.802  71.001  1.00  0.00    -0.077 C  
HETATM   10  C   UNK A   1      -8.960   5.268  71.958  1.00  0.00    -0.144 C  
HETATM   11  O   UNK A   1      -8.783   9.428  71.664  1.00  0.00    -0.238 OA 
HETATM   12  O   UNK A   1      -7.316   7.502  69.845  1.00  0.00    -0.078 OA 
HETATM   13  O   UNK A   1      -6.210   6.242  71.348  1.00  0.00    -0.038 OA 
ENDROOT
BRANCH   7  14
HETATM   14  C   UNK A   1     -11.135   9.595  71.113  1.00  0.00    -0.374 C  
HETATM   15  C   UNK A   1     -12.254   9.022  71.998  1.00  0.00    -0.446 C  
BRANCH  14  16
HETATM   16  N   UNK A   1     -11.493   9.517  69.675  1.00  0.00    -0.440 NA 
HETATM   17  H   UNK A   1     -12.218   8.818  69.521  1.00  0.00     0.000 HD 
BRANCH  16  18
HETATM   18  C   UNK A   0     -11.893  10.834  69.089  1.00  0.00    -0.275 C  
BRANCH  18  19
HETATM   19  C   UNK A   0     -11.545  11.974  70.046  1.00  0.00    -0.275 C  
BRANCH  19  20
HETATM   20  C   UNK A   0     -11.813  13.380  69.490  1.00  0.00    -0.391 C  
BRANCH  20  21
HETATM   21  C   UNK A   0     -12.318  14.227  70.633  1.00  0.00    -0.431 A  
HETATM   22  C   UNK A   0     -13.350  13.760  71.458  1.00  0.00    -0.391 A  
HETATM   23  C   UNK A   0     -11.636  15.401  70.984  1.00  0.00    -0.410 A  
HETATM   24  C   UNK A   0     -13.660  14.426  72.642  1.00  0.00    -0.589 A  
HETATM   25  C   UNK A   0     -11.950  16.066  72.168  1.00  0.00    -0.629 A  
HETATM   26  C   UNK A   0     -12.948  15.570  73.003  1.00  0.00    -0.609 A  
ENDBRANCH  20  21
ENDBRANCH  19  20
ENDBRANCH  18  19
BRANCH  18  27
HETATM   27  C   UNK A   0     -11.199  11.028  67.726  1.00  0.00    -0.308 C  
HETATM   28  O   UNK A   0     -11.723  11.475  66.716  1.00  0.00    -0.510 OA 
BRANCH  27  29
HETATM   29  O   UNK A   0      -9.894  10.628  67.826  1.00  0.00    -0.162 OA 
BRANCH  29  30
HETATM   30  C   UNK A   0      -8.931  11.421  67.115  1.00  0.00    -0.162 C  
HETATM   31  C   UNK A   0      -8.556  12.660  67.909  1.00  0.00    -0.181 C  
ENDBRANCH  29  30
ENDBRANCH  27  29
ENDBRANCH  18  27
ENDBRANCH  16  18
ENDBRANCH  14  16
ENDBRANCH   7  14
TORSDOF 9
ENDMDL
MODEL       80
REMARK 921   NORMALIZED FREE ENERGY PREDICTED BY IDOCK:   -5.35 KCAL/MOL
REMARK 922        TOTAL FREE ENERGY PREDICTED BY IDOCK:   -9.80 KCAL/MOL
REMARK 923 INTER-LIGAND FREE ENERGY PREDICTED BY IDOCK:   -8.49 KCAL/MOL
REMARK 924 INTRA-LIGAND FREE ENERGY PREDICTED BY IDOCK:   -1.31 KCAL/MOL
REMARK 927      BINDING AFFINITY PREDICTED BY RF-SCORE:    0.00 PKD
ROOT
HETATM    1  C   UNK A   1      -9.410   7.619  66.242  1.00  0.00    -0.189 C  
HETATM    2  C   UNK A   1      -8.190   6.782  66.673  1.00  0.00    -0.115 C  
HETATM    3  C   UNK A   1      -7.099   7.783  67.033  1.00  0.00    -0.085 C  
HETATM    4  C   UNK A   1      -7.545   9.077  66.375  1.00  0.00    -0.092 C  
HETATM    5  C   UNK A   1      -9.061   9.084  66.557  1.00  0.00    -0.163 C  
HETATM    6  N   UNK A   1      -9.585   9.298  67.915  1.00  0.00    -0.140 N  
HETATM    7  C   UNK A   1      -9.627  10.505  68.613  1.00  0.00    -0.171 C  
HETATM    8  C   UNK A   1     -10.635   8.287  68.229  1.00  0.00    -0.103 C  
HETATM    9  C   UNK A   1     -10.474   7.451  69.514  1.00  0.00    -0.232 C  
HETATM   10  C   UNK A   1     -10.680   7.337  67.025  1.00  0.00    -0.406 C  
HETATM   11  O   UNK A   1     -10.301  10.563  69.648  1.00  0.00    -0.231 OA 
HETATM   12  O   UNK A   1      -9.361   7.743  70.227  1.00  0.00    -0.156 OA 
HETATM   13  O   UNK A   1     -11.245   6.571  69.850  1.00  0.00    -0.329 OA 
ENDROOT
BRANCH   7  14
HETATM   14  C   UNK A   1      -8.801  11.738  68.154  1.00  0.00    -0.169 C  
HETATM   15  C   UNK A   1      -7.407  11.693  68.801  1.00  0.00    -0.118 C  
BRANCH  14  16
HETATM   16  N   UNK A   1      -9.520  12.986  68.509  1.00  0.00    -0.379 NA 
HETATM   17  H   UNK A   1      -8.869  13.765  68.596  1.00  0.00     0.000 HD 
BRANCH  16  18
HETATM   18  C   UNK A   0     -10.628  13.325  67.562  1.00  0.00    -0.246 C  
BRANCH  18  19
HETATM   19  C   UNK A   0     -11.882  13.737  68.333  1.00  0.00    -0.411 C  
BRANCH  19  20
HETATM   20  C   UNK A   0     -11.811  15.132  68.971  1.00  0.00    -0.331 C  
BRANCH  20  21
HETATM   21  C   UNK A   0     -12.083  14.967  70.446  1.00  0.00    -0.386 A  
HETATM   22  C   UNK A   0     -11.823  16.017  71.336  1.00  0.00    -0.531 A  
HETATM   23  C   UNK A   0     -12.766  13.830  70.905  1.00  0.00    -0.394 A  
HETATM   24  C   UNK A   0     -12.284  15.957  72.650  1.00  0.00    -0.603 A  
HETATM   25  C   UNK A   0     -13.223  13.772  72.221  1.00  0.00    -0.563 A  
HETATM   26  C   UNK A   0     -12.998  14.840  73.086  1.00  0.00    -0.623 A  
ENDBRANCH  20  21
ENDBRANCH  19  20
ENDBRANCH  18  19
BRANCH  18  27
HETATM   27  C   UNK A   0     -10.172  14.449  66.611  1.00  0.00    -0.277 C  
HETATM   28  O   UNK A   0     -10.781  14.839  65.625  1.00  0.00    -0.302 OA 
BRANCH  27  29
HETATM   29  O   UNK A   0      -8.977  14.951  67.049  1.00  0.00    -0.209 OA 
BRANCH  29  30
HETATM   30  C   UNK A   0      -8.891  16.380  67.162  1.00  0.00    -0.195 C  
HETATM   31  C   UNK A   0      -7.709  16.917  66.375  1.00  0.00    -0.345 C  
ENDBRANCH  29  30
ENDBRANCH  27  29
ENDBRANCH  18  27
ENDBRANCH  16  18
ENDBRANCH  14  16
ENDBRANCH   7  14
TORSDOF 9
ENDMDL
MODEL       81
REMARK 921   NORMALIZED FREE ENERGY PREDICTED BY IDOCK:   -5.32 KCAL/MOL
REMARK 922        TOTAL FREE ENERGY PREDICTED BY IDOCK:   -9.76 KCAL/MOL
REMARK 923 INTER-LIGAND FREE ENERGY PREDICTED BY IDOCK:   -8.99 KCAL/MOL
REMARK 924 INTRA-LIGAND FREE ENERGY PREDICTED BY IDOCK:   -0.77 KCAL/MOL
REMARK 927      BINDING AFFINITY PREDICTED BY RF-SCORE:    0.00 PKD
ROOT
HETATM    1  C   UNK A   1     -10.533   5.773  69.149  1.00  0.00    -0.346 C  
HETATM    2  C   UNK A   1     -10.048   4.869  67.999  1.00  0.00    -0.141 C  
HETATM    3  C   UNK A   1     -10.199   5.690  66.725  1.00  0.00    -0.276 C  
HETATM    4  C   UNK A   1     -11.160   6.803  67.107  1.00  0.00    -0.404 C  
HETATM    5  C   UNK A   1     -10.761   7.165  68.535  1.00  0.00    -0.152 C  
HETATM    6  N   UNK A   1      -9.479   7.861  68.731  1.00  0.00    -0.147 N  
HETATM    7  C   UNK A   1      -9.206   9.201  68.454  1.00  0.00    -0.132 C  
HETATM    8  C   UNK A   1      -8.702   7.216  69.826  1.00  0.00    -0.142 C  
HETATM    9  C   UNK A   1      -7.257   6.770  69.524  1.00  0.00    -0.081 C  
HETATM   10  C   UNK A   1      -9.516   5.989  70.256  1.00  0.00    -0.186 C  
HETATM   11  O   UNK A   1      -8.154   9.688  68.883  1.00  0.00    -0.092 OA 
HETATM   12  O   UNK A   1      -6.854   7.026  68.257  1.00  0.00    -0.068 OA 
HETATM   13  O   UNK A   1      -6.543   6.197  70.327  1.00  0.00    -0.041 OA 
ENDROOT
BRANCH   7  14
HETATM   14  C   UNK A   1     -10.156  10.058  67.573  1.00  0.00    -0.198 C  
HETATM   15  C   UNK A   1      -9.902   9.747  66.089  1.00  0.00    -0.329 C  
BRANCH  14  16
HETATM   16  N   UNK A   1      -9.951  11.498  67.864  1.00  0.00    -0.179 NA 
HETATM   17  H   UNK A   1      -9.174  11.869  67.319  1.00  0.00     0.000 HD 
BRANCH  16  18
HETATM   18  C   UNK A   0     -11.181  12.327  67.668  1.00  0.00    -0.290 C  
BRANCH  18  19
HETATM   19  C   UNK A   0     -11.701  12.838  69.011  1.00  0.00    -0.371 C  
BRANCH  19  20
HETATM   20  C   UNK A   0     -11.905  14.359  69.081  1.00  0.00    -0.359 C  
BRANCH  20  21
HETATM   21  C   UNK A   0     -12.364  14.688  70.481  1.00  0.00    -0.400 A  
HETATM   22  C   UNK A   0     -13.228  13.821  71.164  1.00  0.00    -0.277 A  
HETATM   23  C   UNK A   0     -11.786  15.765  71.168  1.00  0.00    -0.471 A  
HETATM   24  C   UNK A   0     -13.468  13.997  72.526  1.00  0.00    -0.661 A  
HETATM   25  C   UNK A   0     -12.031  15.940  72.529  1.00  0.00    -0.622 A  
HETATM   26  C   UNK A   0     -12.856  15.048  73.210  1.00  0.00    -0.647 A  
ENDBRANCH  20  21
ENDBRANCH  19  20
ENDBRANCH  18  19
BRANCH  18  27
HETATM   27  C   UNK A   0     -10.870  13.499  66.716  1.00  0.00    -0.282 C  
HETATM   28  O   UNK A   0      -9.844  14.164  66.716  1.00  0.00    -0.256 OA 
BRANCH  27  29
HETATM   29  O   UNK A   0     -11.923  13.674  65.861  1.00  0.00    -0.362 OA 
BRANCH  29  30
HETATM   30  C   UNK A   0     -12.297  12.534  65.072  1.00  0.00    -0.453 C  
HETATM   31  C   UNK A   0     -12.072  12.798  63.594  1.00  0.00    -0.624 C  
ENDBRANCH  29  30
ENDBRANCH  27  29
ENDBRANCH  18  27
ENDBRANCH  16  18
ENDBRANCH  14  16
ENDBRANCH   7  14
TORSDOF 9
ENDMDL
MODEL       82
REMARK 921   NORMALIZED FREE ENERGY PREDICTED BY IDOCK:   -5.30 KCAL/MOL
REMARK 922        TOTAL FREE ENERGY PREDICTED BY IDOCK:   -9.73 KCAL/MOL
REMARK 923 INTER-LIGAND FREE ENERGY PREDICTED BY IDOCK:   -9.27 KCAL/MOL
REMARK 924 INTRA-LIGAND FREE ENERGY PREDICTED BY IDOCK:   -0.46 KCAL/MOL
REMARK 927      BINDING AFFINITY PREDICTED BY RF-SCORE:    0.00 PKD
ROOT
HETATM    1  C   UNK A   1      -9.012  16.464  67.879  1.00  0.00    -0.196 C  
HETATM    2  C   UNK A   1      -7.798  15.951  67.081  1.00  0.00    -0.249 C  
HETATM    3  C   UNK A   1      -7.696  14.461  67.381  1.00  0.00    -0.207 C  
HETATM    4  C   UNK A   1      -8.517  14.275  68.645  1.00  0.00    -0.142 C  
HETATM    5  C   UNK A   1      -9.703  15.218  68.460  1.00  0.00    -0.211 C  
HETATM    6  N   UNK A   1     -10.711  14.859  67.450  1.00  0.00    -0.285 N  
HETATM    7  C   UNK A   1     -11.684  13.866  67.559  1.00  0.00    -0.380 C  
HETATM    8  C   UNK A   1     -11.025  16.035  66.591  1.00  0.00    -0.092 C  
HETATM    9  C   UNK A   1     -10.904  15.869  65.063  1.00  0.00    -0.426 C  
HETATM   10  C   UNK A   1     -10.075  17.152  67.041  1.00  0.00    -0.297 C  
HETATM   11  O   UNK A   1     -12.595  13.839  66.722  1.00  0.00    -0.296 OA 
HETATM   12  O   UNK A   1     -10.514  14.633  64.671  1.00  0.00    -0.372 OA 
HETATM   13  O   UNK A   1     -11.096  16.771  64.267  1.00  0.00    -1.106 OA 
ENDROOT
BRANCH   7  14
HETATM   14  C   UNK A   1     -11.608  12.770  68.658  1.00  0.00    -0.314 C  
HETATM   15  C   UNK A   1     -11.915  13.395  70.029  1.00  0.00    -0.407 C  
BRANCH  14  16
HETATM   16  N   UNK A   1     -10.268  12.135  68.644  1.00  0.00    -0.325 NA 
HETATM   17  H   UNK A   1      -9.720  12.430  69.452  1.00  0.00     0.000 HD 
BRANCH  16  18
HETATM   18  C   UNK A   0     -10.317  10.643  68.553  1.00  0.00    -0.183 C  
BRANCH  18  19
HETATM   19  C   UNK A   0      -9.461  10.150  67.386  1.00  0.00    -0.175 C  
BRANCH  19  20
HETATM   20  C   UNK A   0     -10.251   9.473  66.256  1.00  0.00    -0.290 C  
BRANCH  20  21
HETATM   21  C   UNK A   0      -9.749  10.044  64.952  1.00  0.00    -0.377 A  
HETATM   22  C   UNK A   0      -8.766   9.370  64.216  1.00  0.00    -0.224 A  
HETATM   23  C   UNK A   0     -10.394  11.152  64.382  1.00  0.00    -0.407 A  
HETATM   24  C   UNK A   0      -8.468   9.764  62.913  1.00  0.00    -0.177 A  
HETATM   25  C   UNK A   0     -10.091  11.546  63.080  1.00  0.00    -0.395 A  
HETATM   26  C   UNK A   0      -9.143  10.843  62.341  1.00  0.00    -0.336 A  
ENDBRANCH  20  21
ENDBRANCH  19  20
ENDBRANCH  18  19
BRANCH  18  27
HETATM   27  C   UNK A   0      -9.841  10.026  69.883  1.00  0.00    -0.224 C  
HETATM   28  O   UNK A   0      -8.769   9.467  70.067  1.00  0.00    -0.184 OA 
BRANCH  27  29
HETATM   29  O   UNK A   0     -10.807  10.210  70.834  1.00  0.00    -0.290 OA 
BRANCH  29  30
HETATM   30  C   UNK A   0     -11.971   9.376  70.726  1.00  0.00    -0.231 C  
HETATM   31  C   UNK A   0     -13.194  10.074  71.295  1.00  0.00    -0.469 C  
ENDBRANCH  29  30
ENDBRANCH  27  29
ENDBRANCH  18  27
ENDBRANCH  16  18
ENDBRANCH  14  16
ENDBRANCH   7  14
TORSDOF 9
ENDMDL
MODEL       83
REMARK 921   NORMALIZED FREE ENERGY PREDICTED BY IDOCK:   -5.29 KCAL/MOL
REMARK 922        TOTAL FREE ENERGY PREDICTED BY IDOCK:   -9.71 KCAL/MOL
REMARK 923 INTER-LIGAND FREE ENERGY PREDICTED BY IDOCK:   -8.51 KCAL/MOL
REMARK 924 INTRA-LIGAND FREE ENERGY PREDICTED BY IDOCK:   -1.19 KCAL/MOL
REMARK 927      BINDING AFFINITY PREDICTED BY RF-SCORE:    0.00 PKD
ROOT
HETATM    1  C   UNK A   1      -8.013   9.380  66.609  1.00  0.00    -0.108 C  
HETATM    2  C   UNK A   1      -8.577   7.952  66.473  1.00  0.00    -0.149 C  
HETATM    3  C   UNK A   1     -10.093   8.100  66.440  1.00  0.00    -0.196 C  
HETATM    4  C   UNK A   1     -10.347   9.485  67.008  1.00  0.00    -0.319 C  
HETATM    5  C   UNK A   1      -9.210  10.333  66.446  1.00  0.00    -0.158 C  
HETATM    6  N   UNK A   1      -9.234  10.643  65.008  1.00  0.00    -0.199 N  
HETATM    7  C   UNK A   1     -10.062  11.564  64.367  1.00  0.00    -0.282 C  
HETATM    8  C   UNK A   1      -7.898  10.382  64.400  1.00  0.00    -0.064 C  
HETATM    9  C   UNK A   1      -7.831   9.456  63.169  1.00  0.00    -0.132 C  
HETATM   10  C   UNK A   1      -7.036   9.781  65.517  1.00  0.00    -0.099 C  
HETATM   11  O   UNK A   1      -9.806  11.871  63.196  1.00  0.00    -0.405 OA 
HETATM   12  O   UNK A   1      -9.033   8.973  62.775  1.00  0.00    -0.162 OA 
HETATM   13  O   UNK A   1      -6.793   9.140  62.616  1.00  0.00    -0.094 OA 
ENDROOT
BRANCH   7  14
HETATM   14  C   UNK A   1     -11.320  12.150  65.066  1.00  0.00    -0.328 C  
HETATM   15  C   UNK A   1     -12.498  12.164  64.078  1.00  0.00    -0.541 C  
BRANCH  14  16
HETATM   16  N   UNK A   1     -11.025  13.513  65.572  1.00  0.00    -0.285 NA 
HETATM   17  H   UNK A   1     -11.881  14.062  65.648  1.00  0.00     0.000 HD 
BRANCH  16  18
HETATM   18  C   UNK A   0     -10.275  13.519  66.865  1.00  0.00    -0.256 C  
BRANCH  18  19
HETATM   19  C   UNK A   0      -9.562  14.856  67.065  1.00  0.00    -0.245 C  
BRANCH  19  20
HETATM   20  C   UNK A   0      -9.795  15.877  65.941  1.00  0.00    -0.383 C  
BRANCH  20  21
HETATM   21  C   UNK A   0      -9.787  17.249  66.571  1.00  0.00    -0.306 A  
HETATM   22  C   UNK A   0     -10.427  18.323  65.938  1.00  0.00    -0.324 A  
HETATM   23  C   UNK A   0      -9.299  17.414  67.876  1.00  0.00    -0.267 A  
HETATM   24  C   UNK A   0     -10.623  19.525  66.616  1.00  0.00    -0.583 A  
HETATM   25  C   UNK A   0      -9.494  18.618  68.550  1.00  0.00    -0.386 A  
HETATM   26  C   UNK A   0     -10.170  19.664  67.928  1.00  0.00    -0.574 A  
ENDBRANCH  20  21
ENDBRANCH  19  20
ENDBRANCH  18  19
BRANCH  18  27
HETATM   27  C   UNK A   0     -11.245  13.233  68.029  1.00  0.00    -0.276 C  
HETATM   28  O   UNK A   0     -12.148  12.409  68.019  1.00  0.00    -0.398 OA 
BRANCH  27  29
HETATM   29  O   UNK A   0     -10.931  14.045  69.085  1.00  0.00    -0.245 OA 
BRANCH  29  30
HETATM   30  C   UNK A   0     -12.038  14.640  69.779  1.00  0.00    -0.324 C  
HETATM   31  C   UNK A   0     -11.589  15.845  70.587  1.00  0.00    -0.426 C  
ENDBRANCH  29  30
ENDBRANCH  27  29
ENDBRANCH  18  27
ENDBRANCH  16  18
ENDBRANCH  14  16
ENDBRANCH   7  14
TORSDOF 9
ENDMDL
MODEL       84
REMARK 921   NORMALIZED FREE ENERGY PREDICTED BY IDOCK:   -5.26 KCAL/MOL
REMARK 922        TOTAL FREE ENERGY PREDICTED BY IDOCK:   -9.67 KCAL/MOL
REMARK 923 INTER-LIGAND FREE ENERGY PREDICTED BY IDOCK:   -7.86 KCAL/MOL
REMARK 924 INTRA-LIGAND FREE ENERGY PREDICTED BY IDOCK:   -1.80 KCAL/MOL
REMARK 927      BINDING AFFINITY PREDICTED BY RF-SCORE:    0.00 PKD
ROOT
HETATM    1  C   UNK A   1      -9.561   8.284  66.069  1.00  0.00    -0.151 C  
HETATM    2  C   UNK A   1      -8.051   7.979  66.048  1.00  0.00    -0.110 C  
HETATM    3  C   UNK A   1      -7.349   9.314  66.264  1.00  0.00    -0.092 C  
HETATM    4  C   UNK A   1      -8.409  10.352  65.941  1.00  0.00    -0.152 C  
HETATM    5  C   UNK A   1      -9.698   9.755  66.500  1.00  0.00    -0.209 C  
HETATM    6  N   UNK A   1      -9.844   9.692  67.962  1.00  0.00    -0.146 N  
HETATM    7  C   UNK A   1     -10.120  10.757  68.820  1.00  0.00    -0.191 C  
HETATM    8  C   UNK A   1     -10.309   8.339  68.379  1.00  0.00    -0.199 C  
HETATM    9  C   UNK A   1      -9.486   7.585  69.442  1.00  0.00    -0.155 C  
HETATM   10  C   UNK A   1     -10.352   7.495  67.099  1.00  0.00    -0.384 C  
HETATM   11  O   UNK A   1     -10.435  10.505  69.989  1.00  0.00    -0.233 OA 
HETATM   12  O   UNK A   1      -8.402   8.264  69.885  1.00  0.00    -0.120 OA 
HETATM   13  O   UNK A   1      -9.747   6.460  69.828  1.00  0.00    -0.153 OA 
ENDROOT
BRANCH   7  14
HETATM   14  C   UNK A   1      -9.976  12.233  68.355  1.00  0.00    -0.209 C  
HETATM   15  C   UNK A   1      -8.500  12.655  68.434  1.00  0.00    -0.121 C  
BRANCH  14  16
HETATM   16  N   UNK A   1     -10.833  13.110  69.190  1.00  0.00    -0.428 NA 
HETATM   17  H   UNK A   1     -10.432  13.227  70.120  1.00  0.00     0.000 HD 
BRANCH  16  18
HETATM   18  C   UNK A   0     -11.116  14.438  68.563  1.00  0.00    -0.253 C  
BRANCH  18  19
HETATM   19  C   UNK A   0     -12.159  14.295  67.455  1.00  0.00    -0.371 C  
BRANCH  19  20
HETATM   20  C   UNK A   0     -11.696  14.787  66.075  1.00  0.00    -0.248 C  
BRANCH  20  21
HETATM   21  C   UNK A   0     -11.539  13.572  65.193  1.00  0.00    -0.333 A  
HETATM   22  C   UNK A   0     -12.661  12.824  64.813  1.00  0.00    -0.469 A  
HETATM   23  C   UNK A   0     -10.297  13.295  64.603  1.00  0.00    -0.394 A  
HETATM   24  C   UNK A   0     -12.555  11.850  63.822  1.00  0.00    -0.509 A  
HETATM   25  C   UNK A   0     -10.194  12.318  63.615  1.00  0.00    -0.430 A  
HETATM   26  C   UNK A   0     -11.323  11.610  63.213  1.00  0.00    -0.288 A  
ENDBRANCH  20  21
ENDBRANCH  19  20
ENDBRANCH  18  19
BRANCH  18  27
HETATM   27  C   UNK A   0     -11.593  15.430  69.643  1.00  0.00    -0.331 C  
HETATM   28  O   UNK A   0     -12.685  15.415  70.192  1.00  0.00    -0.335 OA 
BRANCH  27  29
HETATM   29  O   UNK A   0     -10.595  16.330  69.898  1.00  0.00    -0.306 OA 
BRANCH  29  30
HETATM   30  C   UNK A   0      -9.929  16.881  68.751  1.00  0.00    -0.276 C  
HETATM   31  C   UNK A   0     -10.577  18.185  68.321  1.00  0.00    -0.267 C  
ENDBRANCH  29  30
ENDBRANCH  27  29
ENDBRANCH  18  27
ENDBRANCH  16  18
ENDBRANCH  14  16
ENDBRANCH   7  14
TORSDOF 9
ENDMDL
MODEL       85
REMARK 921   NORMALIZED FREE ENERGY PREDICTED BY IDOCK:   -5.25 KCAL/MOL
REMARK 922        TOTAL FREE ENERGY PREDICTED BY IDOCK:   -9.65 KCAL/MOL
REMARK 923 INTER-LIGAND FREE ENERGY PREDICTED BY IDOCK:   -7.71 KCAL/MOL
REMARK 924 INTRA-LIGAND FREE ENERGY PREDICTED BY IDOCK:   -1.94 KCAL/MOL
REMARK 927      BINDING AFFINITY PREDICTED BY RF-SCORE:    0.00 PKD
ROOT
HETATM    1  C   UNK A   1     -10.526  12.433  67.916  1.00  0.00    -0.227 C  
HETATM    2  C   UNK A   1      -9.902  13.839  68.008  1.00  0.00    -0.239 C  
HETATM    3  C   UNK A   1      -8.684  13.821  67.093  1.00  0.00    -0.231 C  
HETATM    4  C   UNK A   1      -8.390  12.344  66.890  1.00  0.00    -0.117 C  
HETATM    5  C   UNK A   1      -9.770  11.700  66.794  1.00  0.00    -0.201 C  
HETATM    6  N   UNK A   1     -10.567  11.967  65.586  1.00  0.00    -0.259 N  
HETATM    7  C   UNK A   1     -10.368  11.421  64.318  1.00  0.00    -0.328 C  
HETATM    8  C   UNK A   1     -11.959  12.347  65.958  1.00  0.00    -0.350 C  
HETATM    9  C   UNK A   1     -12.525  13.667  65.396  1.00  0.00    -0.499 C  
HETATM   10  C   UNK A   1     -11.984  12.414  67.490  1.00  0.00    -0.253 C  
HETATM   11  O   UNK A   1     -11.255  11.569  63.468  1.00  0.00    -0.413 OA 
HETATM   12  O   UNK A   1     -11.660  14.345  64.606  1.00  0.00    -0.384 OA 
HETATM   13  O   UNK A   1     -13.632  14.098  65.664  1.00  0.00    -0.470 OA 
ENDROOT
BRANCH   7  14
HETATM   14  C   UNK A   1      -9.044  10.700  63.942  1.00  0.00    -0.224 C  
HETATM   15  C   UNK A   1      -8.762  10.892  62.443  1.00  0.00    -0.355 C  
BRANCH  14  16
HETATM   16  N   UNK A   1      -9.137   9.262  64.293  1.00  0.00    -0.429 NA 
HETATM   17  H   UNK A   1      -9.147   8.685  63.452  1.00  0.00     0.000 HD 
BRANCH  16  18
HETATM   18  C   UNK A   0      -8.066   8.809  65.234  1.00  0.00    -0.129 C  
BRANCH  18  19
HETATM   19  C   UNK A   0      -8.683   8.216  66.501  1.00  0.00    -0.160 C  
BRANCH  19  20
HETATM   20  C   UNK A   0     -10.218   8.165  66.500  1.00  0.00    -0.248 C  
BRANCH  20  21
HETATM   21  C   UNK A   0     -10.657   7.812  67.901  1.00  0.00    -0.221 A  
HETATM   22  C   UNK A   0     -10.990   6.490  68.226  1.00  0.00    -0.362 A  
HETATM   23  C   UNK A   0     -10.558   8.767  68.923  1.00  0.00    -0.178 A  
HETATM   24  C   UNK A   0     -11.169   6.117  69.557  1.00  0.00    -0.482 A  
HETATM   25  C   UNK A   0     -10.740   8.391  70.253  1.00  0.00    -0.240 A  
HETATM   26  C   UNK A   0     -11.028   7.065  70.570  1.00  0.00    -0.297 A  
ENDBRANCH  20  21
ENDBRANCH  19  20
ENDBRANCH  18  19
BRANCH  18  27
HETATM   27  C   UNK A   0      -7.158   7.781  64.530  1.00  0.00    -0.065 C  
HETATM   28  O   UNK A   0      -6.960   6.632  64.901  1.00  0.00    -0.054 OA 
BRANCH  27  29
HETATM   29  O   UNK A   0      -6.611   8.354  63.415  1.00  0.00    -0.084 OA 
BRANCH  29  30
HETATM   30  C   UNK A   0      -5.293   8.904  63.566  1.00  0.00    -0.063 C  
HETATM   31  C   UNK A   0      -5.351  10.411  63.745  1.00  0.00    -0.150 C  
ENDBRANCH  29  30
ENDBRANCH  27  29
ENDBRANCH  18  27
ENDBRANCH  16  18
ENDBRANCH  14  16
ENDBRANCH   7  14
TORSDOF 9
ENDMDL
MODEL       86
REMARK 921   NORMALIZED FREE ENERGY PREDICTED BY IDOCK:   -5.25 KCAL/MOL
REMARK 922        TOTAL FREE ENERGY PREDICTED BY IDOCK:   -9.64 KCAL/MOL
REMARK 923 INTER-LIGAND FREE ENERGY PREDICTED BY IDOCK:   -7.95 KCAL/MOL
REMARK 924 INTRA-LIGAND FREE ENERGY PREDICTED BY IDOCK:   -1.70 KCAL/MOL
REMARK 927      BINDING AFFINITY PREDICTED BY RF-SCORE:    0.00 PKD
ROOT
HETATM    1  C   UNK A   1     -10.250   8.158  72.397  1.00  0.00    -0.368 C  
HETATM    2  C   UNK A   1     -10.744   6.828  73.001  1.00  0.00    -0.315 C  
HETATM    3  C   UNK A   1     -11.608   6.175  71.930  1.00  0.00    -0.352 C  
HETATM    4  C   UNK A   1     -11.953   7.310  70.982  1.00  0.00    -0.362 C  
HETATM    5  C   UNK A   1     -10.676   8.144  70.919  1.00  0.00    -0.221 C  
HETATM    6  N   UNK A   1      -9.520   7.570  70.214  1.00  0.00    -0.165 N  
HETATM    7  C   UNK A   1      -9.357   7.454  68.833  1.00  0.00    -0.145 C  
HETATM    8  C   UNK A   1      -8.287   7.712  71.039  1.00  0.00    -0.112 C  
HETATM    9  C   UNK A   1      -7.459   6.445  71.330  1.00  0.00    -0.089 C  
HETATM   10  C   UNK A   1      -8.740   8.320  72.373  1.00  0.00    -0.279 C  
HETATM   11  O   UNK A   1      -8.238   7.159  68.395  1.00  0.00    -0.122 OA 
HETATM   12  O   UNK A   1      -7.966   5.316  70.782  1.00  0.00    -0.093 OA 
HETATM   13  O   UNK A   1      -6.459   6.434  72.024  1.00  0.00    -0.052 OA 
ENDROOT
BRANCH   7  14
HETATM   14  C   UNK A   1     -10.554   7.623  67.857  1.00  0.00    -0.168 C  
HETATM   15  C   UNK A   1     -11.154   6.244  67.537  1.00  0.00    -0.379 C  
BRANCH  14  16
HETATM   16  N   UNK A   1     -10.105   8.315  66.624  1.00  0.00    -0.329 NA 
HETATM   17  H   UNK A   1     -10.529   7.893  65.799  1.00  0.00     0.000 HD 
BRANCH  16  18
HETATM   18  C   UNK A   0     -10.346   9.791  66.648  1.00  0.00    -0.206 C  
BRANCH  18  19
HETATM   19  C   UNK A   0     -11.042  10.198  67.947  1.00  0.00    -0.303 C  
BRANCH  19  20
HETATM   20  C   UNK A   0     -11.184  11.714  68.147  1.00  0.00    -0.325 C  
BRANCH  20  21
HETATM   21  C   UNK A   0     -12.010  11.928  69.392  1.00  0.00    -0.350 A  
HETATM   22  C   UNK A   0     -12.497  10.831  70.116  1.00  0.00    -0.357 A  
HETATM   23  C   UNK A   0     -12.138  13.217  69.931  1.00  0.00    -0.357 A  
HETATM   24  C   UNK A   0     -13.056  11.013  71.379  1.00  0.00    -0.441 A  
HETATM   25  C   UNK A   0     -12.700  13.396  71.193  1.00  0.00    -0.411 A  
HETATM   26  C   UNK A   0     -13.141  12.295  71.923  1.00  0.00    -0.469 A  
ENDBRANCH  20  21
ENDBRANCH  19  20
ENDBRANCH  18  19
BRANCH  18  27
HETATM   27  C   UNK A   0      -9.007  10.538  66.483  1.00  0.00    -0.157 C  
HETATM   28  O   UNK A   0      -8.019  10.395  67.190  1.00  0.00    -0.112 OA 
BRANCH  27  29
HETATM   29  O   UNK A   0      -9.094  11.384  65.412  1.00  0.00    -0.190 OA 
BRANCH  29  30
HETATM   30  C   UNK A   0     -10.076  11.050  64.418  1.00  0.00    -0.334 C  
HETATM   31  C   UNK A   0      -9.523  11.257  63.019  1.00  0.00    -0.385 C  
ENDBRANCH  29  30
ENDBRANCH  27  29
ENDBRANCH  18  27
ENDBRANCH  16  18
ENDBRANCH  14  16
ENDBRANCH   7  14
TORSDOF 9
ENDMDL
MODEL       87
REMARK 921   NORMALIZED FREE ENERGY PREDICTED BY IDOCK:   -5.23 KCAL/MOL
REMARK 922        TOTAL FREE ENERGY PREDICTED BY IDOCK:   -9.62 KCAL/MOL
REMARK 923 INTER-LIGAND FREE ENERGY PREDICTED BY IDOCK:   -7.86 KCAL/MOL
REMARK 924 INTRA-LIGAND FREE ENERGY PREDICTED BY IDOCK:   -1.76 KCAL/MOL
REMARK 927      BINDING AFFINITY PREDICTED BY RF-SCORE:    0.00 PKD
ROOT
HETATM    1  C   UNK A   1     -10.341   5.197  69.278  1.00  0.00    -0.248 C  
HETATM    2  C   UNK A   1      -9.769   4.595  67.979  1.00  0.00    -0.197 C  
HETATM    3  C   UNK A   1     -10.017   5.630  66.890  1.00  0.00    -0.202 C  
HETATM    4  C   UNK A   1     -11.090   6.536  67.469  1.00  0.00    -0.396 C  
HETATM    5  C   UNK A   1     -10.722   6.650  68.946  1.00  0.00    -0.264 C  
HETATM    6  N   UNK A   1      -9.522   7.428  69.293  1.00  0.00    -0.154 N  
HETATM    7  C   UNK A   1      -9.397   8.817  69.289  1.00  0.00    -0.149 C  
HETATM    8  C   UNK A   1      -8.672   6.667  70.252  1.00  0.00    -0.147 C  
HETATM    9  C   UNK A   1      -7.190   6.446  69.889  1.00  0.00    -0.074 C  
HETATM   10  C   UNK A   1      -9.346   5.299  70.420  1.00  0.00    -0.208 C  
HETATM   11  O   UNK A   1      -8.401   9.321  69.821  1.00  0.00    -0.116 OA 
HETATM   12  O   UNK A   1      -6.825   6.989  68.703  1.00  0.00    -0.070 OA 
HETATM   13  O   UNK A   1      -6.413   5.806  70.574  1.00  0.00    -0.033 OA 
ENDROOT
BRANCH   7  14
HETATM   14  C   UNK A   1     -10.441   9.724  68.580  1.00  0.00    -0.210 C  
HETATM   15  C   UNK A   1      -9.995   9.986  67.132  1.00  0.00    -0.251 C  
BRANCH  14  16
HETATM   16  N   UNK A   1     -10.600  10.992  69.333  1.00  0.00    -0.358 NA 
HETATM   17  H   UNK A   1      -9.841  11.639  69.115  1.00  0.00     0.000 HD 
BRANCH  16  18
HETATM   18  C   UNK A   0     -11.929  11.646  69.125  1.00  0.00    -0.313 C  
BRANCH  18  19
HETATM   19  C   UNK A   0     -12.991  10.989  70.006  1.00  0.00     0.073 C  
BRANCH  19  20
HETATM   20  C   UNK A   0     -12.591  10.833  71.481  1.00  0.00    -0.500 C  
BRANCH  20  21
HETATM   21  C   UNK A   0     -12.695   9.366  71.823  1.00  0.00    -0.476 A  
HETATM   22  C   UNK A   0     -13.890   8.670  71.596  1.00  0.00    -0.440 A  
HETATM   23  C   UNK A   0     -11.546   8.655  72.196  1.00  0.00    -0.440 A  
HETATM   24  C   UNK A   0     -13.922   7.280  71.689  1.00  0.00    -0.488 A  
HETATM   25  C   UNK A   0     -11.583   7.265  72.292  1.00  0.00    -0.315 A  
HETATM   26  C   UNK A   0     -12.764   6.578  72.022  1.00  0.00    -0.154 A  
ENDBRANCH  20  21
ENDBRANCH  19  20
ENDBRANCH  18  19
BRANCH  18  27
HETATM   27  C   UNK A   0     -11.819  13.154  69.426  1.00  0.00    -0.326 C  
HETATM   28  O   UNK A   0     -12.352  13.734  70.361  1.00  0.00    -0.333 OA 
BRANCH  27  29
HETATM   29  O   UNK A   0     -11.020  13.743  68.485  1.00  0.00    -0.244 OA 
BRANCH  29  30
HETATM   30  C   UNK A   0     -11.641  14.741  67.660  1.00  0.00    -0.354 C  
HETATM   31  C   UNK A   0     -12.128  14.139  66.354  1.00  0.00    -0.475 C  
ENDBRANCH  29  30
ENDBRANCH  27  29
ENDBRANCH  18  27
ENDBRANCH  16  18
ENDBRANCH  14  16
ENDBRANCH   7  14
TORSDOF 9
ENDMDL
MODEL       88
REMARK 921   NORMALIZED FREE ENERGY PREDICTED BY IDOCK:   -5.23 KCAL/MOL
REMARK 922        TOTAL FREE ENERGY PREDICTED BY IDOCK:   -9.62 KCAL/MOL
REMARK 923 INTER-LIGAND FREE ENERGY PREDICTED BY IDOCK:   -7.70 KCAL/MOL
REMARK 924 INTRA-LIGAND FREE ENERGY PREDICTED BY IDOCK:   -1.92 KCAL/MOL
REMARK 927      BINDING AFFINITY PREDICTED BY RF-SCORE:    0.00 PKD
ROOT
HETATM    1  C   UNK A   1      -9.734  10.899  65.637  1.00  0.00    -0.279 C  
HETATM    2  C   UNK A   1     -10.778   9.975  66.296  1.00  0.00    -0.018 C  
HETATM    3  C   UNK A   1     -11.114  10.611  67.638  1.00  0.00    -0.385 C  
HETATM    4  C   UNK A   1      -9.963  11.567  67.900  1.00  0.00    -0.193 C  
HETATM    5  C   UNK A   1      -9.645  12.151  66.526  1.00  0.00    -0.228 C  
HETATM    6  N   UNK A   1     -10.618  13.084  65.938  1.00  0.00    -0.271 N  
HETATM    7  C   UNK A   1     -10.831  14.412  66.308  1.00  0.00    -0.313 C  
HETATM    8  C   UNK A   1     -10.899  12.714  64.521  1.00  0.00    -0.336 C  
HETATM    9  C   UNK A   1     -12.368  12.505  64.104  1.00  0.00    -0.462 C  
HETATM   10  C   UNK A   1     -10.124  11.415  64.263  1.00  0.00    -0.347 C  
HETATM   11  O   UNK A   1     -11.521  15.125  65.570  1.00  0.00    -0.312 OA 
HETATM   12  O   UNK A   1     -13.258  12.688  65.107  1.00  0.00    -0.646 OA 
HETATM   13  O   UNK A   1     -12.712  12.162  62.987  1.00  0.00    -0.492 OA 
ENDROOT
BRANCH   7  14
HETATM   14  C   UNK A   1     -10.278  14.981  67.644  1.00  0.00    -0.236 C  
HETATM   15  C   UNK A   1     -11.448  15.306  68.587  1.00  0.00    -0.350 C  
BRANCH  14  16
HETATM   16  N   UNK A   1      -9.453  16.184  67.375  1.00  0.00    -0.225 NA 
HETATM   17  H   UNK A   1      -9.790  16.981  67.914  1.00  0.00     0.000 HD 
BRANCH  16  18
HETATM   18  C   UNK A   0      -7.991  15.967  67.608  1.00  0.00    -0.143 C  
BRANCH  18  19
HETATM   19  C   UNK A   0      -7.653  14.478  67.537  1.00  0.00    -0.211 C  
BRANCH  19  20
HETATM   20  C   UNK A   0      -7.004  13.909  68.807  1.00  0.00    -0.108 C  
BRANCH  20  21
HETATM   21  C   UNK A   0      -6.523  12.516  68.480  1.00  0.00    -0.073 A  
HETATM   22  C   UNK A   0      -6.766  11.457  69.365  1.00  0.00    -0.122 A  
HETATM   23  C   UNK A   0      -5.993  12.241  67.210  1.00  0.00    -0.150 A  
HETATM   24  C   UNK A   0      -6.534  10.141  68.970  1.00  0.00    -0.044 A  
HETATM   25  C   UNK A   0      -5.760  10.924  66.819  1.00  0.00    -0.080 A  
HETATM   26  C   UNK A   0      -6.046   9.876  67.690  1.00  0.00    -0.054 A  
ENDBRANCH  20  21
ENDBRANCH  19  20
ENDBRANCH  18  19
BRANCH  18  27
HETATM   27  C   UNK A   0      -7.177  16.767  66.572  1.00  0.00    -0.243 C  
HETATM   28  O   UNK A   0      -5.975  16.660  66.374  1.00  0.00    -0.283 OA 
BRANCH  27  29
HETATM   29  O   UNK A   0      -8.014  17.615  65.899  1.00  0.00    -0.531 OA 
BRANCH  29  30
HETATM   30  C   UNK A   0      -7.696  19.013  65.975  1.00  0.00    -0.229 C  
HETATM   31  C   UNK A   0      -8.374  19.660  67.170  1.00  0.00    -0.334 C  
ENDBRANCH  29  30
ENDBRANCH  27  29
ENDBRANCH  18  27
ENDBRANCH  16  18
ENDBRANCH  14  16
ENDBRANCH   7  14
TORSDOF 9
ENDMDL
MODEL       89
REMARK 921   NORMALIZED FREE ENERGY PREDICTED BY IDOCK:   -5.22 KCAL/MOL
REMARK 922        TOTAL FREE ENERGY PREDICTED BY IDOCK:   -9.60 KCAL/MOL
REMARK 923 INTER-LIGAND FREE ENERGY PREDICTED BY IDOCK:   -8.31 KCAL/MOL
REMARK 924 INTRA-LIGAND FREE ENERGY PREDICTED BY IDOCK:   -1.28 KCAL/MOL
REMARK 927      BINDING AFFINITY PREDICTED BY RF-SCORE:    0.00 PKD
ROOT
HETATM    1  C   UNK A   1     -10.442  13.788  64.566  1.00  0.00    -0.378 C  
HETATM    2  C   UNK A   1     -11.953  13.799  64.262  1.00  0.00    -0.481 C  
HETATM    3  C   UNK A   1     -12.448  12.384  64.536  1.00  0.00    -0.519 C  
HETATM    4  C   UNK A   1     -11.187  11.537  64.527  1.00  0.00    -0.301 C  
HETATM    5  C   UNK A   1     -10.141  12.420  65.203  1.00  0.00    -0.256 C  
HETATM    6  N   UNK A   1     -10.276  12.655  66.649  1.00  0.00    -0.233 N  
HETATM    7  C   UNK A   1      -9.986  11.752  67.672  1.00  0.00    -0.194 C  
HETATM    8  C   UNK A   1     -10.129  14.106  66.953  1.00  0.00    -0.258 C  
HETATM    9  C   UNK A   1     -11.247  14.795  67.761  1.00  0.00    -0.313 C  
HETATM   10  C   UNK A   1      -9.996  14.811  65.597  1.00  0.00    -0.390 C  
HETATM   11  O   UNK A   1      -9.936  12.175  68.833  1.00  0.00    -0.106 OA 
HETATM   12  O   UNK A   1     -12.264  13.971  68.109  1.00  0.00    -0.325 OA 
HETATM   13  O   UNK A   1     -11.254  15.982  68.033  1.00  0.00    -0.344 OA 
ENDROOT
BRANCH   7  14
HETATM   14  C   UNK A   1      -9.792  10.237  67.388  1.00  0.00    -0.179 C  
HETATM   15  C   UNK A   1     -11.158   9.588  67.107  1.00  0.00     0.163 C  
BRANCH  14  16
HETATM   16  N   UNK A   1      -9.115   9.591  68.539  1.00  0.00    -0.131 NA 
HETATM   17  H   UNK A   1      -8.615  10.283  69.098  1.00  0.00     0.000 HD 
BRANCH  16  18
HETATM   18  C   UNK A   0     -10.038   8.785  69.397  1.00  0.00    -0.203 C  
BRANCH  18  19
HETATM   19  C   UNK A   0      -9.687   7.300  69.311  1.00  0.00    -0.161 C  
BRANCH  19  20
HETATM   20  C   UNK A   0     -10.875   6.349  69.524  1.00  0.00    -0.381 C  
BRANCH  20  21
HETATM   21  C   UNK A   0     -10.626   5.599  70.810  1.00  0.00    -0.335 A  
HETATM   22  C   UNK A   0     -11.324   5.942  71.976  1.00  0.00    -0.325 A  
HETATM   23  C   UNK A   0      -9.833   4.442  70.800  1.00  0.00    -0.273 A  
HETATM   24  C   UNK A   0     -11.273   5.115  73.096  1.00  0.00    -0.398 A  
HETATM   25  C   UNK A   0      -9.781   3.618  71.922  1.00  0.00    -0.236 A  
HETATM   26  C   UNK A   0     -10.514   3.945  73.061  1.00  0.00    -0.253 A  
ENDBRANCH  20  21
ENDBRANCH  19  20
ENDBRANCH  18  19
BRANCH  18  27
HETATM   27  C   UNK A   0      -9.962   9.285  70.853  1.00  0.00    -0.297 C  
HETATM   28  O   UNK A   0      -9.077   9.017  71.654  1.00  0.00    -0.300 OA 
BRANCH  27  29
HETATM   29  O   UNK A   0     -11.041  10.086  71.110  1.00  0.00    -0.333 OA 
BRANCH  29  30
HETATM   30  C   UNK A   0     -12.072   9.518  71.933  1.00  0.00    -0.337 C  
HETATM   31  C   UNK A   0     -13.357   9.336  71.145  1.00  0.00    -0.236 C  
ENDBRANCH  29  30
ENDBRANCH  27  29
ENDBRANCH  18  27
ENDBRANCH  16  18
ENDBRANCH  14  16
ENDBRANCH   7  14
TORSDOF 9
ENDMDL
MODEL       90
REMARK 921   NORMALIZED FREE ENERGY PREDICTED BY IDOCK:   -5.21 KCAL/MOL
REMARK 922        TOTAL FREE ENERGY PREDICTED BY IDOCK:   -9.59 KCAL/MOL
REMARK 923 INTER-LIGAND FREE ENERGY PREDICTED BY IDOCK:   -7.81 KCAL/MOL
REMARK 924 INTRA-LIGAND FREE ENERGY PREDICTED BY IDOCK:   -1.78 KCAL/MOL
REMARK 927      BINDING AFFINITY PREDICTED BY RF-SCORE:    0.00 PKD
ROOT
HETATM    1  C   UNK A   1     -10.466   6.932  71.378  1.00  0.00    -0.230 C  
HETATM    2  C   UNK A   1     -10.203   7.260  72.860  1.00  0.00    -0.289 C  
HETATM    3  C   UNK A   1      -9.332   8.510  72.866  1.00  0.00    -0.197 C  
HETATM    4  C   UNK A   1      -8.760   8.576  71.460  1.00  0.00    -0.246 C  
HETATM    5  C   UNK A   1      -9.911   8.117  70.569  1.00  0.00    -0.186 C  
HETATM    6  N   UNK A   1     -11.060   9.022  70.416  1.00  0.00    -0.243 N  
HETATM    7  C   UNK A   1     -11.108  10.189  69.653  1.00  0.00    -0.263 C  
HETATM    8  C   UNK A   1     -12.336   8.275  70.606  1.00  0.00     0.187 C  
HETATM    9  C   UNK A   1     -13.341   8.811  71.645  1.00  0.00    -0.359 C  
HETATM   10  C   UNK A   1     -11.935   6.848  70.999  1.00  0.00    -0.422 C  
HETATM   11  O   UNK A   1     -12.210  10.713  69.447  1.00  0.00    -0.252 OA 
HETATM   12  O   UNK A   1     -12.931   9.933  72.282  1.00  0.00    -0.391 OA 
HETATM   13  O   UNK A   1     -14.394   8.262  71.914  1.00  0.00    -0.427 OA 
ENDROOT
BRANCH   7  14
HETATM   14  C   UNK A   1      -9.814  10.866  69.123  1.00  0.00    -0.145 C  
HETATM   15  C   UNK A   1     -10.157  12.251  68.548  1.00  0.00    -0.192 C  
BRANCH  14  16
HETATM   16  N   UNK A   1      -9.176  10.001  68.100  1.00  0.00    -0.127 NA 
HETATM   17  H   UNK A   1      -8.853   9.128  68.517  1.00  0.00     0.000 HD 
BRANCH  16  18
HETATM   18  C   UNK A   0     -10.051   9.733  66.917  1.00  0.00    -0.226 C  
BRANCH  18  19
HETATM   19  C   UNK A   0      -9.502  10.436  65.676  1.00  0.00    -0.262 C  
BRANCH  19  20
HETATM   20  C   UNK A   0     -10.553  10.743  64.599  1.00  0.00    -0.269 C  
BRANCH  20  21
HETATM   21  C   UNK A   0     -10.985  12.177  64.788  1.00  0.00    -0.356 A  
HETATM   22  C   UNK A   0     -12.268  12.472  65.268  1.00  0.00    -0.493 A  
HETATM   23  C   UNK A   0     -10.046  13.211  64.658  1.00  0.00    -0.248 A  
HETATM   24  C   UNK A   0     -12.591  13.769  65.663  1.00  0.00    -0.551 A  
HETATM   25  C   UNK A   0     -10.373  14.508  65.050  1.00  0.00    -0.442 A  
HETATM   26  C   UNK A   0     -11.636  14.782  65.568  1.00  0.00    -0.301 A  
ENDBRANCH  20  21
ENDBRANCH  19  20
ENDBRANCH  18  19
BRANCH  18  27
HETATM   27  C   UNK A   0     -10.158   8.212  66.686  1.00  0.00    -0.273 C  
HETATM   28  O   UNK A   0     -10.981   7.469  67.201  1.00  0.00    -0.293 OA 
BRANCH  27  29
HETATM   29  O   UNK A   0      -9.188   7.823  65.803  1.00  0.00    -0.084 OA 
BRANCH  29  30
HETATM   30  C   UNK A   0      -8.445   6.645  66.155  1.00  0.00    -0.135 C  
HETATM   31  C   UNK A   0      -7.423   6.951  67.236  1.00  0.00    -0.096 C  
ENDBRANCH  29  30
ENDBRANCH  27  29
ENDBRANCH  18  27
ENDBRANCH  16  18
ENDBRANCH  14  16
ENDBRANCH   7  14
TORSDOF 9
ENDMDL
MODEL       91
REMARK 921   NORMALIZED FREE ENERGY PREDICTED BY IDOCK:   -5.17 KCAL/MOL
REMARK 922        TOTAL FREE ENERGY PREDICTED BY IDOCK:   -9.53 KCAL/MOL
REMARK 923 INTER-LIGAND FREE ENERGY PREDICTED BY IDOCK:   -7.34 KCAL/MOL
REMARK 924 INTRA-LIGAND FREE ENERGY PREDICTED BY IDOCK:   -2.19 KCAL/MOL
REMARK 927      BINDING AFFINITY PREDICTED BY RF-SCORE:    0.00 PKD
ROOT
HETATM    1  C   UNK A   1      -9.342  10.775  67.067  1.00  0.00    -0.174 C  
HETATM    2  C   UNK A   1      -8.627  10.018  68.203  1.00  0.00    -0.118 C  
HETATM    3  C   UNK A   1      -7.805  11.059  68.952  1.00  0.00    -0.138 C  
HETATM    4  C   UNK A   1      -7.704  12.225  67.984  1.00  0.00    -0.132 C  
HETATM    5  C   UNK A   1      -9.074  12.270  67.312  1.00  0.00    -0.184 C  
HETATM    6  N   UNK A   1     -10.218  12.715  68.124  1.00  0.00    -0.233 N  
HETATM    7  C   UNK A   1     -10.509  14.024  68.510  1.00  0.00    -0.249 C  
HETATM    8  C   UNK A   1     -11.366  11.779  67.958  1.00  0.00    -0.288 C  
HETATM    9  C   UNK A   1     -11.996  11.172  69.227  1.00  0.00    -0.351 C  
HETATM   10  C   UNK A   1     -10.854  10.638  67.069  1.00  0.00    -0.298 C  
HETATM   11  O   UNK A   1     -11.622  14.261  68.996  1.00  0.00    -0.266 OA 
HETATM   12  O   UNK A   1     -11.412  11.576  70.380  1.00  0.00    -0.218 OA 
HETATM   13  O   UNK A   1     -12.909  10.367  69.212  1.00  0.00     0.080 OA 
ENDROOT
BRANCH   7  14
HETATM   14  C   UNK A   1      -9.450  15.156  68.404  1.00  0.00    -0.208 C  
HETATM   15  C   UNK A   1      -8.657  15.243  69.718  1.00  0.00     0.009 C  
BRANCH  14  16
HETATM   16  N   UNK A   1     -10.120  16.443  68.093  1.00  0.00    -0.244 NA 
HETATM   17  H   UNK A   1     -10.109  17.061  68.904  1.00  0.00     0.000 HD 
BRANCH  16  18
HETATM   18  C   UNK A   0      -9.553  17.133  66.893  1.00  0.00    -0.262 C  
BRANCH  18  19
HETATM   19  C   UNK A   0     -10.227  16.627  65.617  1.00  0.00    -0.285 C  
BRANCH  19  20
HETATM   20  C   UNK A   0      -9.664  15.303  65.080  1.00  0.00    -0.036 C  
BRANCH  20  21
HETATM   21  C   UNK A   0     -10.840  14.412  64.759  1.00  0.00    -0.415 A  
HETATM   22  C   UNK A   0     -10.655  13.234  64.023  1.00  0.00    -0.217 A  
HETATM   23  C   UNK A   0     -12.087  14.665  65.349  1.00  0.00    -0.250 A  
HETATM   24  C   UNK A   0     -11.683  12.298  63.923  1.00  0.00    -0.536 A  
HETATM   25  C   UNK A   0     -13.114  13.729  65.244  1.00  0.00    -0.193 A  
HETATM   26  C   UNK A   0     -12.907  12.540  64.548  1.00  0.00    -0.352 A  
ENDBRANCH  20  21
ENDBRANCH  19  20
ENDBRANCH  18  19
BRANCH  18  27
HETATM   27  C   UNK A   0      -9.729  18.658  67.040  1.00  0.00    -0.308 C  
HETATM   28  O   UNK A   0     -10.788  19.265  66.957  1.00  0.00    -0.464 OA 
BRANCH  27  29
HETATM   29  O   UNK A   0      -8.511  19.229  67.289  1.00  0.00    -0.279 OA 
BRANCH  29  30
HETATM   30  C   UNK A   0      -8.110  19.294  68.666  1.00  0.00    -0.370 C  
HETATM   31  C   UNK A   0      -6.702  19.848  68.796  1.00  0.00    -0.358 C  
ENDBRANCH  29  30
ENDBRANCH  27  29
ENDBRANCH  18  27
ENDBRANCH  16  18
ENDBRANCH  14  16
ENDBRANCH   7  14
TORSDOF 9
ENDMDL
MODEL       92
REMARK 921   NORMALIZED FREE ENERGY PREDICTED BY IDOCK:   -5.15 KCAL/MOL
REMARK 922        TOTAL FREE ENERGY PREDICTED BY IDOCK:   -9.50 KCAL/MOL
REMARK 923 INTER-LIGAND FREE ENERGY PREDICTED BY IDOCK:   -7.77 KCAL/MOL
REMARK 924 INTRA-LIGAND FREE ENERGY PREDICTED BY IDOCK:   -1.72 KCAL/MOL
REMARK 927      BINDING AFFINITY PREDICTED BY RF-SCORE:    0.00 PKD
ROOT
HETATM    1  C   UNK A   1     -12.022  13.203  66.875  1.00  0.00    -0.421 C  
HETATM    2  C   UNK A   1     -10.868  14.172  67.200  1.00  0.00    -0.291 C  
HETATM    3  C   UNK A   1     -10.013  13.470  68.248  1.00  0.00    -0.237 C  
HETATM    4  C   UNK A   1     -10.918  12.387  68.808  1.00  0.00    -0.287 C  
HETATM    5  C   UNK A   1     -11.691  11.883  67.592  1.00  0.00    -0.275 C  
HETATM    6  N   UNK A   1     -10.953  11.100  66.589  1.00  0.00    -0.260 N  
HETATM    7  C   UNK A   1     -10.533   9.775  66.707  1.00  0.00    -0.189 C  
HETATM    8  C   UNK A   1     -11.249  11.605  65.218  1.00  0.00    -0.199 C  
HETATM    9  C   UNK A   1     -10.060  11.991  64.315  1.00  0.00    -0.293 C  
HETATM   10  C   UNK A   1     -12.144  12.836  65.406  1.00  0.00    -0.512 C  
HETATM   11  O   UNK A   1     -10.126   9.194  65.695  1.00  0.00    -0.159 OA 
HETATM   12  O   UNK A   1      -8.848  11.820  64.895  1.00  0.00     0.252 OA 
HETATM   13  O   UNK A   1     -10.182  12.452  63.195  1.00  0.00    -0.339 OA 
ENDROOT
BRANCH   7  14
HETATM   14  C   UNK A   1     -10.507   9.052  68.082  1.00  0.00    -0.207 C  
HETATM   15  C   UNK A   1      -9.067   9.022  68.620  1.00  0.00    -0.137 C  
BRANCH  14  16
HETATM   16  N   UNK A   1     -11.057   7.681  67.940  1.00  0.00    -0.465 NA 
HETATM   17  H   UNK A   1     -11.090   7.406  66.959  1.00  0.00     0.000 HD 
BRANCH  16  18
HETATM   18  C   UNK A   0     -10.328   6.660  68.754  1.00  0.00    -0.194 C  
BRANCH  18  19
HETATM   19  C   UNK A   0     -11.252   6.063  69.815  1.00  0.00    -0.440 C  
BRANCH  19  20
HETATM   20  C   UNK A   0     -10.898   6.446  71.259  1.00  0.00    -0.306 C  
BRANCH  20  21
HETATM   21  C   UNK A   0     -11.781   7.608  71.646  1.00  0.00    -0.313 A  
HETATM   22  C   UNK A   0     -11.272   8.913  71.651  1.00  0.00    -0.415 A  
HETATM   23  C   UNK A   0     -13.158   7.407  71.824  1.00  0.00    -0.363 A  
HETATM   24  C   UNK A   0     -12.131  10.003  71.779  1.00  0.00    -0.323 A  
HETATM   25  C   UNK A   0     -14.014   8.499  71.954  1.00  0.00    -0.498 A  
HETATM   26  C   UNK A   0     -13.503   9.794  71.914  1.00  0.00    -0.485 A  
ENDBRANCH  20  21
ENDBRANCH  19  20
ENDBRANCH  18  19
BRANCH  18  27
HETATM   27  C   UNK A   0      -9.771   5.560  67.827  1.00  0.00    -0.130 C  
HETATM   28  O   UNK A   0     -10.429   4.679  67.292  1.00  0.00    -0.067 OA 
BRANCH  27  29
HETATM   29  O   UNK A   0      -8.421   5.730  67.690  1.00  0.00    -0.105 OA 
BRANCH  29  30
HETATM   30  C   UNK A   0      -7.589   4.763  68.350  1.00  0.00    -0.077 C  
HETATM   31  C   UNK A   0      -6.336   4.482  67.541  1.00  0.00    -0.041 C  
ENDBRANCH  29  30
ENDBRANCH  27  29
ENDBRANCH  18  27
ENDBRANCH  16  18
ENDBRANCH  14  16
ENDBRANCH   7  14
TORSDOF 9
ENDMDL
MODEL       93
REMARK 921   NORMALIZED FREE ENERGY PREDICTED BY IDOCK:   -5.15 KCAL/MOL
REMARK 922        TOTAL FREE ENERGY PREDICTED BY IDOCK:   -9.49 KCAL/MOL
REMARK 923 INTER-LIGAND FREE ENERGY PREDICTED BY IDOCK:   -8.34 KCAL/MOL
REMARK 924 INTRA-LIGAND FREE ENERGY PREDICTED BY IDOCK:   -1.15 KCAL/MOL
REMARK 927      BINDING AFFINITY PREDICTED BY RF-SCORE:    0.00 PKD
ROOT
HETATM    1  C   UNK A   1     -10.766  14.977  69.431  1.00  0.00    -0.267 C  
HETATM    2  C   UNK A   1     -11.744  15.515  68.367  1.00  0.00    -0.323 C  
HETATM    3  C   UNK A   1     -12.348  14.290  67.693  1.00  0.00    -0.061 C  
HETATM    4  C   UNK A   1     -11.396  13.160  68.045  1.00  0.00    -0.327 C  
HETATM    5  C   UNK A   1     -10.983  13.455  69.484  1.00  0.00     0.051 C  
HETATM    6  N   UNK A   1     -11.993  13.269  70.537  1.00  0.00    -0.523 N  
HETATM    7  C   UNK A   1     -12.447  12.055  71.054  1.00  0.00    -0.276 C  
HETATM    8  C   UNK A   1     -12.022  14.453  71.442  1.00  0.00    -0.267 C  
HETATM    9  C   UNK A   1     -13.374  15.155  71.675  1.00  0.00    -0.431 C  
HETATM   10  C   UNK A   1     -11.038  15.466  70.843  1.00  0.00    -0.374 C  
HETATM   11  O   UNK A   1     -13.128  12.073  72.087  1.00  0.00    -0.437 OA 
HETATM   12  O   UNK A   1     -14.410  14.594  71.007  1.00  0.00    -0.213 OA 
HETATM   13  O   UNK A   1     -13.510  16.153  72.360  1.00  0.00    -0.313 OA 
ENDROOT
BRANCH   7  14
HETATM   14  C   UNK A   1     -12.170  10.709  70.329  1.00  0.00    -0.334 C  
HETATM   15  C   UNK A   1     -13.092   9.619  70.898  1.00  0.00    -0.228 C  
BRANCH  14  16
HETATM   16  N   UNK A   1     -10.741  10.340  70.482  1.00  0.00    -0.421 NA 
HETATM   17  H   UNK A   1     -10.390  10.625  71.395  1.00  0.00     0.000 HD 
BRANCH  16  18
HETATM   18  C   UNK A   0     -10.472   8.888  70.241  1.00  0.00    -0.210 C  
BRANCH  18  19
HETATM   19  C   UNK A   0      -9.706   8.696  68.932  1.00  0.00    -0.171 C  
BRANCH  19  20
HETATM   20  C   UNK A   0     -10.590   8.408  67.710  1.00  0.00    -0.238 C  
BRANCH  20  21
HETATM   21  C   UNK A   0     -10.023   9.189  66.549  1.00  0.00    -0.359 A  
HETATM   22  C   UNK A   0      -9.060   8.611  65.711  1.00  0.00    -0.242 A  
HETATM   23  C   UNK A   0     -10.587  10.424  66.198  1.00  0.00    -0.160 A  
HETATM   24  C   UNK A   0      -8.706   9.232  64.514  1.00  0.00    -0.218 A  
HETATM   25  C   UNK A   0     -10.229  11.043  65.002  1.00  0.00    -0.360 A  
HETATM   26  C   UNK A   0      -9.304  10.440  64.154  1.00  0.00    -0.323 A  
ENDBRANCH  20  21
ENDBRANCH  19  20
ENDBRANCH  18  19
BRANCH  18  27
HETATM   27  C   UNK A   0      -9.687   8.302  71.430  1.00  0.00    -0.183 C  
HETATM   28  O   UNK A   0      -8.848   8.896  72.093  1.00  0.00    -0.381 OA 
BRANCH  27  29
HETATM   29  O   UNK A   0     -10.082   7.008  71.635  1.00  0.00    -0.183 OA 
BRANCH  29  30
HETATM   30  C   UNK A   0     -10.267   6.610  73.002  1.00  0.00    -0.205 C  
HETATM   31  C   UNK A   0     -11.006   5.286  73.087  1.00  0.00    -0.362 C  
ENDBRANCH  29  30
ENDBRANCH  27  29
ENDBRANCH  18  27
ENDBRANCH  16  18
ENDBRANCH  14  16
ENDBRANCH   7  14
TORSDOF 9
ENDMDL
MODEL       94
REMARK 921   NORMALIZED FREE ENERGY PREDICTED BY IDOCK:   -5.14 KCAL/MOL
REMARK 922        TOTAL FREE ENERGY PREDICTED BY IDOCK:   -9.47 KCAL/MOL
REMARK 923 INTER-LIGAND FREE ENERGY PREDICTED BY IDOCK:   -8.92 KCAL/MOL
REMARK 924 INTRA-LIGAND FREE ENERGY PREDICTED BY IDOCK:   -0.55 KCAL/MOL
REMARK 927      BINDING AFFINITY PREDICTED BY RF-SCORE:    0.00 PKD
ROOT
HETATM    1  C   UNK A   1      -8.728   5.974  68.065  1.00  0.00    -0.112 C  
HETATM    2  C   UNK A   1      -9.209   6.495  66.697  1.00  0.00    -0.172 C  
HETATM    3  C   UNK A   1     -10.454   7.327  66.977  1.00  0.00    -0.398 C  
HETATM    4  C   UNK A   1     -10.896   6.886  68.361  1.00  0.00    -0.238 C  
HETATM    5  C   UNK A   1      -9.589   6.685  69.123  1.00  0.00    -0.135 C  
HETATM    6  N   UNK A   1      -8.813   7.883  69.477  1.00  0.00    -0.141 N  
HETATM    7  C   UNK A   1      -9.108   8.801  70.485  1.00  0.00    -0.177 C  
HETATM    8  C   UNK A   1      -7.378   7.695  69.120  1.00  0.00    -0.089 C  
HETATM    9  C   UNK A   1      -6.708   8.759  68.228  1.00  0.00    -0.065 C  
HETATM   10  C   UNK A   1      -7.295   6.336  68.412  1.00  0.00    -0.086 C  
HETATM   11  O   UNK A   1      -8.241   9.624  70.804  1.00  0.00    -0.273 OA 
HETATM   12  O   UNK A   1      -7.529   9.772  67.864  1.00  0.00    -0.085 OA 
HETATM   13  O   UNK A   1      -5.556   8.689  67.840  1.00  0.00    -0.035 OA 
ENDROOT
BRANCH   7  14
HETATM   14  C   UNK A   1     -10.508   8.848  71.158  1.00  0.00    -0.266 C  
HETATM   15  C   UNK A   1     -10.887   7.443  71.654  1.00  0.00    -0.246 C  
BRANCH  14  16
HETATM   16  N   UNK A   1     -11.510   9.369  70.197  1.00  0.00    -0.410 NA 
HETATM   17  H   UNK A   1     -12.419   8.933  70.351  1.00  0.00     0.000 HD 
BRANCH  16  18
HETATM   18  C   UNK A   0     -11.629  10.860  70.211  1.00  0.00    -0.334 C  
BRANCH  18  19
HETATM   19  C   UNK A   0     -12.008  11.379  68.824  1.00  0.00    -0.353 C  
BRANCH  19  20
HETATM   20  C   UNK A   0     -11.071  10.928  67.694  1.00  0.00    -0.376 C  
BRANCH  20  21
HETATM   21  C   UNK A   0     -11.282  11.867  66.531  1.00  0.00    -0.383 A  
HETATM   22  C   UNK A   0     -10.904  11.488  65.237  1.00  0.00    -0.319 A  
HETATM   23  C   UNK A   0     -12.023  13.045  66.713  1.00  0.00    -0.434 A  
HETATM   24  C   UNK A   0     -11.304  12.243  64.136  1.00  0.00    -0.442 A  
HETATM   25  C   UNK A   0     -12.418  13.800  65.610  1.00  0.00    -0.541 A  
HETATM   26  C   UNK A   0     -12.075  13.391  64.324  1.00  0.00    -0.479 A  
ENDBRANCH  20  21
ENDBRANCH  19  20
ENDBRANCH  18  19
BRANCH  18  27
HETATM   27  C   UNK A   0     -12.672  11.288  71.262  1.00  0.00    -0.405 C  
HETATM   28  O   UNK A   0     -13.339  10.531  71.954  1.00  0.00    -0.418 OA 
BRANCH  27  29
HETATM   29  O   UNK A   0     -12.729  12.654  71.308  1.00  0.00    -0.364 OA 
BRANCH  29  30
HETATM   30  C   UNK A   0     -13.681  13.219  72.223  1.00  0.00    -0.589 C  
HETATM   31  C   UNK A   0     -13.253  14.609  72.662  1.00  0.00    -0.556 C  
ENDBRANCH  29  30
ENDBRANCH  27  29
ENDBRANCH  18  27
ENDBRANCH  16  18
ENDBRANCH  14  16
ENDBRANCH   7  14
TORSDOF 9
ENDMDL
MODEL       95
REMARK 921   NORMALIZED FREE ENERGY PREDICTED BY IDOCK:   -5.13 KCAL/MOL
REMARK 922        TOTAL FREE ENERGY PREDICTED BY IDOCK:   -9.47 KCAL/MOL
REMARK 923 INTER-LIGAND FREE ENERGY PREDICTED BY IDOCK:   -8.74 KCAL/MOL
REMARK 924 INTRA-LIGAND FREE ENERGY PREDICTED BY IDOCK:   -0.73 KCAL/MOL
REMARK 927      BINDING AFFINITY PREDICTED BY RF-SCORE:    0.00 PKD
ROOT
HETATM    1  C   UNK A   1      -9.719  11.058  65.102  1.00  0.00    -0.302 C  
HETATM    2  C   UNK A   1     -10.638  10.292  66.074  1.00  0.00    -0.111 C  
HETATM    3  C   UNK A   1     -10.813  11.195  67.287  1.00  0.00    -0.326 C  
HETATM    4  C   UNK A   1      -9.668  12.188  67.186  1.00  0.00    -0.203 C  
HETATM    5  C   UNK A   1      -9.552  12.470  65.690  1.00  0.00    -0.088 C  
HETATM    6  N   UNK A   1     -10.623  13.255  65.057  1.00  0.00    -0.328 N  
HETATM    7  C   UNK A   1     -10.826  14.631  65.168  1.00  0.00    -0.401 C  
HETATM    8  C   UNK A   1     -11.076  12.595  63.800  1.00  0.00    -0.453 C  
HETATM    9  C   UNK A   1     -12.580  12.299  63.639  1.00  0.00    -0.490 C  
HETATM   10  C   UNK A   1     -10.302  11.273  63.716  1.00  0.00    -0.453 C  
HETATM   11  O   UNK A   1     -11.629  15.171  64.398  1.00  0.00    -0.354 OA 
HETATM   12  O   UNK A   1     -13.336  12.687  64.693  1.00  0.00    -0.767 OA 
HETATM   13  O   UNK A   1     -13.058  11.728  62.675  1.00  0.00     0.037 OA 
ENDROOT
BRANCH   7  14
HETATM   14  C   UNK A   1     -10.120  15.471  66.268  1.00  0.00    -0.295 C  
HETATM   15  C   UNK A   1     -11.050  15.610  67.485  1.00  0.00    -0.289 C  
BRANCH  14  16
HETATM   16  N   UNK A   1      -9.742  16.798  65.724  1.00  0.00    -0.543 NA 
HETATM   17  H   UNK A   1     -10.572  17.339  65.483  1.00  0.00     0.000 HD 
BRANCH  16  18
HETATM   18  C   UNK A   0      -8.845  17.580  66.630  1.00  0.00    -0.262 C  
BRANCH  18  19
HETATM   19  C   UNK A   0      -9.631  18.120  67.825  1.00  0.00    -0.286 C  
BRANCH  19  20
HETATM   20  C   UNK A   0      -9.737  19.651  67.881  1.00  0.00    -0.482 C  
BRANCH  20  21
HETATM   21  C   UNK A   0      -8.361  20.185  68.196  1.00  0.00    -0.144 A  
HETATM   22  C   UNK A   0      -7.722  19.834  69.393  1.00  0.00    -0.016 A  
HETATM   23  C   UNK A   0      -7.644  20.886  67.215  1.00  0.00    -0.312 A  
HETATM   24  C   UNK A   0      -6.374  20.131  69.584  1.00  0.00    -0.359 A  
HETATM   25  C   UNK A   0      -6.297  21.184  67.410  1.00  0.00    -0.430 A  
HETATM   26  C   UNK A   0      -5.659  20.792  68.585  1.00  0.00    -0.382 A  
ENDBRANCH  20  21
ENDBRANCH  19  20
ENDBRANCH  18  19
BRANCH  18  27
HETATM   27  C   UNK A   0      -7.676  16.690  67.097  1.00  0.00    -0.180 C  
HETATM   28  O   UNK A   0      -6.829  16.187  66.372  1.00  0.00    -0.107 OA 
BRANCH  27  29
HETATM   29  O   UNK A   0      -7.729  16.557  68.458  1.00  0.00    -0.182 OA 
BRANCH  29  30
HETATM   30  C   UNK A   0      -6.787  15.644  69.043  1.00  0.00    -0.140 C  
HETATM   31  C   UNK A   0      -7.349  14.234  69.080  1.00  0.00    -0.092 C  
ENDBRANCH  29  30
ENDBRANCH  27  29
ENDBRANCH  18  27
ENDBRANCH  16  18
ENDBRANCH  14  16
ENDBRANCH   7  14
TORSDOF 9
ENDMDL
MODEL       96
REMARK 921   NORMALIZED FREE ENERGY PREDICTED BY IDOCK:   -5.13 KCAL/MOL
REMARK 922        TOTAL FREE ENERGY PREDICTED BY IDOCK:   -9.46 KCAL/MOL
REMARK 923 INTER-LIGAND FREE ENERGY PREDICTED BY IDOCK:   -8.05 KCAL/MOL
REMARK 924 INTRA-LIGAND FREE ENERGY PREDICTED BY IDOCK:   -1.41 KCAL/MOL
REMARK 927      BINDING AFFINITY PREDICTED BY RF-SCORE:    0.00 PKD
ROOT
HETATM    1  C   UNK A   1      -8.605   6.738  65.982  1.00  0.00    -0.149 C  
HETATM    2  C   UNK A   1      -7.137   6.466  66.366  1.00  0.00    -0.068 C  
HETATM    3  C   UNK A   1      -6.743   7.573  67.335  1.00  0.00    -0.067 C  
HETATM    4  C   UNK A   1      -7.788   8.653  67.115  1.00  0.00    -0.097 C  
HETATM    5  C   UNK A   1      -9.084   7.879  66.896  1.00  0.00    -0.143 C  
HETATM    6  N   UNK A   1      -9.674   7.191  68.056  1.00  0.00    -0.137 N  
HETATM    7  C   UNK A   1     -10.360   7.782  69.117  1.00  0.00    -0.215 C  
HETATM    8  C   UNK A   1     -10.043   5.792  67.696  1.00  0.00    -0.173 C  
HETATM    9  C   UNK A   1      -9.495   4.649  68.573  1.00  0.00    -0.147 C  
HETATM   10  C   UNK A   1      -9.555   5.585  66.256  1.00  0.00    -0.173 C  
HETATM   11  O   UNK A   1     -10.987   7.051  69.893  1.00  0.00    -0.248 OA 
HETATM   12  O   UNK A   1      -8.718   5.066  69.601  1.00  0.00    -0.089 OA 
HETATM   13  O   UNK A   1      -9.697   3.469  68.351  1.00  0.00    -0.127 OA 
ENDROOT
BRANCH   7  14
HETATM   14  C   UNK A   1     -10.295   9.313  69.374  1.00  0.00    -0.215 C  
HETATM   15  C   UNK A   1      -9.673   9.576  70.756  1.00  0.00    -0.289 C  
BRANCH  14  16
HETATM   16  N   UNK A   1     -11.654   9.898  69.274  1.00  0.00    -0.460 NA 
HETATM   17  H   UNK A   1     -12.356   9.240  69.612  1.00  0.00     0.000 HD 
BRANCH  16  18
HETATM   18  C   UNK A   0     -11.787  11.217  69.968  1.00  0.00    -0.361 C  
BRANCH  18  19
HETATM   19  C   UNK A   0     -12.083  12.325  68.957  1.00  0.00    -0.197 C  
BRANCH  19  20
HETATM   20  C   UNK A   0     -10.837  12.990  68.354  1.00  0.00    -0.280 C  
BRANCH  20  21
HETATM   21  C   UNK A   0     -11.132  13.261  66.898  1.00  0.00    -0.310 A  
HETATM   22  C   UNK A   0     -10.342  12.683  65.896  1.00  0.00    -0.295 A  
HETATM   23  C   UNK A   0     -12.304  13.943  66.540  1.00  0.00    -0.447 A  
HETATM   24  C   UNK A   0     -10.743  12.739  64.563  1.00  0.00    -0.380 A  
HETATM   25  C   UNK A   0     -12.702  14.000  65.206  1.00  0.00    -0.468 A  
HETATM   26  C   UNK A   0     -11.932  13.384  64.222  1.00  0.00    -0.481 A  
ENDBRANCH  20  21
ENDBRANCH  19  20
ENDBRANCH  18  19
BRANCH  18  27
HETATM   27  C   UNK A   0     -12.897  11.133  71.034  1.00  0.00    -0.329 C  
HETATM   28  O   UNK A   0     -13.201  12.021  71.817  1.00  0.00    -0.450 OA 
BRANCH  27  29
HETATM   29  O   UNK A   0     -13.497   9.906  70.962  1.00  0.00    -0.363 OA 
BRANCH  29  30
HETATM   30  C   UNK A   0     -13.615   9.183  72.197  1.00  0.00    -0.474 C  
HETATM   31  C   UNK A   0     -13.936   7.721  71.942  1.00  0.00    -0.419 C  
ENDBRANCH  29  30
ENDBRANCH  27  29
ENDBRANCH  18  27
ENDBRANCH  16  18
ENDBRANCH  14  16
ENDBRANCH   7  14
TORSDOF 9
ENDMDL
MODEL       97
REMARK 921   NORMALIZED FREE ENERGY PREDICTED BY IDOCK:   -5.12 KCAL/MOL
REMARK 922        TOTAL FREE ENERGY PREDICTED BY IDOCK:   -9.44 KCAL/MOL
REMARK 923 INTER-LIGAND FREE ENERGY PREDICTED BY IDOCK:   -7.72 KCAL/MOL
REMARK 924 INTRA-LIGAND FREE ENERGY PREDICTED BY IDOCK:   -1.72 KCAL/MOL
REMARK 927      BINDING AFFINITY PREDICTED BY RF-SCORE:    0.00 PKD
ROOT
HETATM    1  C   UNK A   1      -6.245  11.012  67.252  1.00  0.00    -0.068 C  
HETATM    2  C   UNK A   1      -6.275  10.430  68.679  1.00  0.00    -0.047 C  
HETATM    3  C   UNK A   1      -7.078  11.415  69.518  1.00  0.00    -0.020 C  
HETATM    4  C   UNK A   1      -7.075  12.695  68.700  1.00  0.00    -0.096 C  
HETATM    5  C   UNK A   1      -7.204  12.215  67.257  1.00  0.00    -0.144 C  
HETATM    6  N   UNK A   1      -8.496  11.651  66.838  1.00  0.00    -0.164 N  
HETATM    7  C   UNK A   1      -9.668  12.359  66.569  1.00  0.00    -0.240 C  
HETATM    8  C   UNK A   1      -8.289  10.367  66.109  1.00  0.00    -0.149 C  
HETATM    9  C   UNK A   1      -9.052   9.122  66.603  1.00  0.00    -0.148 C  
HETATM   10  C   UNK A   1      -6.783  10.082  66.178  1.00  0.00    -0.100 C  
HETATM   11  O   UNK A   1     -10.599  11.766  66.011  1.00  0.00    -0.244 OA 
HETATM   12  O   UNK A   1      -9.846   9.351  67.675  1.00  0.00    -0.160 OA 
HETATM   13  O   UNK A   1      -8.930   8.015  66.112  1.00  0.00    -0.163 OA 
ENDROOT
BRANCH   7  14
HETATM   14  C   UNK A   1      -9.843  13.837  67.012  1.00  0.00    -0.251 C  
HETATM   15  C   UNK A   1     -11.241  14.029  67.623  1.00  0.00    -0.317 C  
BRANCH  14  16
HETATM   16  N   UNK A   1      -9.634  14.739  65.853  1.00  0.00    -0.428 NA 
HETATM   17  H   UNK A   1     -10.374  14.617  65.163  1.00  0.00     0.000 HD 
BRANCH  16  18
HETATM   18  C   UNK A   0      -9.496  16.178  66.235  1.00  0.00    -0.316 C  
BRANCH  18  19
HETATM   19  C   UNK A   0      -8.040  16.627  66.114  1.00  0.00    -0.273 C  
BRANCH  19  20
HETATM   20  C   UNK A   0      -7.239  16.555  67.422  1.00  0.00    -0.178 C  
BRANCH  20  21
HETATM   21  C   UNK A   0      -6.839  17.965  67.783  1.00  0.00    -0.194 A  
HETATM   22  C   UNK A   0      -6.600  18.913  66.779  1.00  0.00    -0.203 A  
HETATM   23  C   UNK A   0      -6.882  18.380  69.122  1.00  0.00    -0.260 A  
HETATM   24  C   UNK A   0      -6.460  20.261  67.102  1.00  0.00    -0.250 A  
HETATM   25  C   UNK A   0      -6.739  19.729  69.443  1.00  0.00    -0.382 A  
HETATM   26  C   UNK A   0      -6.546  20.669  68.433  1.00  0.00    -0.260 A  
ENDBRANCH  20  21
ENDBRANCH  19  20
ENDBRANCH  18  19
BRANCH  18  27
HETATM   27  C   UNK A   0     -10.414  17.041  65.345  1.00  0.00    -0.112 C  
HETATM   28  O   UNK A   0     -11.123  16.627  64.439  1.00  0.00    -0.985 OA 
BRANCH  27  29
HETATM   29  O   UNK A   0     -10.317  18.349  65.736  1.00  0.00    -0.588 OA 
BRANCH  29  30
HETATM   30  C   UNK A   0     -10.660  18.631  67.101  1.00  0.00    -0.417 C  
HETATM   31  C   UNK A   0     -10.059  19.951  67.551  1.00  0.00    -0.566 C  
ENDBRANCH  29  30
ENDBRANCH  27  29
ENDBRANCH  18  27
ENDBRANCH  16  18
ENDBRANCH  14  16
ENDBRANCH   7  14
TORSDOF 9
ENDMDL
MODEL       98
REMARK 921   NORMALIZED FREE ENERGY PREDICTED BY IDOCK:   -5.11 KCAL/MOL
REMARK 922        TOTAL FREE ENERGY PREDICTED BY IDOCK:   -9.44 KCAL/MOL
REMARK 923 INTER-LIGAND FREE ENERGY PREDICTED BY IDOCK:   -7.27 KCAL/MOL
REMARK 924 INTRA-LIGAND FREE ENERGY PREDICTED BY IDOCK:   -2.16 KCAL/MOL
REMARK 927      BINDING AFFINITY PREDICTED BY RF-SCORE:    0.00 PKD
ROOT
HETATM    1  C   UNK A   1      -9.996   8.399  72.123  1.00  0.00    -0.376 C  
HETATM    2  C   UNK A   1     -10.821   7.288  72.801  1.00  0.00    -0.356 C  
HETATM    3  C   UNK A   1     -11.818   6.806  71.755  1.00  0.00    -0.371 C  
HETATM    4  C   UNK A   1     -11.850   7.922  70.725  1.00  0.00    -0.190 C  
HETATM    5  C   UNK A   1     -10.401   8.391  70.639  1.00  0.00    -0.197 C  
HETATM    6  N   UNK A   1      -9.427   7.490  70.003  1.00  0.00    -0.161 N  
HETATM    7  C   UNK A   1      -9.290   7.239  68.637  1.00  0.00    -0.138 C  
HETATM    8  C   UNK A   1      -8.205   7.368  70.848  1.00  0.00    -0.114 C  
HETATM    9  C   UNK A   1      -7.736   5.953  71.242  1.00  0.00    -0.110 C  
HETATM   10  C   UNK A   1      -8.495   8.164  72.126  1.00  0.00    -0.216 C  
HETATM   11  O   UNK A   1      -8.283   6.635  68.248  1.00  0.00    -0.113 OA 
HETATM   12  O   UNK A   1      -8.515   4.957  70.758  1.00  0.00    -0.105 OA 
HETATM   13  O   UNK A   1      -6.778   5.734  71.961  1.00  0.00    -0.059 OA 
ENDROOT
BRANCH   7  14
HETATM   14  C   UNK A   1     -10.396   7.641  67.623  1.00  0.00    -0.237 C  
HETATM   15  C   UNK A   1     -11.195   6.394  67.211  1.00  0.00    -0.295 C  
BRANCH  14  16
HETATM   16  N   UNK A   1      -9.782   8.301  66.444  1.00  0.00    -0.338 NA 
HETATM   17  H   UNK A   1     -10.198   7.955  65.580  1.00  0.00     0.000 HD 
BRANCH  16  18
HETATM   18  C   UNK A   0      -9.841   9.794  66.500  1.00  0.00    -0.225 C  
BRANCH  18  19
HETATM   19  C   UNK A   0     -10.900  10.251  67.503  1.00  0.00    -0.355 C  
BRANCH  19  20
HETATM   20  C   UNK A   0     -11.486  11.643  67.224  1.00  0.00    -0.350 C  
BRANCH  20  21
HETATM   21  C   UNK A   0     -11.689  12.321  68.557  1.00  0.00    -0.381 A  
HETATM   22  C   UNK A   0     -11.798  13.716  68.632  1.00  0.00    -0.409 A  
HETATM   23  C   UNK A   0     -11.951  11.550  69.699  1.00  0.00    -0.407 A  
HETATM   24  C   UNK A   0     -12.213  14.327  69.814  1.00  0.00    -0.390 A  
HETATM   25  C   UNK A   0     -12.362  12.164  70.880  1.00  0.00    -0.370 A  
HETATM   26  C   UNK A   0     -12.510  13.548  70.932  1.00  0.00    -0.448 A  
ENDBRANCH  20  21
ENDBRANCH  19  20
ENDBRANCH  18  19
BRANCH  18  27
HETATM   27  C   UNK A   0      -8.453  10.355  66.871  1.00  0.00    -0.124 C  
HETATM   28  O   UNK A   0      -7.555  10.614  66.082  1.00  0.00    -0.130 OA 
BRANCH  27  29
HETATM   29  O   UNK A   0      -8.386  10.526  68.226  1.00  0.00    -0.114 OA 
BRANCH  29  30
HETATM   30  C   UNK A   0      -7.105  10.291  68.833  1.00  0.00    -0.075 C  
HETATM   31  C   UNK A   0      -6.609  11.533  69.551  1.00  0.00    -0.120 C  
ENDBRANCH  29  30
ENDBRANCH  27  29
ENDBRANCH  18  27
ENDBRANCH  16  18
ENDBRANCH  14  16
ENDBRANCH   7  14
TORSDOF 9
ENDMDL
MODEL       99
REMARK 921   NORMALIZED FREE ENERGY PREDICTED BY IDOCK:   -5.11 KCAL/MOL
REMARK 922        TOTAL FREE ENERGY PREDICTED BY IDOCK:   -9.43 KCAL/MOL
REMARK 923 INTER-LIGAND FREE ENERGY PREDICTED BY IDOCK:   -8.12 KCAL/MOL
REMARK 924 INTRA-LIGAND FREE ENERGY PREDICTED BY IDOCK:   -1.30 KCAL/MOL
REMARK 927      BINDING AFFINITY PREDICTED BY RF-SCORE:    0.00 PKD
ROOT
HETATM    1  C   UNK A   1      -8.130   8.151  68.921  1.00  0.00    -0.116 C  
HETATM    2  C   UNK A   1      -9.105   7.002  68.595  1.00  0.00    -0.132 C  
HETATM    3  C   UNK A   1     -10.463   7.655  68.367  1.00  0.00    -0.208 C  
HETATM    4  C   UNK A   1     -10.332   9.027  69.005  1.00  0.00    -0.233 C  
HETATM    5  C   UNK A   1      -8.905   9.457  68.673  1.00  0.00    -0.132 C  
HETATM    6  N   UNK A   1      -8.602   9.799  67.275  1.00  0.00    -0.128 N  
HETATM    7  C   UNK A   1      -8.970  10.964  66.602  1.00  0.00    -0.164 C  
HETATM    8  C   UNK A   1      -7.349   9.120  66.836  1.00  0.00    -0.090 C  
HETATM    9  C   UNK A   1      -7.400   8.262  65.556  1.00  0.00    -0.072 C  
HETATM   10  C   UNK A   1      -6.918   8.230  68.009  1.00  0.00    -0.081 C  
HETATM   11  O   UNK A   1      -8.448  11.200  65.506  1.00  0.00    -0.124 OA 
HETATM   12  O   UNK A   1      -8.617   8.226  64.964  1.00  0.00    -0.154 OA 
HETATM   13  O   UNK A   1      -6.452   7.631  65.126  1.00  0.00    -0.041 OA 
ENDROOT
BRANCH   7  14
HETATM   14  C   UNK A   1     -10.056  11.920  67.167  1.00  0.00    -0.204 C  
HETATM   15  C   UNK A   1     -11.283  11.908  66.241  1.00  0.00    -0.392 C  
BRANCH  14  16
HETATM   16  N   UNK A   1      -9.499  13.288  67.307  1.00  0.00    -0.225 NA 
HETATM   17  H   UNK A   1      -8.833  13.484  66.561  1.00  0.00     0.000 HD 
BRANCH  16  18
HETATM   18  C   UNK A   0     -10.547  14.353  67.376  1.00  0.00    -0.270 C  
BRANCH  18  19
HETATM   19  C   UNK A   0     -10.698  14.862  68.810  1.00  0.00    -0.252 C  
BRANCH  19  20
HETATM   20  C   UNK A   0     -12.100  15.386  69.157  1.00  0.00    -0.270 C  
BRANCH  20  21
HETATM   21  C   UNK A   0     -12.313  15.156  70.634  1.00  0.00    -0.420 A  
HETATM   22  C   UNK A   0     -11.836  16.083  71.570  1.00  0.00    -0.554 A  
HETATM   23  C   UNK A   0     -13.145  14.112  71.063  1.00  0.00    -0.370 A  
HETATM   24  C   UNK A   0     -12.227  15.999  72.905  1.00  0.00    -0.621 A  
HETATM   25  C   UNK A   0     -13.531  14.028  72.399  1.00  0.00    -0.639 A  
HETATM   26  C   UNK A   0     -13.087  14.980  73.315  1.00  0.00    -0.607 A  
ENDBRANCH  20  21
ENDBRANCH  19  20
ENDBRANCH  18  19
BRANCH  18  27
HETATM   27  C   UNK A   0     -10.181  15.504  66.419  1.00  0.00    -0.289 C  
HETATM   28  O   UNK A   0     -10.601  15.645  65.279  1.00  0.00    -0.377 OA 
BRANCH  27  29
HETATM   29  O   UNK A   0      -9.312  16.353  67.049  1.00  0.00    -0.220 OA 
BRANCH  29  30
HETATM   30  C   UNK A   0      -9.415  17.742  66.698  1.00  0.00    -0.292 C  
HETATM   31  C   UNK A   0     -10.495  18.430  67.513  1.00  0.00    -0.445 C  
ENDBRANCH  29  30
ENDBRANCH  27  29
ENDBRANCH  18  27
ENDBRANCH  16  18
ENDBRANCH  14  16
ENDBRANCH   7  14
TORSDOF 9
ENDMDL
MODEL      100
REMARK 921   NORMALIZED FREE ENERGY PREDICTED BY IDOCK:   -5.09 KCAL/MOL
REMARK 922        TOTAL FREE ENERGY PREDICTED BY IDOCK:   -9.41 KCAL/MOL
REMARK 923 INTER-LIGAND FREE ENERGY PREDICTED BY IDOCK:   -7.29 KCAL/MOL
REMARK 924 INTRA-LIGAND FREE ENERGY PREDICTED BY IDOCK:   -2.11 KCAL/MOL
REMARK 927      BINDING AFFINITY PREDICTED BY RF-SCORE:    0.00 PKD
ROOT
HETATM    1  C   UNK A   1     -11.293  13.463  65.630  1.00  0.00    -0.316 C  
HETATM    2  C   UNK A   1     -12.396  13.742  66.671  1.00  0.00    -0.403 C  
HETATM    3  C   UNK A   1     -11.784  13.421  68.028  1.00  0.00    -0.391 C  
HETATM    4  C   UNK A   1     -10.577  12.559  67.702  1.00  0.00    -0.234 C  
HETATM    5  C   UNK A   1     -10.009  13.181  66.429  1.00  0.00    -0.282 C  
HETATM    6  N   UNK A   1      -9.357  14.496  66.543  1.00  0.00    -0.294 N  
HETATM    7  C   UNK A   1      -8.096  14.759  67.078  1.00  0.00    -0.144 C  
HETATM    8  C   UNK A   1      -9.856  15.414  65.480  1.00  0.00    -0.324 C  
HETATM    9  C   UNK A   1     -10.419  16.783  65.911  1.00  0.00    -0.301 C  
HETATM   10  C   UNK A   1     -10.953  14.643  64.736  1.00  0.00    -0.399 C  
HETATM   11  O   UNK A   1      -7.600  15.877  66.895  1.00  0.00    -0.220 OA 
HETATM   12  O   UNK A   1     -10.392  16.995  67.248  1.00  0.00    -0.301 OA 
HETATM   13  O   UNK A   1     -10.890  17.596  65.137  1.00  0.00    -0.664 OA 
ENDROOT
BRANCH   7  14
HETATM   14  C   UNK A   1      -7.345  13.708  67.942  1.00  0.00    -0.148 C  
HETATM   15  C   UNK A   1      -6.483  14.427  68.992  1.00  0.00    -0.098 C  
BRANCH  14  16
HETATM   16  N   UNK A   1      -6.519  12.837  67.070  1.00  0.00    -0.478 NA 
HETATM   17  H   UNK A   1      -5.570  13.204  66.990  1.00  0.00     0.000 HD 
BRANCH  16  18
HETATM   18  C   UNK A   0      -6.499  11.406  67.505  1.00  0.00    -0.074 C  
BRANCH  18  19
HETATM   19  C   UNK A   0      -7.557  11.159  68.580  1.00  0.00    -0.120 C  
BRANCH  19  20
HETATM   20  C   UNK A   0      -7.116  10.211  69.705  1.00  0.00    -0.115 C  
BRANCH  20  21
HETATM   21  C   UNK A   0      -8.303   9.347  70.056  1.00  0.00    -0.190 A  
HETATM   22  C   UNK A   0      -9.582   9.910  70.161  1.00  0.00    -0.237 A  
HETATM   23  C   UNK A   0      -8.160   7.952  70.099  1.00  0.00    -0.116 A  
HETATM   24  C   UNK A   0     -10.705   9.090  70.254  1.00  0.00    -0.262 A  
HETATM   25  C   UNK A   0      -9.286   7.136  70.196  1.00  0.00    -0.155 A  
HETATM   26  C   UNK A   0     -10.556   7.703  70.255  1.00  0.00    -0.233 A  
ENDBRANCH  20  21
ENDBRANCH  19  20
ENDBRANCH  18  19
BRANCH  18  27
HETATM   27  C   UNK A   0      -6.728  10.491  66.286  1.00  0.00    -0.123 C  
HETATM   28  O   UNK A   0      -5.884   9.776  65.763  1.00  0.00    -0.056 OA 
BRANCH  27  29
HETATM   29  O   UNK A   0      -8.031  10.596  65.883  1.00  0.00    -0.154 OA 
BRANCH  29  30
HETATM   30  C   UNK A   0      -8.649   9.389  65.410  1.00  0.00    -0.156 C  
HETATM   31  C   UNK A   0      -9.575   8.805  66.462  1.00  0.00    -0.302 C  
ENDBRANCH  29  30
ENDBRANCH  27  29
ENDBRANCH  18  27
ENDBRANCH  16  18
ENDBRANCH  14  16
ENDBRANCH   7  14
TORSDOF 9
ENDMDL
MODEL      101
REMARK 921   NORMALIZED FREE ENERGY PREDICTED BY IDOCK:   -5.06 KCAL/MOL
REMARK 922        TOTAL FREE ENERGY PREDICTED BY IDOCK:   -9.36 KCAL/MOL
REMARK 923 INTER-LIGAND FREE ENERGY PREDICTED BY IDOCK:   -7.98 KCAL/MOL
REMARK 924 INTRA-LIGAND FREE ENERGY PREDICTED BY IDOCK:   -1.38 KCAL/MOL
REMARK 927      BINDING AFFINITY PREDICTED BY RF-SCORE:    0.00 PKD
ROOT
HETATM    1  C   UNK A   1      -6.074   9.565  67.366  1.00  0.00    -0.053 C  
HETATM    2  C   UNK A   1      -5.470   8.429  68.214  1.00  0.00    -0.034 C  
HETATM    3  C   UNK A   1      -6.046   8.596  69.614  1.00  0.00    -0.032 C  
HETATM    4  C   UNK A   1      -6.557  10.026  69.641  1.00  0.00    -0.062 C  
HETATM    5  C   UNK A   1      -7.141  10.239  68.246  1.00  0.00    -0.079 C  
HETATM    6  N   UNK A   1      -8.387   9.532  67.912  1.00  0.00    -0.114 N  
HETATM    7  C   UNK A   1      -9.671   9.848  68.355  1.00  0.00    -0.149 C  
HETATM    8  C   UNK A   1      -8.264   8.869  66.582  1.00  0.00    -0.111 C  
HETATM    9  C   UNK A   1      -8.573   7.361  66.494  1.00  0.00    -0.132 C  
HETATM   10  C   UNK A   1      -6.819   9.102  66.126  1.00  0.00    -0.085 C  
HETATM   11  O   UNK A   1     -10.635   9.300  67.807  1.00  0.00    -0.254 OA 
HETATM   12  O   UNK A   1      -8.931   6.800  67.673  1.00  0.00    -0.117 OA 
HETATM   13  O   UNK A   1      -8.468   6.707  65.472  1.00  0.00    -0.151 OA 
ENDROOT
BRANCH   7  14
HETATM   14  C   UNK A   1      -9.903  10.813  69.551  1.00  0.00    -0.016 C  
HETATM   15  C   UNK A   1     -11.157  10.377  70.327  1.00  0.00    -0.379 C  
BRANCH  14  16
HETATM   16  N   UNK A   1     -10.032  12.205  69.056  1.00  0.00    -0.414 NA 
HETATM   17  H   UNK A   1      -9.299  12.418  68.381  1.00  0.00     0.000 HD 
BRANCH  16  18
HETATM   18  C   UNK A   0     -11.382  12.513  68.489  1.00  0.00    -0.297 C  
BRANCH  18  19
HETATM   19  C   UNK A   0     -11.876  13.869  68.991  1.00  0.00    -0.397 C  
BRANCH  19  20
HETATM   20  C   UNK A   0     -11.048  14.467  70.138  1.00  0.00    -0.129 C  
BRANCH  20  21
HETATM   21  C   UNK A   0     -12.013  14.883  71.221  1.00  0.00    -0.393 A  
HETATM   22  C   UNK A   0     -11.545  15.505  72.386  1.00  0.00    -0.543 A  
HETATM   23  C   UNK A   0     -13.395  14.815  70.987  1.00  0.00    -0.427 A  
HETATM   24  C   UNK A   0     -12.439  16.096  73.277  1.00  0.00    -0.642 A  
HETATM   25  C   UNK A   0     -14.287  15.404  71.881  1.00  0.00    -0.649 A  
HETATM   26  C   UNK A   0     -13.809  16.058  73.014  1.00  0.00    -0.389 A  
ENDBRANCH  20  21
ENDBRANCH  19  20
ENDBRANCH  18  19
BRANCH  18  27
HETATM   27  C   UNK A   0     -11.315  12.487  66.949  1.00  0.00    -0.326 C  
HETATM   28  O   UNK A   0     -12.160  12.008  66.206  1.00  0.00    -0.596 OA 
BRANCH  27  29
HETATM   29  O   UNK A   0     -10.159  13.096  66.539  1.00  0.00    -0.266 OA 
BRANCH  29  30
HETATM   30  C   UNK A   0     -10.252  13.900  65.353  1.00  0.00    -0.337 C  
HETATM   31  C   UNK A   0     -10.140  15.377  65.689  1.00  0.00    -0.406 C  
ENDBRANCH  29  30
ENDBRANCH  27  29
ENDBRANCH  18  27
ENDBRANCH  16  18
ENDBRANCH  14  16
ENDBRANCH   7  14
TORSDOF 9
ENDMDL
MODEL      102
REMARK 921   NORMALIZED FREE ENERGY PREDICTED BY IDOCK:   -5.03 KCAL/MOL
REMARK 922        TOTAL FREE ENERGY PREDICTED BY IDOCK:   -9.30 KCAL/MOL
REMARK 923 INTER-LIGAND FREE ENERGY PREDICTED BY IDOCK:   -8.52 KCAL/MOL
REMARK 924 INTRA-LIGAND FREE ENERGY PREDICTED BY IDOCK:   -0.78 KCAL/MOL
REMARK 927      BINDING AFFINITY PREDICTED BY RF-SCORE:    0.00 PKD
ROOT
HETATM    1  C   UNK A   1      -9.358   9.225  65.880  1.00  0.00    -0.297 C  
HETATM    2  C   UNK A   1      -7.932   9.527  66.380  1.00  0.00    -0.111 C  
HETATM    3  C   UNK A   1      -7.837  11.043  66.494  1.00  0.00    -0.155 C  
HETATM    4  C   UNK A   1      -8.989  11.556  65.647  1.00  0.00    -0.081 C  
HETATM    5  C   UNK A   1     -10.117  10.563  65.913  1.00  0.00    -0.260 C  
HETATM    6  N   UNK A   1     -10.751  10.588  67.240  1.00  0.00    -0.269 N  
HETATM    7  C   UNK A   1     -11.652  11.540  67.718  1.00  0.00    -0.267 C  
HETATM    8  C   UNK A   1     -10.861   9.206  67.788  1.00  0.00    -0.092 C  
HETATM    9  C   UNK A   1     -10.275   8.933  69.188  1.00  0.00    -0.206 C  
HETATM   10  C   UNK A   1     -10.158   8.294  66.774  1.00  0.00    -0.373 C  
HETATM   11  O   UNK A   1     -12.265  11.299  68.764  1.00  0.00    -0.532 OA 
HETATM   12  O   UNK A   1      -9.713  10.017  69.773  1.00  0.00    -0.225 OA 
HETATM   13  O   UNK A   1     -10.271   7.837  69.718  1.00  0.00    -0.201 OA 
ENDROOT
BRANCH   7  14
HETATM   14  C   UNK A   1     -11.846  12.906  67.002  1.00  0.00    -0.374 C  
HETATM   15  C   UNK A   1     -12.267  12.667  65.543  1.00  0.00    -0.501 C  
BRANCH  14  16
HETATM   16  N   UNK A   1     -10.593  13.697  67.079  1.00  0.00    -0.272 NA 
HETATM   17  H   UNK A   1     -10.669  14.548  66.522  1.00  0.00     0.000 HD 
BRANCH  16  18
HETATM   18  C   UNK A   0     -10.174  14.015  68.479  1.00  0.00    -0.237 C  
BRANCH  18  19
HETATM   19  C   UNK A   0      -8.727  14.508  68.505  1.00  0.00    -0.177 C  
BRANCH  19  20
HETATM   20  C   UNK A   0      -8.192  14.991  67.149  1.00  0.00    -0.251 C  
BRANCH  20  21
HETATM   21  C   UNK A   0      -7.984  16.482  67.254  1.00  0.00    -0.191 A  
HETATM   22  C   UNK A   0      -7.727  17.243  66.106  1.00  0.00    -0.317 A  
HETATM   23  C   UNK A   0      -8.227  17.136  68.471  1.00  0.00    -0.261 A  
HETATM   24  C   UNK A   0      -7.765  18.635  66.161  1.00  0.00    -0.262 A  
HETATM   25  C   UNK A   0      -8.261  18.528  68.523  1.00  0.00    -0.360 A  
HETATM   26  C   UNK A   0      -8.048  19.276  67.367  1.00  0.00    -0.306 A  
ENDBRANCH  20  21
ENDBRANCH  19  20
ENDBRANCH  18  19
BRANCH  18  27
HETATM   27  C   UNK A   0     -11.126  15.070  69.078  1.00  0.00    -0.262 C  
HETATM   28  O   UNK A   0     -11.508  16.086  68.515  1.00  0.00    -0.370 OA 
BRANCH  27  29
HETATM   29  O   UNK A   0     -11.484  14.686  70.341  1.00  0.00    -0.263 OA 
BRANCH  29  30
HETATM   30  C   UNK A   0     -12.539  15.440  70.958  1.00  0.00    -0.431 C  
HETATM   31  C   UNK A   0     -12.058  16.096  72.241  1.00  0.00    -0.616 C  
ENDBRANCH  29  30
ENDBRANCH  27  29
ENDBRANCH  18  27
ENDBRANCH  16  18
ENDBRANCH  14  16
ENDBRANCH   7  14
TORSDOF 9
ENDMDL
MODEL      103
REMARK 921   NORMALIZED FREE ENERGY PREDICTED BY IDOCK:   -5.02 KCAL/MOL
REMARK 922        TOTAL FREE ENERGY PREDICTED BY IDOCK:   -9.30 KCAL/MOL
REMARK 923 INTER-LIGAND FREE ENERGY PREDICTED BY IDOCK:   -8.76 KCAL/MOL
REMARK 924 INTRA-LIGAND FREE ENERGY PREDICTED BY IDOCK:   -0.54 KCAL/MOL
REMARK 927      BINDING AFFINITY PREDICTED BY RF-SCORE:    0.00 PKD
ROOT
HETATM    1  C   UNK A   1     -10.200  14.956  65.165  1.00  0.00    -0.409 C  
HETATM    2  C   UNK A   1     -11.630  15.321  64.721  1.00  0.00    -0.322 C  
HETATM    3  C   UNK A   1     -12.513  14.156  65.149  1.00  0.00    -0.453 C  
HETATM    4  C   UNK A   1     -11.541  13.013  65.383  1.00  0.00    -0.374 C  
HETATM    5  C   UNK A   1     -10.326  13.682  66.019  1.00  0.00    -0.304 C  
HETATM    6  N   UNK A   1     -10.463  14.181  67.396  1.00  0.00    -0.269 N  
HETATM    7  C   UNK A   1     -10.489  13.417  68.563  1.00  0.00    -0.252 C  
HETATM    8  C   UNK A   1      -9.932  15.570  67.499  1.00  0.00    -0.230 C  
HETATM    9  C   UNK A   1     -10.853  16.657  68.089  1.00  0.00    -0.348 C  
HETATM   10  C   UNK A   1      -9.539  15.978  66.073  1.00  0.00    -0.385 C  
HETATM   11  O   UNK A   1     -10.382  13.997  69.650  1.00  0.00     0.129 OA 
HETATM   12  O   UNK A   1     -12.075  16.205  68.455  1.00  0.00    -0.089 OA 
HETATM   13  O   UNK A   1     -10.541  17.830  68.183  1.00  0.00    -0.378 OA 
ENDROOT
BRANCH   7  14
HETATM   14  C   UNK A   1     -10.713  11.880  68.521  1.00  0.00    -0.224 C  
HETATM   15  C   UNK A   1     -12.023  11.570  67.780  1.00  0.00    -0.100 C  
BRANCH  14  16
HETATM   16  N   UNK A   1     -10.734  11.337  69.902  1.00  0.00    -0.434 NA 
HETATM   17  H   UNK A   1     -10.615  12.084  70.585  1.00  0.00     0.000 HD 
BRANCH  16  18
HETATM   18  C   UNK A   0     -11.956  10.530  70.206  1.00  0.00    -0.325 C  
BRANCH  18  19
HETATM   19  C   UNK A   0     -11.576   9.086  70.532  1.00  0.00    -0.209 C  
BRANCH  19  20
HETATM   20  C   UNK A   0     -10.220   8.638  69.964  1.00  0.00    -0.201 C  
BRANCH  20  21
HETATM   21  C   UNK A   0     -10.500   7.651  68.857  1.00  0.00    -0.211 A  
HETATM   22  C   UNK A   0     -10.595   8.085  67.528  1.00  0.00    -0.302 A  
HETATM   23  C   UNK A   0     -10.485   6.275  69.130  1.00  0.00    -0.291 A  
HETATM   24  C   UNK A   0     -10.621   7.161  66.486  1.00  0.00     0.023 A  
HETATM   25  C   UNK A   0     -10.514   5.353  68.085  1.00  0.00    -0.188 A  
HETATM   26  C   UNK A   0     -10.564   5.796  66.766  1.00  0.00    -0.373 A  
ENDBRANCH  20  21
ENDBRANCH  19  20
ENDBRANCH  18  19
BRANCH  18  27
HETATM   27  C   UNK A   0     -12.725  11.174  71.376  1.00  0.00    -0.418 C  
HETATM   28  O   UNK A   0     -13.208  10.576  72.327  1.00  0.00    -0.402 OA 
BRANCH  27  29
HETATM   29  O   UNK A   0     -12.776  12.528  71.189  1.00  0.00    -0.354 OA 
BRANCH  29  30
HETATM   30  C   UNK A   0     -13.601  13.265  72.105  1.00  0.00    -0.562 C  
HETATM   31  C   UNK A   0     -12.947  14.581  72.487  1.00  0.00    -0.500 C  
ENDBRANCH  29  30
ENDBRANCH  27  29
ENDBRANCH  18  27
ENDBRANCH  16  18
ENDBRANCH  14  16
ENDBRANCH   7  14
TORSDOF 9
ENDMDL
MODEL      104
REMARK 921   NORMALIZED FREE ENERGY PREDICTED BY IDOCK:   -5.01 KCAL/MOL
REMARK 922        TOTAL FREE ENERGY PREDICTED BY IDOCK:   -9.27 KCAL/MOL
REMARK 923 INTER-LIGAND FREE ENERGY PREDICTED BY IDOCK:   -8.46 KCAL/MOL
REMARK 924 INTRA-LIGAND FREE ENERGY PREDICTED BY IDOCK:   -0.82 KCAL/MOL
REMARK 927      BINDING AFFINITY PREDICTED BY RF-SCORE:    0.00 PKD
ROOT
HETATM    1  C   UNK A   1      -8.376  18.325  66.383  1.00  0.00    -0.267 C  
HETATM    2  C   UNK A   1      -8.253  19.402  67.478  1.00  0.00    -0.321 C  
HETATM    3  C   UNK A   1      -9.509  19.281  68.331  1.00  0.00    -0.435 C  
HETATM    4  C   UNK A   1     -10.481  18.503  67.461  1.00  0.00    -0.453 C  
HETATM    5  C   UNK A   1      -9.604  17.474  66.753  1.00  0.00    -0.282 C  
HETATM    6  N   UNK A   1      -9.053  16.374  67.560  1.00  0.00    -0.193 N  
HETATM    7  C   UNK A   1      -9.745  15.262  68.039  1.00  0.00    -0.211 C  
HETATM    8  C   UNK A   1      -7.597  16.209  67.286  1.00  0.00    -0.184 C  
HETATM    9  C   UNK A   1      -6.626  16.228  68.483  1.00  0.00    -0.130 C  
HETATM   10  C   UNK A   1      -7.217  17.345  66.326  1.00  0.00    -0.346 C  
HETATM   11  O   UNK A   1      -9.094  14.319  68.506  1.00  0.00    -0.194 OA 
HETATM   12  O   UNK A   1      -7.233  16.398  69.682  1.00  0.00    -0.168 OA 
HETATM   13  O   UNK A   1      -5.416  16.144  68.376  1.00  0.00    -0.096 OA 
ENDROOT
BRANCH   7  14
HETATM   14  C   UNK A   1     -11.298  15.216  68.055  1.00  0.00    -0.337 C  
HETATM   15  C   UNK A   1     -11.820  15.914  69.321  1.00  0.00    -0.328 C  
BRANCH  14  16
HETATM   16  N   UNK A   1     -11.761  13.809  67.985  1.00  0.00    -0.336 NA 
HETATM   17  H   UNK A   1     -12.772  13.755  68.109  1.00  0.00     0.000 HD 
BRANCH  16  18
HETATM   18  C   UNK A   0     -11.341  13.105  66.734  1.00  0.00    -0.316 C  
BRANCH  18  19
HETATM   19  C   UNK A   0     -11.136  11.614  67.003  1.00  0.00    -0.359 C  
BRANCH  19  20
HETATM   20  C   UNK A   0      -9.930  10.995  66.280  1.00  0.00    -0.269 C  
BRANCH  20  21
HETATM   21  C   UNK A   0      -8.796  10.926  67.274  1.00  0.00    -0.134 A  
HETATM   22  C   UNK A   0      -9.061  10.761  68.640  1.00  0.00    -0.173 A  
HETATM   23  C   UNK A   0      -7.472  10.844  66.816  1.00  0.00    -0.134 A  
HETATM   24  C   UNK A   0      -8.027  10.466  69.526  1.00  0.00    -0.152 A  
HETATM   25  C   UNK A   0      -6.440  10.552  67.705  1.00  0.00    -0.060 A  
HETATM   26  C   UNK A   0      -6.719  10.346  69.054  1.00  0.00    -0.061 A  
ENDBRANCH  20  21
ENDBRANCH  19  20
ENDBRANCH  18  19
BRANCH  18  27
HETATM   27  C   UNK A   0     -12.400  13.325  65.635  1.00  0.00    -0.465 C  
HETATM   28  O   UNK A   0     -13.095  14.322  65.505  1.00  0.00    -0.639 OA 
BRANCH  27  29
HETATM   29  O   UNK A   0     -12.434  12.227  64.819  1.00  0.00    -0.454 OA 
BRANCH  29  30
HETATM   30  C   UNK A   0     -11.933  12.412  63.486  1.00  0.00    -0.538 C  
HETATM   31  C   UNK A   0     -10.635  11.651  63.283  1.00  0.00    -0.420 C  
ENDBRANCH  29  30
ENDBRANCH  27  29
ENDBRANCH  18  27
ENDBRANCH  16  18
ENDBRANCH  14  16
ENDBRANCH   7  14
TORSDOF 9
ENDMDL
MODEL      105
REMARK 921   NORMALIZED FREE ENERGY PREDICTED BY IDOCK:   -5.00 KCAL/MOL
REMARK 922        TOTAL FREE ENERGY PREDICTED BY IDOCK:   -9.26 KCAL/MOL
REMARK 923 INTER-LIGAND FREE ENERGY PREDICTED BY IDOCK:   -7.49 KCAL/MOL
REMARK 924 INTRA-LIGAND FREE ENERGY PREDICTED BY IDOCK:   -1.77 KCAL/MOL
REMARK 927      BINDING AFFINITY PREDICTED BY RF-SCORE:    0.00 PKD
ROOT
HETATM    1  C   UNK A   1      -5.944   9.543  66.856  1.00  0.00    -0.056 C  
HETATM    2  C   UNK A   1      -5.471   8.169  66.343  1.00  0.00    -0.028 C  
HETATM    3  C   UNK A   1      -6.479   7.154  66.868  1.00  0.00    -0.054 C  
HETATM    4  C   UNK A   1      -7.187   7.879  67.999  1.00  0.00    -0.090 C  
HETATM    5  C   UNK A   1      -7.325   9.313  67.494  1.00  0.00    -0.087 C  
HETATM    6  N   UNK A   1      -8.276   9.564  66.401  1.00  0.00    -0.114 N  
HETATM    7  C   UNK A   1      -9.667   9.602  66.496  1.00  0.00    -0.212 C  
HETATM    8  C   UNK A   1      -7.639  10.396  65.341  1.00  0.00    -0.131 C  
HETATM    9  C   UNK A   1      -7.667   9.871  63.892  1.00  0.00    -0.140 C  
HETATM   10  C   UNK A   1      -6.177  10.579  65.770  1.00  0.00    -0.132 C  
HETATM   11  O   UNK A   1     -10.311  10.047  65.538  1.00  0.00    -0.241 OA 
HETATM   12  O   UNK A   1      -8.289   8.677  63.749  1.00  0.00    -0.167 OA 
HETATM   13  O   UNK A   1      -7.145  10.445  62.954  1.00  0.00    -0.136 OA 
ENDROOT
BRANCH   7  14
HETATM   14  C   UNK A   1     -10.412   9.043  67.740  1.00  0.00    -0.245 C  
HETATM   15  C   UNK A   1     -10.894   7.612  67.451  1.00  0.00    -0.240 C  
BRANCH  14  16
HETATM   16  N   UNK A   1     -11.545   9.934  68.091  1.00  0.00    -0.540 NA 
HETATM   17  H   UNK A   1     -12.413   9.402  68.160  1.00  0.00     0.000 HD 
BRANCH  16  18
HETATM   18  C   UNK A   0     -11.313  10.734  69.332  1.00  0.00    -0.285 C  
BRANCH  18  19
HETATM   19  C   UNK A   0     -11.672  12.201  69.098  1.00  0.00    -0.384 C  
BRANCH  19  20
HETATM   20  C   UNK A   0     -10.577  13.024  68.404  1.00  0.00    -0.264 C  
BRANCH  20  21
HETATM   21  C   UNK A   0     -11.019  13.250  66.978  1.00  0.00    -0.291 A  
HETATM   22  C   UNK A   0     -12.377  13.414  66.676  1.00  0.00    -0.324 A  
HETATM   23  C   UNK A   0     -10.061  13.477  65.979  1.00  0.00    -0.316 A  
HETATM   24  C   UNK A   0     -12.769  13.850  65.412  1.00  0.00    -0.525 A  
HETATM   25  C   UNK A   0     -10.456  13.909  64.715  1.00  0.00    -0.451 A  
HETATM   26  C   UNK A   0     -11.806  14.112  64.437  1.00  0.00    -0.447 A  
ENDBRANCH  20  21
ENDBRANCH  19  20
ENDBRANCH  18  19
BRANCH  18  27
HETATM   27  C   UNK A   0     -12.138  10.144  70.493  1.00  0.00    -0.291 C  
HETATM   28  O   UNK A   0     -13.118  10.663  71.007  1.00  0.00    -0.362 OA 
BRANCH  27  29
HETATM   29  O   UNK A   0     -11.605   8.936  70.854  1.00  0.00    -0.279 OA 
BRANCH  29  30
HETATM   30  C   UNK A   0     -10.611   8.966  71.889  1.00  0.00    -0.349 C  
HETATM   31  C   UNK A   0      -9.224   8.730  71.317  1.00  0.00    -0.309 C  
ENDBRANCH  29  30
ENDBRANCH  27  29
ENDBRANCH  18  27
ENDBRANCH  16  18
ENDBRANCH  14  16
ENDBRANCH   7  14
TORSDOF 9
ENDMDL
MODEL      106
REMARK 921   NORMALIZED FREE ENERGY PREDICTED BY IDOCK:   -4.98 KCAL/MOL
REMARK 922        TOTAL FREE ENERGY PREDICTED BY IDOCK:   -9.23 KCAL/MOL
REMARK 923 INTER-LIGAND FREE ENERGY PREDICTED BY IDOCK:   -7.85 KCAL/MOL
REMARK 924 INTRA-LIGAND FREE ENERGY PREDICTED BY IDOCK:   -1.38 KCAL/MOL
REMARK 927      BINDING AFFINITY PREDICTED BY RF-SCORE:    0.00 PKD
ROOT
HETATM    1  C   UNK A   1      -8.941  19.363  66.241  1.00  0.00    -0.374 C  
HETATM    2  C   UNK A   1      -9.059  20.710  66.981  1.00  0.00    -0.356 C  
HETATM    3  C   UNK A   1     -10.212  20.551  67.964  1.00  0.00    -0.223 C  
HETATM    4  C   UNK A   1     -10.982  19.348  67.447  1.00  0.00    -0.449 C  
HETATM    5  C   UNK A   1      -9.896  18.393  66.958  1.00  0.00    -0.326 C  
HETATM    6  N   UNK A   1      -9.055  17.738  67.971  1.00  0.00    -0.263 N  
HETATM    7  C   UNK A   1      -9.423  16.683  68.806  1.00  0.00    -0.258 C  
HETATM    8  C   UNK A   1      -7.616  17.846  67.598  1.00  0.00    -0.212 C  
HETATM    9  C   UNK A   1      -6.642  18.440  68.635  1.00  0.00    -0.233 C  
HETATM   10  C   UNK A   1      -7.572  18.710  66.331  1.00  0.00    -0.284 C  
HETATM   11  O   UNK A   1      -8.537  16.097  69.440  1.00  0.00    -0.227 OA 
HETATM   12  O   UNK A   1      -7.229  18.804  69.799  1.00  0.00     0.076 OA 
HETATM   13  O   UNK A   1      -5.455  18.615  68.426  1.00  0.00    -0.186 OA 
ENDROOT
BRANCH   7  14
HETATM   14  C   UNK A   1     -10.911  16.281  68.999  1.00  0.00    -0.325 C  
HETATM   15  C   UNK A   1     -11.125  15.771  70.434  1.00  0.00    -0.380 C  
BRANCH  14  16
HETATM   16  N   UNK A   1     -11.289  15.252  68.000  1.00  0.00    -0.330 NA 
HETATM   17  H   UNK A   1     -11.027  15.548  67.060  1.00  0.00     0.000 HD 
BRANCH  16  18
HETATM   18  C   UNK A   0     -10.734  13.896  68.303  1.00  0.00    -0.251 C  
BRANCH  18  19
HETATM   19  C   UNK A   0     -11.793  12.819  68.064  1.00  0.00    -0.386 C  
BRANCH  19  20
HETATM   20  C   UNK A   0     -12.132  11.973  69.300  1.00  0.00    -0.249 C  
BRANCH  20  21
HETATM   21  C   UNK A   0     -11.452  10.636  69.131  1.00  0.00    -0.349 A  
HETATM   22  C   UNK A   0     -11.245  10.104  67.851  1.00  0.00    -0.234 A  
HETATM   23  C   UNK A   0     -10.862  10.009  70.239  1.00  0.00    -0.370 A  
HETATM   24  C   UNK A   0     -10.419   8.995  67.675  1.00  0.00    -0.324 A  
HETATM   25  C   UNK A   0     -10.040   8.898  70.059  1.00  0.00    -0.207 A  
HETATM   26  C   UNK A   0      -9.805   8.403  68.779  1.00  0.00    -0.180 A  
ENDBRANCH  20  21
ENDBRANCH  19  20
ENDBRANCH  18  19
BRANCH  18  27
HETATM   27  C   UNK A   0      -9.485  13.641  67.436  1.00  0.00    -0.225 C  
HETATM   28  O   UNK A   0      -9.316  14.043  66.293  1.00  0.00    -0.256 OA 
BRANCH  27  29
HETATM   29  O   UNK A   0      -8.586  12.898  68.151  1.00  0.00    -0.177 OA 
BRANCH  29  30
HETATM   30  C   UNK A   0      -7.347  12.593  67.491  1.00  0.00    -0.151 C  
HETATM   31  C   UNK A   0      -7.450  11.291  66.717  1.00  0.00    -0.146 C  
ENDBRANCH  29  30
ENDBRANCH  27  29
ENDBRANCH  18  27
ENDBRANCH  16  18
ENDBRANCH  14  16
ENDBRANCH   7  14
TORSDOF 9
ENDMDL
MODEL      107
REMARK 921   NORMALIZED FREE ENERGY PREDICTED BY IDOCK:   -4.98 KCAL/MOL
REMARK 922        TOTAL FREE ENERGY PREDICTED BY IDOCK:   -9.23 KCAL/MOL
REMARK 923 INTER-LIGAND FREE ENERGY PREDICTED BY IDOCK:   -8.64 KCAL/MOL
REMARK 924 INTRA-LIGAND FREE ENERGY PREDICTED BY IDOCK:   -0.59 KCAL/MOL
REMARK 927      BINDING AFFINITY PREDICTED BY RF-SCORE:    0.00 PKD
ROOT
HETATM    1  C   UNK A   1      -9.320  10.315  64.831  1.00  0.00    -0.306 C  
HETATM    2  C   UNK A   1      -9.848  11.752  65.007  1.00  0.00    -0.257 C  
HETATM    3  C   UNK A   1     -10.806  11.708  66.190  1.00  0.00    -0.343 C  
HETATM    4  C   UNK A   1     -11.144  10.235  66.344  1.00  0.00     0.223 C  
HETATM    5  C   UNK A   1      -9.830   9.518  66.045  1.00  0.00    -0.283 C  
HETATM    6  N   UNK A   1      -8.748   9.633  67.034  1.00  0.00    -0.128 N  
HETATM    7  C   UNK A   1      -8.670   8.982  68.266  1.00  0.00    -0.130 C  
HETATM    8  C   UNK A   1      -7.464   9.979  66.360  1.00  0.00    -0.104 C  
HETATM    9  C   UNK A   1      -6.689  11.212  66.866  1.00  0.00    -0.128 C  
HETATM   10  C   UNK A   1      -7.808  10.186  64.880  1.00  0.00    -0.147 C  
HETATM   11  O   UNK A   1      -7.596   9.007  68.879  1.00  0.00    -0.080 OA 
HETATM   12  O   UNK A   1      -7.287  11.855  67.896  1.00  0.00    -0.091 OA 
HETATM   13  O   UNK A   1      -5.653  11.612  66.366  1.00  0.00    -0.236 OA 
ENDROOT
BRANCH   7  14
HETATM   14  C   UNK A   1      -9.910   8.295  68.901  1.00  0.00    -0.180 C  
HETATM   15  C   UNK A   1     -10.333   7.096  68.036  1.00  0.00    -0.238 C  
BRANCH  14  16
HETATM   16  N   UNK A   1     -11.015   9.275  69.038  1.00  0.00    -0.420 NA 
HETATM   17  H   UNK A   1     -11.918   8.802  69.057  1.00  0.00     0.000 HD 
BRANCH  16  18
HETATM   18  C   UNK A   0     -10.866  10.178  70.222  1.00  0.00    -0.310 C  
BRANCH  18  19
HETATM   19  C   UNK A   0     -12.016  11.184  70.276  1.00  0.00    -0.460 C  
BRANCH  19  20
HETATM   20  C   UNK A   0     -11.673  12.577  69.727  1.00  0.00    -0.355 C  
BRANCH  20  21
HETATM   21  C   UNK A   0     -12.335  13.591  70.628  1.00  0.00    -0.432 A  
HETATM   22  C   UNK A   0     -13.238  13.176  71.617  1.00  0.00    -0.435 A  
HETATM   23  C   UNK A   0     -11.913  14.928  70.601  1.00  0.00    -0.363 A  
HETATM   24  C   UNK A   0     -13.670  14.071  72.594  1.00  0.00    -0.586 A  
HETATM   25  C   UNK A   0     -12.350  15.821  71.578  1.00  0.00    -0.514 A  
HETATM   26  C   UNK A   0     -13.212  15.388  72.582  1.00  0.00    -0.567 A  
ENDBRANCH  20  21
ENDBRANCH  19  20
ENDBRANCH  18  19
BRANCH  18  27
HETATM   27  C   UNK A   0     -10.809   9.337  71.512  1.00  0.00    -0.372 C  
HETATM   28  O   UNK A   0      -9.791   9.009  72.106  1.00  0.00    -0.273 OA 
BRANCH  27  29
HETATM   29  O   UNK A   0     -12.083   9.018  71.897  1.00  0.00    -0.336 OA 
BRANCH  29  30
HETATM   30  C   UNK A   0     -12.423   7.623  71.873  1.00  0.00    -0.308 C  
HETATM   31  C   UNK A   0     -13.876   7.424  71.481  1.00  0.00    -0.483 C  
ENDBRANCH  29  30
ENDBRANCH  27  29
ENDBRANCH  18  27
ENDBRANCH  16  18
ENDBRANCH  14  16
ENDBRANCH   7  14
TORSDOF 9
ENDMDL
MODEL      108
REMARK 921   NORMALIZED FREE ENERGY PREDICTED BY IDOCK:   -4.97 KCAL/MOL
REMARK 922        TOTAL FREE ENERGY PREDICTED BY IDOCK:   -9.21 KCAL/MOL
REMARK 923 INTER-LIGAND FREE ENERGY PREDICTED BY IDOCK:   -7.48 KCAL/MOL
REMARK 924 INTRA-LIGAND FREE ENERGY PREDICTED BY IDOCK:   -1.73 KCAL/MOL
REMARK 927      BINDING AFFINITY PREDICTED BY RF-SCORE:    0.00 PKD
ROOT
HETATM    1  C   UNK A   1     -11.027   6.417  69.034  1.00  0.00    -0.410 C  
HETATM    2  C   UNK A   1     -10.279   5.074  68.916  1.00  0.00    -0.184 C  
HETATM    3  C   UNK A   1      -8.832   5.425  68.595  1.00  0.00    -0.107 C  
HETATM    4  C   UNK A   1      -8.895   6.858  68.096  1.00  0.00    -0.125 C  
HETATM    5  C   UNK A   1      -9.951   7.515  68.981  1.00  0.00    -0.175 C  
HETATM    6  N   UNK A   1      -9.607   7.755  70.391  1.00  0.00    -0.175 N  
HETATM    7  C   UNK A   1      -8.762   8.748  70.887  1.00  0.00    -0.194 C  
HETATM    8  C   UNK A   1     -10.708   7.286  71.279  1.00  0.00    -0.225 C  
HETATM    9  C   UNK A   1     -10.357   6.301  72.411  1.00  0.00    -0.191 C  
HETATM   10  C   UNK A   1     -11.743   6.628  70.357  1.00  0.00    -0.446 C  
HETATM   11  O   UNK A   1      -8.754   8.960  72.105  1.00  0.00    -0.386 OA 
HETATM   12  O   UNK A   1      -9.045   5.968  72.466  1.00  0.00    -0.136 OA 
HETATM   13  O   UNK A   1     -11.178   5.820  73.171  1.00  0.00    -0.265 OA 
ENDROOT
BRANCH   7  14
HETATM   14  C   UNK A   1      -7.798   9.533  69.956  1.00  0.00    -0.151 C  
HETATM   15  C   UNK A   1      -6.460   9.763  70.678  1.00  0.00    -0.109 C  
BRANCH  14  16
HETATM   16  N   UNK A   1      -8.421  10.818  69.554  1.00  0.00    -0.385 NA 
HETATM   17  H   UNK A   1      -7.873  11.607  69.895  1.00  0.00     0.000 HD 
BRANCH  16  18
HETATM   18  C   UNK A   0      -8.653  10.932  68.080  1.00  0.00    -0.133 C  
BRANCH  18  19
HETATM   19  C   UNK A   0      -9.956  11.681  67.801  1.00  0.00    -0.191 C  
BRANCH  19  20
HETATM   20  C   UNK A   0     -10.957  10.914  66.924  1.00  0.00    -0.286 C  
BRANCH  20  21
HETATM   21  C   UNK A   0     -11.472  11.878  65.882  1.00  0.00    -0.340 A  
HETATM   22  C   UNK A   0     -12.039  13.100  66.267  1.00  0.00    -0.460 A  
HETATM   23  C   UNK A   0     -11.221  11.635  64.523  1.00  0.00    -0.335 A  
HETATM   24  C   UNK A   0     -12.301  14.085  65.316  1.00  0.00    -0.480 A  
HETATM   25  C   UNK A   0     -11.487  12.620  63.575  1.00  0.00    -0.557 A  
HETATM   26  C   UNK A   0     -12.009  13.849  63.972  1.00  0.00    -0.425 A  
ENDBRANCH  20  21
ENDBRANCH  19  20
ENDBRANCH  18  19
BRANCH  18  27
HETATM   27  C   UNK A   0      -7.456  11.645  67.420  1.00  0.00    -0.135 C  
HETATM   28  O   UNK A   0      -6.856  12.606  67.881  1.00  0.00    -0.085 OA 
BRANCH  27  29
HETATM   29  O   UNK A   0      -7.163  11.026  66.236  1.00  0.00    -0.138 OA 
BRANCH  29  30
HETATM   30  C   UNK A   0      -7.476   9.627  66.156  1.00  0.00    -0.098 C  
HETATM   31  C   UNK A   0      -8.222   9.310  64.872  1.00  0.00    -0.146 C  
ENDBRANCH  29  30
ENDBRANCH  27  29
ENDBRANCH  18  27
ENDBRANCH  16  18
ENDBRANCH  14  16
ENDBRANCH   7  14
TORSDOF 9
ENDMDL
MODEL      109
REMARK 921   NORMALIZED FREE ENERGY PREDICTED BY IDOCK:   -4.95 KCAL/MOL
REMARK 922        TOTAL FREE ENERGY PREDICTED BY IDOCK:   -9.19 KCAL/MOL
REMARK 923 INTER-LIGAND FREE ENERGY PREDICTED BY IDOCK:   -6.95 KCAL/MOL
REMARK 924 INTRA-LIGAND FREE ENERGY PREDICTED BY IDOCK:   -2.24 KCAL/MOL
REMARK 927      BINDING AFFINITY PREDICTED BY RF-SCORE:    0.00 PKD
ROOT
HETATM    1  C   UNK A   1     -10.824   6.906  71.589  1.00  0.00    -0.252 C  
HETATM    2  C   UNK A   1     -10.208   7.457  72.890  1.00  0.00    -0.310 C  
HETATM    3  C   UNK A   1      -9.257   8.569  72.468  1.00  0.00    -0.303 C  
HETATM    4  C   UNK A   1      -9.011   8.313  70.991  1.00  0.00    -0.183 C  
HETATM    5  C   UNK A   1     -10.366   7.849  70.464  1.00  0.00    -0.205 C  
HETATM    6  N   UNK A   1     -11.441   8.849  70.370  1.00  0.00    -0.408 N  
HETATM    7  C   UNK A   1     -11.561   9.859  69.415  1.00  0.00     0.053 C  
HETATM    8  C   UNK A   1     -12.700   8.314  70.962  1.00  0.00    -0.011 C  
HETATM    9  C   UNK A   1     -13.398   9.147  72.055  1.00  0.00    -0.445 C  
HETATM   10  C   UNK A   1     -12.341   6.940  71.543  1.00  0.00    -0.420 C  
HETATM   11  O   UNK A   1     -12.633  10.472  69.337  1.00  0.00    -0.212 OA 
HETATM   12  O   UNK A   1     -12.764  10.304  72.357  1.00  0.00    -0.190 OA 
HETATM   13  O   UNK A   1     -14.407   8.790  72.637  1.00  0.00    -0.585 OA 
ENDROOT
BRANCH   7  14
HETATM   14  C   UNK A   1     -10.367  10.264  68.507  1.00  0.00    -0.178 C  
HETATM   15  C   UNK A   1     -10.220  11.795  68.504  1.00  0.00    -0.215 C  
BRANCH  14  16
HETATM   16  N   UNK A   1     -10.577   9.740  67.135  1.00  0.00    -0.248 NA 
HETATM   17  H   UNK A   1     -10.960  10.464  66.527  1.00  0.00     0.000 HD 
BRANCH  16  18
HETATM   18  C   UNK A   0      -9.347   9.139  66.533  1.00  0.00    -0.190 C  
BRANCH  18  19
HETATM   19  C   UNK A   0      -9.509   7.626  66.385  1.00  0.00    -0.224 C  
BRANCH  19  20
HETATM   20  C   UNK A   0      -8.236   6.816  66.673  1.00  0.00    -0.115 C  
BRANCH  20  21
HETATM   21  C   UNK A   0      -8.484   6.021  67.932  1.00  0.00    -0.115 A  
HETATM   22  C   UNK A   0      -9.656   5.266  68.073  1.00  0.00    -0.163 A  
HETATM   23  C   UNK A   0      -7.463   5.889  68.885  1.00  0.00    -0.085 A  
HETATM   24  C   UNK A   0      -9.784   4.355  69.120  1.00  0.00    -0.240 A  
HETATM   25  C   UNK A   0      -7.596   4.979  69.932  1.00  0.00    -0.060 A  
HETATM   26  C   UNK A   0      -8.746   4.201  70.039  1.00  0.00    -0.114 A  
ENDBRANCH  20  21
ENDBRANCH  19  20
ENDBRANCH  18  19
BRANCH  18  27
HETATM   27  C   UNK A   0      -9.061   9.798  65.169  1.00  0.00    -0.222 C  
HETATM   28  O   UNK A   0      -8.210   9.439  64.368  1.00  0.00    -0.128 OA 
BRANCH  27  29
HETATM   29  O   UNK A   0      -9.920  10.848  64.989  1.00  0.00    -0.255 OA 
BRANCH  29  30
HETATM   30  C   UNK A   0     -10.348  11.094  63.641  1.00  0.00    -0.389 C  
HETATM   31  C   UNK A   0     -11.227  12.330  63.567  1.00  0.00    -0.535 C  
ENDBRANCH  29  30
ENDBRANCH  27  29
ENDBRANCH  18  27
ENDBRANCH  16  18
ENDBRANCH  14  16
ENDBRANCH   7  14
TORSDOF 9
ENDMDL
MODEL      110
REMARK 921   NORMALIZED FREE ENERGY PREDICTED BY IDOCK:   -4.95 KCAL/MOL
REMARK 922        TOTAL FREE ENERGY PREDICTED BY IDOCK:   -9.19 KCAL/MOL
REMARK 923 INTER-LIGAND FREE ENERGY PREDICTED BY IDOCK:   -7.80 KCAL/MOL
REMARK 924 INTRA-LIGAND FREE ENERGY PREDICTED BY IDOCK:   -1.39 KCAL/MOL
REMARK 927      BINDING AFFINITY PREDICTED BY RF-SCORE:    0.00 PKD
ROOT
HETATM    1  C   UNK A   1      -8.437  16.210  67.958  1.00  0.00    -0.168 C  
HETATM    2  C   UNK A   1      -9.055  17.598  67.700  1.00  0.00    -0.241 C  
HETATM    3  C   UNK A   1      -9.866  17.466  66.418  1.00  0.00    -0.311 C  
HETATM    4  C   UNK A   1      -9.329  16.207  65.761  1.00  0.00    -0.221 C  
HETATM    5  C   UNK A   1      -9.073  15.258  66.929  1.00  0.00    -0.240 C  
HETATM    6  N   UNK A   1     -10.242  14.700  67.626  1.00  0.00    -0.232 N  
HETATM    7  C   UNK A   1     -11.086  13.691  67.162  1.00  0.00    -0.297 C  
HETATM    8  C   UNK A   1     -10.077  14.832  69.101  1.00  0.00    -0.197 C  
HETATM    9  C   UNK A   1     -11.201  15.525  69.897  1.00  0.00    -0.316 C  
HETATM   10  C   UNK A   1      -8.772  15.610  69.312  1.00  0.00    -0.267 C  
HETATM   11  O   UNK A   1     -11.884  13.179  67.957  1.00  0.00    -0.348 OA 
HETATM   12  O   UNK A   1     -12.238  15.946  69.135  1.00  0.00    -0.264 OA 
HETATM   13  O   UNK A   1     -11.157  15.725  71.097  1.00  0.00    -0.339 OA 
ENDROOT
BRANCH   7  14
HETATM   14  C   UNK A   1     -11.087  13.253  65.671  1.00  0.00    -0.282 C  
HETATM   15  C   UNK A   1     -12.529  12.967  65.220  1.00  0.00    -0.555 C  
BRANCH  14  16
HETATM   16  N   UNK A   1     -10.221  12.062  65.496  1.00  0.00    -0.250 NA 
HETATM   17  H   UNK A   1      -9.420  12.283  64.905  1.00  0.00     0.000 HD 
BRANCH  16  18
HETATM   18  C   UNK A   0      -9.775  11.454  66.787  1.00  0.00    -0.198 C  
BRANCH  18  19
HETATM   19  C   UNK A   0     -10.377  10.059  66.958  1.00  0.00    -0.305 C  
BRANCH  19  20
HETATM   20  C   UNK A   0      -9.700   9.198  68.034  1.00  0.00    -0.177 C  
BRANCH  20  21
HETATM   21  C   UNK A   0     -10.647   9.115  69.206  1.00  0.00    -0.229 A  
HETATM   22  C   UNK A   0     -10.894   7.886  69.832  1.00  0.00    -0.221 A  
HETATM   23  C   UNK A   0     -11.141  10.293  69.788  1.00  0.00    -0.340 A  
HETATM   24  C   UNK A   0     -11.577   7.838  71.046  1.00  0.00    -0.301 A  
HETATM   25  C   UNK A   0     -11.827  10.241  70.999  1.00  0.00    -0.472 A  
HETATM   26  C   UNK A   0     -12.029   9.019  71.636  1.00  0.00    -0.426 A  
ENDBRANCH  20  21
ENDBRANCH  19  20
ENDBRANCH  18  19
BRANCH  18  27
HETATM   27  C   UNK A   0      -8.235  11.398  66.830  1.00  0.00    -0.157 C  
HETATM   28  O   UNK A   0      -7.514  10.947  65.952  1.00  0.00    -0.130 OA 
BRANCH  27  29
HETATM   29  O   UNK A   0      -7.799  11.941  68.008  1.00  0.00    -0.122 OA 
BRANCH  29  30
HETATM   30  C   UNK A   0      -6.593  11.385  68.555  1.00  0.00    -0.062 C  
HETATM   31  C   UNK A   0      -6.895  10.515  69.762  1.00  0.00    -0.138 C  
ENDBRANCH  29  30
ENDBRANCH  27  29
ENDBRANCH  18  27
ENDBRANCH  16  18
ENDBRANCH  14  16
ENDBRANCH   7  14
TORSDOF 9
ENDMDL
MODEL      111
REMARK 921   NORMALIZED FREE ENERGY PREDICTED BY IDOCK:   -4.95 KCAL/MOL
REMARK 922        TOTAL FREE ENERGY PREDICTED BY IDOCK:   -9.18 KCAL/MOL
REMARK 923 INTER-LIGAND FREE ENERGY PREDICTED BY IDOCK:   -7.61 KCAL/MOL
REMARK 924 INTRA-LIGAND FREE ENERGY PREDICTED BY IDOCK:   -1.58 KCAL/MOL
REMARK 927      BINDING AFFINITY PREDICTED BY RF-SCORE:    0.00 PKD
ROOT
HETATM    1  C   UNK A   1      -9.879   6.366  66.717  1.00  0.00    -0.209 C  
HETATM    2  C   UNK A   1      -8.668   5.923  65.872  1.00  0.00    -0.152 C  
HETATM    3  C   UNK A   1      -7.867   7.187  65.590  1.00  0.00    -0.112 C  
HETATM    4  C   UNK A   1      -8.844   8.319  65.860  1.00  0.00    -0.197 C  
HETATM    5  C   UNK A   1      -9.639   7.843  67.073  1.00  0.00    -0.192 C  
HETATM    6  N   UNK A   1      -8.945   7.795  68.369  1.00  0.00    -0.133 N  
HETATM    7  C   UNK A   1      -8.611   8.882  69.178  1.00  0.00    -0.134 C  
HETATM    8  C   UNK A   1      -9.198   6.491  69.044  1.00  0.00    -0.130 C  
HETATM    9  C   UNK A   1      -7.981   5.665  69.504  1.00  0.00    -0.092 C  
HETATM   10  C   UNK A   1     -10.015   5.653  68.051  1.00  0.00    -0.178 C  
HETATM   11  O   UNK A   1      -8.235   8.661  70.335  1.00  0.00    -0.103 OA 
HETATM   12  O   UNK A   1      -6.787   6.242  69.231  1.00  0.00    -0.057 OA 
HETATM   13  O   UNK A   1      -8.065   4.569  70.028  1.00  0.00    -0.066 OA 
ENDROOT
BRANCH   7  14
HETATM   14  C   UNK A   1      -8.641  10.337  68.636  1.00  0.00    -0.128 C  
HETATM   15  C   UNK A   1      -7.336  11.055  69.016  1.00  0.00    -0.123 C  
BRANCH  14  16
HETATM   16  N   UNK A   1      -9.825  11.051  69.173  1.00  0.00    -0.377 NA 
HETATM   17  H   UNK A   1      -9.617  12.040  69.314  1.00  0.00     0.000 HD 
BRANCH  16  18
HETATM   18  C   UNK A   0     -11.053  10.881  68.337  1.00  0.00    -0.262 C  
BRANCH  18  19
HETATM   19  C   UNK A   0     -12.298  11.285  69.127  1.00  0.00    -0.115 C  
BRANCH  19  20
HETATM   20  C   UNK A   0     -12.047  11.563  70.617  1.00  0.00    -0.450 C  
BRANCH  20  21
HETATM   21  C   UNK A   0     -12.651  12.910  70.931  1.00  0.00    -0.355 A  
HETATM   22  C   UNK A   0     -13.506  13.064  72.031  1.00  0.00    -0.584 A  
HETATM   23  C   UNK A   0     -12.216  14.048  70.235  1.00  0.00    -0.430 A  
HETATM   24  C   UNK A   0     -13.877  14.336  72.461  1.00  0.00    -0.575 A  
HETATM   25  C   UNK A   0     -12.592  15.319  70.666  1.00  0.00    -0.471 A  
HETATM   26  C   UNK A   0     -13.407  15.463  71.786  1.00  0.00    -0.567 A  
ENDBRANCH  20  21
ENDBRANCH  19  20
ENDBRANCH  18  19
BRANCH  18  27
HETATM   27  C   UNK A   0     -10.924  11.718  67.049  1.00  0.00    -0.285 C  
HETATM   28  O   UNK A   0     -11.029  11.292  65.908  1.00  0.00    -0.247 OA 
BRANCH  27  29
HETATM   29  O   UNK A   0     -10.679  13.022  67.384  1.00  0.00    -0.242 OA 
BRANCH  29  30
HETATM   30  C   UNK A   0     -11.331  14.017  66.578  1.00  0.00    -0.336 C  
HETATM   31  C   UNK A   0     -10.936  15.416  67.018  1.00  0.00    -0.306 C  
ENDBRANCH  29  30
ENDBRANCH  27  29
ENDBRANCH  18  27
ENDBRANCH  16  18
ENDBRANCH  14  16
ENDBRANCH   7  14
TORSDOF 9
ENDMDL
MODEL      112
REMARK 921   NORMALIZED FREE ENERGY PREDICTED BY IDOCK:   -4.95 KCAL/MOL
REMARK 922        TOTAL FREE ENERGY PREDICTED BY IDOCK:   -9.18 KCAL/MOL
REMARK 923 INTER-LIGAND FREE ENERGY PREDICTED BY IDOCK:   -8.62 KCAL/MOL
REMARK 924 INTRA-LIGAND FREE ENERGY PREDICTED BY IDOCK:   -0.56 KCAL/MOL
REMARK 927      BINDING AFFINITY PREDICTED BY RF-SCORE:    0.00 PKD
ROOT
HETATM    1  C   UNK A   1      -8.858   9.759  65.886  1.00  0.00    -0.175 C  
HETATM    2  C   UNK A   1      -9.816  10.942  65.642  1.00  0.00    -0.292 C  
HETATM    3  C   UNK A   1     -10.807  10.926  66.798  1.00  0.00    -0.283 C  
HETATM    4  C   UNK A   1     -10.687   9.527  67.377  1.00  0.00    -0.297 C  
HETATM    5  C   UNK A   1      -9.196   9.213  67.284  1.00  0.00    -0.133 C  
HETATM    6  N   UNK A   1      -8.287   9.938  68.186  1.00  0.00    -0.109 N  
HETATM    7  C   UNK A   1      -8.115   9.717  69.552  1.00  0.00    -0.141 C  
HETATM    8  C   UNK A   1      -7.121  10.472  67.426  1.00  0.00    -0.090 C  
HETATM    9  C   UNK A   1      -6.808  11.977  67.542  1.00  0.00    -0.128 C  
HETATM   10  C   UNK A   1      -7.389  10.138  65.953  1.00  0.00    -0.121 C  
HETATM   11  O   UNK A   1      -7.155  10.253  70.119  1.00  0.00    -0.147 OA 
HETATM   12  O   UNK A   1      -7.658  12.657  68.348  1.00  0.00    -0.122 OA 
HETATM   13  O   UNK A   1      -5.908  12.531  66.937  1.00  0.00    -0.304 OA 
ENDROOT
BRANCH   7  14
HETATM   14  C   UNK A   1      -9.131   8.876  70.373  1.00  0.00    -0.190 C  
HETATM   15  C   UNK A   1      -9.099   7.417  69.892  1.00  0.00    -0.141 C  
BRANCH  14  16
HETATM   16  N   UNK A   1     -10.490   9.457  70.241  1.00  0.00    -0.231 NA 
HETATM   17  H   UNK A   1     -11.023   8.966  69.524  1.00  0.00     0.000 HD 
BRANCH  16  18
HETATM   18  C   UNK A   0     -11.248   9.500  71.529  1.00  0.00    -0.367 C  
BRANCH  18  19
HETATM   19  C   UNK A   0     -12.298  10.611  71.495  1.00  0.00    -0.414 C  
BRANCH  19  20
HETATM   20  C   UNK A   0     -12.151  11.593  70.324  1.00  0.00    -0.443 C  
BRANCH  20  21
HETATM   21  C   UNK A   0     -12.463  12.973  70.852  1.00  0.00    -0.396 A  
HETATM   22  C   UNK A   0     -12.083  14.111  70.128  1.00  0.00    -0.411 A  
HETATM   23  C   UNK A   0     -13.292  13.118  71.974  1.00  0.00    -0.587 A  
HETATM   24  C   UNK A   0     -12.567  15.367  70.488  1.00  0.00    -0.471 A  
HETATM   25  C   UNK A   0     -13.771  14.376  72.333  1.00  0.00    -0.590 A  
HETATM   26  C   UNK A   0     -13.424  15.496  71.581  1.00  0.00    -0.584 A  
ENDBRANCH  20  21
ENDBRANCH  19  20
ENDBRANCH  18  19
BRANCH  18  27
HETATM   27  C   UNK A   0     -11.903   8.130  71.791  1.00  0.00    -0.300 C  
HETATM   28  O   UNK A   0     -12.542   7.478  70.978  1.00  0.00    -0.281 OA 
BRANCH  27  29
HETATM   29  O   UNK A   0     -11.652   7.752  73.082  1.00  0.00    -0.273 OA 
BRANCH  29  30
HETATM   30  C   UNK A   0     -10.667   6.722  73.261  1.00  0.00    -0.302 C  
HETATM   31  C   UNK A   0      -9.340   7.310  73.706  1.00  0.00    -0.296 C  
ENDBRANCH  29  30
ENDBRANCH  27  29
ENDBRANCH  18  27
ENDBRANCH  16  18
ENDBRANCH  14  16
ENDBRANCH   7  14
TORSDOF 9
ENDMDL
MODEL      113
REMARK 921   NORMALIZED FREE ENERGY PREDICTED BY IDOCK:   -4.93 KCAL/MOL
REMARK 922        TOTAL FREE ENERGY PREDICTED BY IDOCK:   -9.15 KCAL/MOL
REMARK 923 INTER-LIGAND FREE ENERGY PREDICTED BY IDOCK:   -7.83 KCAL/MOL
REMARK 924 INTRA-LIGAND FREE ENERGY PREDICTED BY IDOCK:   -1.32 KCAL/MOL
REMARK 927      BINDING AFFINITY PREDICTED BY RF-SCORE:    0.00 PKD
ROOT
HETATM    1  C   UNK A   1     -10.562  14.350  64.853  1.00  0.00    -0.456 C  
HETATM    2  C   UNK A   1     -12.018  14.814  64.650  1.00  0.00    -0.448 C  
HETATM    3  C   UNK A   1     -12.890  13.791  65.367  1.00  0.00    -0.455 C  
HETATM    4  C   UNK A   1     -11.986  12.583  65.539  1.00  0.00    -0.500 C  
HETATM    5  C   UNK A   1     -10.619  13.182  65.853  1.00  0.00    -0.280 C  
HETATM    6  N   UNK A   1     -10.438  13.821  67.167  1.00  0.00    -0.271 N  
HETATM    7  C   UNK A   1     -10.293  13.176  68.395  1.00  0.00    -0.253 C  
HETATM    8  C   UNK A   1      -9.786  15.152  67.010  1.00  0.00    -0.230 C  
HETATM    9  C   UNK A   1     -10.480  16.377  67.637  1.00  0.00    -0.302 C  
HETATM   10  C   UNK A   1      -9.653  15.381  65.499  1.00  0.00    -0.253 C  
HETATM   11  O   UNK A   1      -9.925  13.843  69.370  1.00  0.00     0.154 OA 
HETATM   12  O   UNK A   1     -11.638  16.088  68.278  1.00  0.00    -0.338 OA 
HETATM   13  O   UNK A   1     -10.062  17.517  67.539  1.00  0.00    -0.301 OA 
ENDROOT
BRANCH   7  14
HETATM   14  C   UNK A   1     -10.644  11.673  68.571  1.00  0.00    -0.215 C  
HETATM   15  C   UNK A   1     -12.106  11.536  69.025  1.00  0.00    -0.303 C  
BRANCH  14  16
HETATM   16  N   UNK A   1      -9.716  11.050  69.546  1.00  0.00    -0.416 NA 
HETATM   17  H   UNK A   1      -9.773  11.519  70.449  1.00  0.00     0.000 HD 
BRANCH  16  18
HETATM   18  C   UNK A   0      -9.918   9.576  69.701  1.00  0.00    -0.205 C  
BRANCH  18  19
HETATM   19  C   UNK A   0      -8.758   8.807  69.067  1.00  0.00    -0.133 C  
BRANCH  19  20
HETATM   20  C   UNK A   0      -9.133   8.010  67.809  1.00  0.00    -0.136 C  
BRANCH  20  21
HETATM   21  C   UNK A   0      -9.186   6.552  68.200  1.00  0.00    -0.112 A  
HETATM   22  C   UNK A   0      -8.027   5.766  68.161  1.00  0.00    -0.104 A  
HETATM   23  C   UNK A   0     -10.353   6.028  68.776  1.00  0.00    -0.267 A  
HETATM   24  C   UNK A   0      -8.018   4.496  68.735  1.00  0.00    -0.078 A  
HETATM   25  C   UNK A   0     -10.341   4.757  69.347  1.00  0.00    -0.037 A  
HETATM   26  C   UNK A   0      -9.172   4.000  69.342  1.00  0.00    -0.216 A  
ENDBRANCH  20  21
ENDBRANCH  19  20
ENDBRANCH  18  19
BRANCH  18  27
HETATM   27  C   UNK A   0     -10.057   9.226  71.196  1.00  0.00    -0.304 C  
HETATM   28  O   UNK A   0      -9.141   9.176  72.005  1.00  0.00    -0.337 OA 
BRANCH  27  29
HETATM   29  O   UNK A   0     -11.374   8.987  71.481  1.00  0.00    -0.292 OA 
BRANCH  29  30
HETATM   30  C   UNK A   0     -11.635   8.098  72.577  1.00  0.00    -0.404 C  
HETATM   31  C   UNK A   0     -11.753   6.663  72.096  1.00  0.00    -0.342 C  
ENDBRANCH  29  30
ENDBRANCH  27  29
ENDBRANCH  18  27
ENDBRANCH  16  18
ENDBRANCH  14  16
ENDBRANCH   7  14
TORSDOF 9
ENDMDL
MODEL      114
REMARK 921   NORMALIZED FREE ENERGY PREDICTED BY IDOCK:   -4.92 KCAL/MOL
REMARK 922        TOTAL FREE ENERGY PREDICTED BY IDOCK:   -9.15 KCAL/MOL
REMARK 923 INTER-LIGAND FREE ENERGY PREDICTED BY IDOCK:   -7.58 KCAL/MOL
REMARK 924 INTRA-LIGAND FREE ENERGY PREDICTED BY IDOCK:   -1.56 KCAL/MOL
REMARK 927      BINDING AFFINITY PREDICTED BY RF-SCORE:    0.00 PKD
ROOT
HETATM    1  C   UNK A   1      -7.991   9.839  66.570  1.00  0.00    -0.112 C  
HETATM    2  C   UNK A   1      -8.760   8.510  66.700  1.00  0.00    -0.139 C  
HETATM    3  C   UNK A   1     -10.234   8.858  66.538  1.00  0.00    -0.319 C  
HETATM    4  C   UNK A   1     -10.295  10.356  66.787  1.00  0.00    -0.294 C  
HETATM    5  C   UNK A   1      -9.024  10.893  66.135  1.00  0.00    -0.183 C  
HETATM    6  N   UNK A   1      -8.954  10.884  64.665  1.00  0.00    -0.308 N  
HETATM    7  C   UNK A   1      -9.611  11.751  63.793  1.00  0.00    -0.155 C  
HETATM    8  C   UNK A   1      -7.653  10.314  64.213  1.00  0.00    -0.089 C  
HETATM    9  C   UNK A   1      -7.685   9.143  63.210  1.00  0.00    -0.115 C  
HETATM   10  C   UNK A   1      -6.929   9.853  65.484  1.00  0.00    -0.110 C  
HETATM   11  O   UNK A   1      -9.273  11.759  62.603  1.00  0.00    -0.303 OA 
HETATM   12  O   UNK A   1      -8.933   8.760  62.848  1.00  0.00    -0.030 OA 
HETATM   13  O   UNK A   1      -6.689   8.572  62.804  1.00  0.00    -0.091 OA 
ENDROOT
BRANCH   7  14
HETATM   14  C   UNK A   1     -10.789  12.646  64.270  1.00  0.00    -0.379 C  
HETATM   15  C   UNK A   1     -12.005  12.427  63.356  1.00  0.00    -0.595 C  
BRANCH  14  16
HETATM   16  N   UNK A   1     -10.369  14.069  64.277  1.00  0.00    -0.641 NA 
HETATM   17  H   UNK A   1     -10.535  14.498  63.367  1.00  0.00     0.000 HD 
BRANCH  16  18
HETATM   18  C   UNK A   0     -11.006  14.872  65.366  1.00  0.00    -0.364 C  
BRANCH  18  19
HETATM   19  C   UNK A   0     -10.913  14.132  66.701  1.00  0.00    -0.303 C  
BRANCH  19  20
HETATM   20  C   UNK A   0     -10.756  15.044  67.927  1.00  0.00    -0.268 C  
BRANCH  20  21
HETATM   21  C   UNK A   0      -9.427  14.717  68.563  1.00  0.00    -0.214 A  
HETATM   22  C   UNK A   0      -8.718  13.572  68.175  1.00  0.00    -0.174 A  
HETATM   23  C   UNK A   0      -8.812  15.651  69.410  1.00  0.00    -0.257 A  
HETATM   24  C   UNK A   0      -7.398  13.389  68.583  1.00  0.00    -0.106 A  
HETATM   25  C   UNK A   0      -7.493  15.463  69.819  1.00  0.00    -0.108 A  
HETATM   26  C   UNK A   0      -6.782  14.344  69.392  1.00  0.00    -0.140 A  
ENDBRANCH  20  21
ENDBRANCH  19  20
ENDBRANCH  18  19
BRANCH  18  27
HETATM   27  C   UNK A   0     -10.329  16.254  65.455  1.00  0.00    -0.338 C  
HETATM   28  O   UNK A   0     -10.871  17.329  65.238  1.00  0.00    -0.576 OA 
BRANCH  27  29
HETATM   29  O   UNK A   0      -9.022  16.091  65.825  1.00  0.00    -0.335 OA 
BRANCH  29  30
HETATM   30  C   UNK A   0      -8.330  17.276  66.250  1.00  0.00    -0.254 C  
HETATM   31  C   UNK A   0      -6.862  16.985  66.504  1.00  0.00    -0.281 C  
ENDBRANCH  29  30
ENDBRANCH  27  29
ENDBRANCH  18  27
ENDBRANCH  16  18
ENDBRANCH  14  16
ENDBRANCH   7  14
TORSDOF 9
ENDMDL
MODEL      115
REMARK 921   NORMALIZED FREE ENERGY PREDICTED BY IDOCK:   -4.91 KCAL/MOL
REMARK 922        TOTAL FREE ENERGY PREDICTED BY IDOCK:   -9.12 KCAL/MOL
REMARK 923 INTER-LIGAND FREE ENERGY PREDICTED BY IDOCK:   -7.77 KCAL/MOL
REMARK 924 INTRA-LIGAND FREE ENERGY PREDICTED BY IDOCK:   -1.35 KCAL/MOL
REMARK 927      BINDING AFFINITY PREDICTED BY RF-SCORE:    0.00 PKD
ROOT
HETATM    1  C   UNK A   1     -10.895  13.816  68.131  1.00  0.00    -0.261 C  
HETATM    2  C   UNK A   1     -10.019  15.006  67.693  1.00  0.00    -0.225 C  
HETATM    3  C   UNK A   1      -8.627  14.437  67.449  1.00  0.00    -0.213 C  
HETATM    4  C   UNK A   1      -8.635  13.103  68.177  1.00  0.00    -0.181 C  
HETATM    5  C   UNK A   1     -10.038  12.554  67.934  1.00  0.00    -0.214 C  
HETATM    6  N   UNK A   1     -10.368  12.101  66.574  1.00  0.00    -0.211 N  
HETATM    7  C   UNK A   1      -9.943  10.922  65.960  1.00  0.00    -0.240 C  
HETATM    8  C   UNK A   1     -11.682  12.660  66.146  1.00  0.00    -0.406 C  
HETATM    9  C   UNK A   1     -11.742  13.433  64.814  1.00  0.00    -0.361 C  
HETATM   10  C   UNK A   1     -12.132  13.593  67.278  1.00  0.00    -0.385 C  
HETATM   11  O   UNK A   1     -10.487  10.578  64.904  1.00  0.00    -0.301 OA 
HETATM   12  O   UNK A   1     -10.554  13.515  64.169  1.00  0.00    -0.365 OA 
HETATM   13  O   UNK A   1     -12.749  13.967  64.385  1.00  0.00    -0.663 OA 
ENDROOT
BRANCH   7  14
HETATM   14  C   UNK A   1      -8.769  10.084  66.538  1.00  0.00    -0.132 C  
HETATM   15  C   UNK A   1      -7.507  10.312  65.690  1.00  0.00    -0.149 C  
BRANCH  14  16
HETATM   16  N   UNK A   1      -9.144   8.649  66.571  1.00  0.00    -0.154 NA 
HETATM   17  H   UNK A   1      -8.372   8.067  66.247  1.00  0.00     0.000 HD 
BRANCH  16  18
HETATM   18  C   UNK A   0      -9.629   8.191  67.910  1.00  0.00    -0.155 C  
BRANCH  18  19
HETATM   19  C   UNK A   0      -9.790   6.670  67.929  1.00  0.00    -0.138 C  
BRANCH  19  20
HETATM   20  C   UNK A   0     -11.161   6.179  68.417  1.00  0.00    -0.343 C  
BRANCH  20  21
HETATM   21  C   UNK A   0     -11.099   6.100  69.923  1.00  0.00    -0.481 A  
HETATM   22  C   UNK A   0     -11.990   6.844  70.708  1.00  0.00    -0.424 A  
HETATM   23  C   UNK A   0     -10.275   5.145  70.538  1.00  0.00    -0.330 A  
HETATM   24  C   UNK A   0     -12.094   6.602  72.077  1.00  0.00    -0.353 A  
HETATM   25  C   UNK A   0     -10.379   4.908  71.907  1.00  0.00    -0.259 A  
HETATM   26  C   UNK A   0     -11.299   5.622  72.671  1.00  0.00    -0.356 A  
ENDBRANCH  20  21
ENDBRANCH  19  20
ENDBRANCH  18  19
BRANCH  18  27
HETATM   27  C   UNK A   0      -8.646   8.654  69.004  1.00  0.00    -0.129 C  
HETATM   28  O   UNK A   0      -8.808   9.608  69.750  1.00  0.00    -0.176 OA 
BRANCH  27  29
HETATM   29  O   UNK A   0      -7.561   7.820  69.014  1.00  0.00    -0.096 OA 
BRANCH  29  30
HETATM   30  C   UNK A   0      -6.922   7.626  70.286  1.00  0.00    -0.051 C  
HETATM   31  C   UNK A   0      -5.417   7.789  70.168  1.00  0.00    -0.023 C  
ENDBRANCH  29  30
ENDBRANCH  27  29
ENDBRANCH  18  27
ENDBRANCH  16  18
ENDBRANCH  14  16
ENDBRANCH   7  14
TORSDOF 9
ENDMDL
MODEL      116
REMARK 921   NORMALIZED FREE ENERGY PREDICTED BY IDOCK:   -4.90 KCAL/MOL
REMARK 922        TOTAL FREE ENERGY PREDICTED BY IDOCK:   -9.11 KCAL/MOL
REMARK 923 INTER-LIGAND FREE ENERGY PREDICTED BY IDOCK:   -7.59 KCAL/MOL
REMARK 924 INTRA-LIGAND FREE ENERGY PREDICTED BY IDOCK:   -1.52 KCAL/MOL
REMARK 927      BINDING AFFINITY PREDICTED BY RF-SCORE:    0.00 PKD
ROOT
HETATM    1  C   UNK A   1     -11.180  12.391  65.632  1.00  0.00    -0.360 C  
HETATM    2  C   UNK A   1     -10.030  13.379  65.909  1.00  0.00    -0.287 C  
HETATM    3  C   UNK A   1      -9.427  12.960  67.243  1.00  0.00    -0.216 C  
HETATM    4  C   UNK A   1     -10.496  12.091  67.882  1.00  0.00    -0.221 C  
HETATM    5  C   UNK A   1     -11.081  11.302  66.714  1.00  0.00    -0.250 C  
HETATM    6  N   UNK A   1     -10.240  10.260  66.104  1.00  0.00    -0.234 N  
HETATM    7  C   UNK A   1      -9.949   9.004  66.636  1.00  0.00    -0.278 C  
HETATM    8  C   UNK A   1     -10.253  10.388  64.619  1.00  0.00    -0.235 C  
HETATM    9  C   UNK A   1      -8.899  10.487  63.888  1.00  0.00    -0.194 C  
HETATM   10  C   UNK A   1     -11.071  11.648  64.311  1.00  0.00    -0.406 C  
HETATM   11  O   UNK A   1      -9.417   8.162  65.903  1.00  0.00    -0.135 OA 
HETATM   12  O   UNK A   1      -7.824  10.444  64.710  1.00  0.00    -0.146 OA 
HETATM   13  O   UNK A   1      -8.788  10.635  62.685  1.00  0.00    -0.212 OA 
ENDROOT
BRANCH   7  14
HETATM   14  C   UNK A   1     -10.219   8.673  68.131  1.00  0.00    -0.205 C  
HETATM   15  C   UNK A   1      -8.895   8.707  68.912  1.00  0.00    -0.138 C  
BRANCH  14  16
HETATM   16  N   UNK A   1     -10.876   7.348  68.242  1.00  0.00    -0.425 NA 
HETATM   17  H   UNK A   1     -10.771   6.819  67.377  1.00  0.00     0.000 HD 
BRANCH  16  18
HETATM   18  C   UNK A   0     -10.405   6.546  69.413  1.00  0.00    -0.205 C  
BRANCH  18  19
HETATM   19  C   UNK A   0     -11.566   6.253  70.363  1.00  0.00    -0.371 C  
BRANCH  19  20
HETATM   20  C   UNK A   0     -11.470   6.955  71.725  1.00  0.00    -0.310 C  
BRANCH  20  21
HETATM   21  C   UNK A   0     -12.204   8.269  71.606  1.00  0.00    -0.350 A  
HETATM   22  C   UNK A   0     -13.524   8.387  72.060  1.00  0.00    -0.375 A  
HETATM   23  C   UNK A   0     -11.508   9.422  71.210  1.00  0.00    -0.433 A  
HETATM   24  C   UNK A   0     -14.122   9.641  72.167  1.00  0.00    -0.113 A  
HETATM   25  C   UNK A   0     -12.111  10.674  71.315  1.00  0.00    -0.401 A  
HETATM   26  C   UNK A   0     -13.408  10.785  71.809  1.00  0.00    -0.429 A  
ENDBRANCH  20  21
ENDBRANCH  19  20
ENDBRANCH  18  19
BRANCH  18  27
HETATM   27  C   UNK A   0      -9.754   5.238  68.919  1.00  0.00    -0.148 C  
HETATM   28  O   UNK A   0      -8.993   5.136  67.968  1.00  0.00    -0.109 OA 
BRANCH  27  29
HETATM   29  O   UNK A   0     -10.158   4.205  69.721  1.00  0.00    -0.137 OA 
BRANCH  29  30
HETATM   30  C   UNK A   0      -9.130   3.556  70.484  1.00  0.00    -0.122 C  
HETATM   31  C   UNK A   0      -8.915   2.131  70.005  1.00  0.00    -0.150 C  
ENDBRANCH  29  30
ENDBRANCH  27  29
ENDBRANCH  18  27
ENDBRANCH  16  18
ENDBRANCH  14  16
ENDBRANCH   7  14
TORSDOF 9
ENDMDL
MODEL      117
REMARK 921   NORMALIZED FREE ENERGY PREDICTED BY IDOCK:   -4.88 KCAL/MOL
REMARK 922        TOTAL FREE ENERGY PREDICTED BY IDOCK:   -9.08 KCAL/MOL
REMARK 923 INTER-LIGAND FREE ENERGY PREDICTED BY IDOCK:   -8.79 KCAL/MOL
REMARK 924 INTRA-LIGAND FREE ENERGY PREDICTED BY IDOCK:   -0.29 KCAL/MOL
REMARK 927      BINDING AFFINITY PREDICTED BY RF-SCORE:    0.00 PKD
ROOT
HETATM    1  C   UNK A   1      -8.681   6.136  67.070  1.00  0.00    -0.107 C  
HETATM    2  C   UNK A   1     -10.072   5.821  66.487  1.00  0.00    -0.216 C  
HETATM    3  C   UNK A   1     -11.080   6.275  67.535  1.00  0.00    -0.379 C  
HETATM    4  C   UNK A   1     -10.268   6.388  68.813  1.00  0.00    -0.206 C  
HETATM    5  C   UNK A   1      -8.926   6.949  68.353  1.00  0.00    -0.121 C  
HETATM    6  N   UNK A   1      -8.888   8.351  67.906  1.00  0.00    -0.137 N  
HETATM    7  C   UNK A   1      -8.938   9.486  68.714  1.00  0.00    -0.133 C  
HETATM    8  C   UNK A   1      -8.156   8.462  66.612  1.00  0.00    -0.101 C  
HETATM    9  C   UNK A   1      -8.865   9.163  65.436  1.00  0.00    -0.196 C  
HETATM   10  C   UNK A   1      -7.815   7.026  66.196  1.00  0.00    -0.102 C  
HETATM   11  O   UNK A   1      -8.669  10.582  68.207  1.00  0.00    -0.126 OA 
HETATM   12  O   UNK A   1     -10.110   9.609  65.728  1.00  0.00    -0.290 OA 
HETATM   13  O   UNK A   1      -8.382   9.275  64.324  1.00  0.00    -0.156 OA 
ENDROOT
BRANCH   7  14
HETATM   14  C   UNK A   1      -9.383   9.407  70.201  1.00  0.00    -0.241 C  
HETATM   15  C   UNK A   1      -8.465   8.436  70.961  1.00  0.00    -0.167 C  
BRANCH  14  16
HETATM   16  N   UNK A   1     -10.802   8.980  70.279  1.00  0.00    -0.232 NA 
HETATM   17  H   UNK A   1     -10.870   7.964  70.340  1.00  0.00     0.000 HD 
BRANCH  16  18
HETATM   18  C   UNK A   0     -11.558   9.630  71.394  1.00  0.00    -0.400 C  
BRANCH  18  19
HETATM   19  C   UNK A   0     -12.546  10.658  70.842  1.00  0.00    -0.503 C  
BRANCH  19  20
HETATM   20  C   UNK A   0     -11.893  11.891  70.200  1.00  0.00    -0.390 C  
BRANCH  20  21
HETATM   21  C   UNK A   0     -12.614  13.108  70.728  1.00  0.00    -0.338 A  
HETATM   22  C   UNK A   0     -13.375  13.026  71.902  1.00  0.00    -0.539 A  
HETATM   23  C   UNK A   0     -12.377  14.363  70.150  1.00  0.00    -0.406 A  
HETATM   24  C   UNK A   0     -13.848  14.184  72.517  1.00  0.00    -0.590 A  
HETATM   25  C   UNK A   0     -12.854  15.519  70.765  1.00  0.00    -0.513 A  
HETATM   26  C   UNK A   0     -13.572  15.431  71.955  1.00  0.00    -0.588 A  
ENDBRANCH  20  21
ENDBRANCH  19  20
ENDBRANCH  18  19
BRANCH  18  27
HETATM   27  C   UNK A   0     -12.289   8.554  72.222  1.00  0.00    -0.387 C  
HETATM   28  O   UNK A   0     -13.245   8.748  72.959  1.00  0.00    -0.292 OA 
BRANCH  27  29
HETATM   29  O   UNK A   0     -11.702   7.339  71.996  1.00  0.00    -0.277 OA 
BRANCH  29  30
HETATM   30  C   UNK A   0     -10.878   6.825  73.054  1.00  0.00    -0.283 C  
HETATM   31  C   UNK A   0     -11.114   5.339  73.255  1.00  0.00    -0.376 C  
ENDBRANCH  29  30
ENDBRANCH  27  29
ENDBRANCH  18  27
ENDBRANCH  16  18
ENDBRANCH  14  16
ENDBRANCH   7  14
TORSDOF 9
ENDMDL
MODEL      118
REMARK 921   NORMALIZED FREE ENERGY PREDICTED BY IDOCK:   -4.86 KCAL/MOL
REMARK 922        TOTAL FREE ENERGY PREDICTED BY IDOCK:   -9.05 KCAL/MOL
REMARK 923 INTER-LIGAND FREE ENERGY PREDICTED BY IDOCK:   -9.29 KCAL/MOL
REMARK 924 INTRA-LIGAND FREE ENERGY PREDICTED BY IDOCK:    0.23 KCAL/MOL
REMARK 927      BINDING AFFINITY PREDICTED BY RF-SCORE:    0.00 PKD
ROOT
HETATM    1  C   UNK A   1      -7.869  19.597  66.588  1.00  0.00    -0.306 C  
HETATM    2  C   UNK A   1      -7.372  19.904  68.014  1.00  0.00    -0.332 C  
HETATM    3  C   UNK A   1      -8.488  19.465  68.953  1.00  0.00    -0.327 C  
HETATM    4  C   UNK A   1      -9.713  19.370  68.061  1.00  0.00    -0.447 C  
HETATM    5  C   UNK A   1      -9.176  18.801  66.751  1.00  0.00    -0.315 C  
HETATM    6  N   UNK A   1      -8.747  17.394  66.741  1.00  0.00    -0.245 N  
HETATM    7  C   UNK A   1      -9.573  16.269  66.739  1.00  0.00    -0.239 C  
HETATM    8  C   UNK A   1      -7.411  17.264  66.093  1.00  0.00    -0.286 C  
HETATM    9  C   UNK A   1      -6.293  16.547  66.875  1.00  0.00    -0.131 C  
HETATM   10  C   UNK A   1      -6.954  18.694  65.779  1.00  0.00    -0.290 C  
HETATM   11  O   UNK A   1      -9.066  15.166  66.502  1.00  0.00    -0.259 OA 
HETATM   12  O   UNK A   1      -6.670  16.106  68.099  1.00  0.00    -0.118 OA 
HETATM   13  O   UNK A   1      -5.154  16.419  66.464  1.00  0.00    -0.305 OA 
ENDROOT
BRANCH   7  14
HETATM   14  C   UNK A   1     -11.084  16.370  67.088  1.00  0.00     0.026 C  
HETATM   15  C   UNK A   1     -11.250  16.543  68.606  1.00  0.00    -0.297 C  
BRANCH  14  16
HETATM   16  N   UNK A   1     -11.795  15.162  66.602  1.00  0.00    -0.062 NA 
HETATM   17  H   UNK A   1     -11.568  14.980  65.624  1.00  0.00     0.000 HD 
BRANCH  16  18
HETATM   18  C   UNK A   0     -11.547  13.948  67.439  1.00  0.00    -0.368 C  
BRANCH  18  19
HETATM   19  C   UNK A   0     -12.457  13.951  68.667  1.00  0.00     0.209 C  
BRANCH  19  20
HETATM   20  C   UNK A   0     -11.733  13.701  69.999  1.00  0.00    -0.319 C  
BRANCH  20  21
HETATM   21  C   UNK A   0     -12.345  14.625  71.024  1.00  0.00    -0.403 A  
HETATM   22  C   UNK A   0     -13.732  14.821  71.063  1.00  0.00    -0.322 A  
HETATM   23  C   UNK A   0     -11.548  15.148  72.054  1.00  0.00    -0.496 A  
HETATM   24  C   UNK A   0     -14.319  15.481  72.140  1.00  0.00    -0.598 A  
HETATM   25  C   UNK A   0     -12.139  15.811  73.128  1.00  0.00    -0.603 A  
HETATM   26  C   UNK A   0     -13.522  15.962  73.179  1.00  0.00    -0.650 A  
ENDBRANCH  20  21
ENDBRANCH  19  20
ENDBRANCH  18  19
BRANCH  18  27
HETATM   27  C   UNK A   0     -11.770  12.679  66.592  1.00  0.00    -0.398 C  
HETATM   28  O   UNK A   0     -11.959  12.653  65.384  1.00  0.00    -0.399 OA 
BRANCH  27  29
HETATM   29  O   UNK A   0     -11.715  11.581  67.406  1.00  0.00    -0.567 OA 
BRANCH  29  30
HETATM   30  C   UNK A   0     -10.461  10.883  67.445  1.00  0.00    -0.224 C  
HETATM   31  C   UNK A   0     -10.099  10.497  68.869  1.00  0.00    -0.215 C  
ENDBRANCH  29  30
ENDBRANCH  27  29
ENDBRANCH  18  27
ENDBRANCH  16  18
ENDBRANCH  14  16
ENDBRANCH   7  14
TORSDOF 9
ENDMDL
MODEL      119
REMARK 921   NORMALIZED FREE ENERGY PREDICTED BY IDOCK:   -4.86 KCAL/MOL
REMARK 922        TOTAL FREE ENERGY PREDICTED BY IDOCK:   -9.05 KCAL/MOL
REMARK 923 INTER-LIGAND FREE ENERGY PREDICTED BY IDOCK:   -8.60 KCAL/MOL
REMARK 924 INTRA-LIGAND FREE ENERGY PREDICTED BY IDOCK:   -0.45 KCAL/MOL
REMARK 927      BINDING AFFINITY PREDICTED BY RF-SCORE:    0.00 PKD
ROOT
HETATM    1  C   UNK A   1     -11.826  14.907  66.211  1.00  0.00    -0.125 C  
HETATM    2  C   UNK A   1     -10.463  15.383  65.673  1.00  0.00    -0.391 C  
HETATM    3  C   UNK A   1      -9.423  14.905  66.678  1.00  0.00    -0.286 C  
HETATM    4  C   UNK A   1     -10.225  14.605  67.933  1.00  0.00    -0.226 C  
HETATM    5  C   UNK A   1     -11.520  13.992  67.409  1.00  0.00    -0.348 C  
HETATM    6  N   UNK A   1     -11.451  12.643  66.826  1.00  0.00    -0.330 N  
HETATM    7  C   UNK A   1     -11.315  11.440  67.519  1.00  0.00    -0.292 C  
HETATM    8  C   UNK A   1     -12.172  12.604  65.522  1.00  0.00    -0.440 C  
HETATM    9  C   UNK A   1     -11.411  12.079  64.288  1.00  0.00    -0.364 C  
HETATM   10  C   UNK A   1     -12.622  14.045  65.246  1.00  0.00    -0.495 C  
HETATM   11  O   UNK A   1     -11.499  10.382  66.905  1.00  0.00    -0.110 OA 
HETATM   12  O   UNK A   1     -10.136  11.702  64.545  1.00  0.00    -0.255 OA 
HETATM   13  O   UNK A   1     -11.884  12.040  63.167  1.00  0.00    -0.355 OA 
ENDROOT
BRANCH   7  14
HETATM   14  C   UNK A   1     -10.878  11.406  69.010  1.00  0.00    -0.219 C  
HETATM   15  C   UNK A   1     -11.670  12.459  69.802  1.00  0.00    -0.361 C  
BRANCH  14  16
HETATM   16  N   UNK A   1      -9.417  11.642  69.111  1.00  0.00    -0.392 NA 
HETATM   17  H   UNK A   1      -9.221  12.444  69.710  1.00  0.00     0.000 HD 
BRANCH  16  18
HETATM   18  C   UNK A   0      -8.650  10.441  69.568  1.00  0.00    -0.093 C  
BRANCH  18  19
HETATM   19  C   UNK A   0      -9.602   9.291  69.894  1.00  0.00    -0.217 C  
BRANCH  19  20
HETATM   20  C   UNK A   0      -9.710   8.955  71.389  1.00  0.00    -0.370 C  
BRANCH  20  21
HETATM   21  C   UNK A   0     -11.148   8.587  71.665  1.00  0.00    -0.360 A  
HETATM   22  C   UNK A   0     -12.119   9.586  71.811  1.00  0.00    -0.459 A  
HETATM   23  C   UNK A   0     -11.549   7.244  71.595  1.00  0.00    -0.306 A  
HETATM   24  C   UNK A   0     -13.473   9.254  71.833  1.00  0.00    -0.497 A  
HETATM   25  C   UNK A   0     -12.903   6.916  71.621  1.00  0.00    -0.383 A  
HETATM   26  C   UNK A   0     -13.863   7.919  71.721  1.00  0.00    -0.449 A  
ENDBRANCH  20  21
ENDBRANCH  19  20
ENDBRANCH  18  19
BRANCH  18  27
HETATM   27  C   UNK A   0      -7.639  10.027  68.481  1.00  0.00    -0.087 C  
HETATM   28  O   UNK A   0      -6.528   9.555  68.683  1.00  0.00    -0.051 OA 
BRANCH  27  29
HETATM   29  O   UNK A   0      -8.183  10.263  67.248  1.00  0.00    -0.120 OA 
BRANCH  29  30
HETATM   30  C   UNK A   0      -7.295  10.130  66.127  1.00  0.00    -0.115 C  
HETATM   31  C   UNK A   0      -7.823   9.108  65.135  1.00  0.00    -0.106 C  
ENDBRANCH  29  30
ENDBRANCH  27  29
ENDBRANCH  18  27
ENDBRANCH  16  18
ENDBRANCH  14  16
ENDBRANCH   7  14
TORSDOF 9
ENDMDL
MODEL      120
REMARK 921   NORMALIZED FREE ENERGY PREDICTED BY IDOCK:   -4.86 KCAL/MOL
REMARK 922        TOTAL FREE ENERGY PREDICTED BY IDOCK:   -9.04 KCAL/MOL
REMARK 923 INTER-LIGAND FREE ENERGY PREDICTED BY IDOCK:   -7.64 KCAL/MOL
REMARK 924 INTRA-LIGAND FREE ENERGY PREDICTED BY IDOCK:   -1.40 KCAL/MOL
REMARK 927      BINDING AFFINITY PREDICTED BY RF-SCORE:    0.00 PKD
ROOT
HETATM    1  C   UNK A   1     -10.097   8.328  72.791  1.00  0.00    -0.333 C  
HETATM    2  C   UNK A   1     -10.926   7.052  73.033  1.00  0.00    -0.327 C  
HETATM    3  C   UNK A   1     -11.915   6.967  71.878  1.00  0.00    -0.363 C  
HETATM    4  C   UNK A   1     -11.940   8.371  71.301  1.00  0.00    -0.323 C  
HETATM    5  C   UNK A   1     -10.490   8.838  71.394  1.00  0.00    -0.284 C  
HETATM    6  N   UNK A   1      -9.511   8.213  70.491  1.00  0.00    -0.162 N  
HETATM    7  C   UNK A   1      -9.364   8.453  69.124  1.00  0.00    -0.151 C  
HETATM    8  C   UNK A   1      -8.296   7.802  71.249  1.00  0.00    -0.104 C  
HETATM    9  C   UNK A   1      -7.828   6.337  71.130  1.00  0.00    -0.111 C  
HETATM   10  C   UNK A   1      -8.596   8.104  72.723  1.00  0.00    -0.269 C  
HETATM   11  O   UNK A   1      -8.354   8.021  68.556  1.00  0.00    -0.125 OA 
HETATM   12  O   UNK A   1      -8.603   5.574  70.323  1.00  0.00    -0.121 OA 
HETATM   13  O   UNK A   1      -6.876   5.880  71.734  1.00  0.00    -0.064 OA 
ENDROOT
BRANCH   7  14
HETATM   14  C   UNK A   1     -10.462   9.186  68.305  1.00  0.00    -0.208 C  
HETATM   15  C   UNK A   1     -10.600   8.525  66.924  1.00  0.00    -0.279 C  
BRANCH  14  16
HETATM   16  N   UNK A   1     -10.123  10.625  68.183  1.00  0.00    -0.155 NA 
HETATM   17  H   UNK A   1      -9.113  10.754  68.135  1.00  0.00     0.000 HD 
BRANCH  16  18
HETATM   18  C   UNK A   0     -10.799  11.300  67.032  1.00  0.00    -0.280 C  
BRANCH  18  19
HETATM   19  C   UNK A   0     -11.722  12.411  67.531  1.00  0.00    -0.425 C  
BRANCH  19  20
HETATM   20  C   UNK A   0     -11.321  13.015  68.886  1.00  0.00    -0.333 C  
BRANCH  20  21
HETATM   21  C   UNK A   0     -10.713  14.369  68.612  1.00  0.00    -0.258 A  
HETATM   22  C   UNK A   0      -9.321  14.525  68.571  1.00  0.00    -0.203 A  
HETATM   23  C   UNK A   0     -11.536  15.435  68.220  1.00  0.00    -0.362 A  
HETATM   24  C   UNK A   0      -8.760  15.708  68.094  1.00  0.00    -0.168 A  
HETATM   25  C   UNK A   0     -10.971  16.618  67.747  1.00  0.00    -0.234 A  
HETATM   26  C   UNK A   0      -9.586  16.747  67.668  1.00  0.00    -0.244 A  
ENDBRANCH  20  21
ENDBRANCH  19  20
ENDBRANCH  18  19
BRANCH  18  27
HETATM   27  C   UNK A   0      -9.739  11.859  66.063  1.00  0.00    -0.237 C  
HETATM   28  O   UNK A   0      -8.565  11.520  66.018  1.00  0.00    -0.148 OA 
BRANCH  27  29
HETATM   29  O   UNK A   0     -10.321  12.794  65.251  1.00  0.00    -0.288 OA 
BRANCH  29  30
HETATM   30  C   UNK A   0     -10.615  12.374  63.909  1.00  0.00    -0.437 C  
HETATM   31  C   UNK A   0     -12.076  12.614  63.573  1.00  0.00    -0.648 C  
ENDBRANCH  29  30
ENDBRANCH  27  29
ENDBRANCH  18  27
ENDBRANCH  16  18
ENDBRANCH  14  16
ENDBRANCH   7  14
TORSDOF 9
ENDMDL
MODEL      121
REMARK 921   NORMALIZED FREE ENERGY PREDICTED BY IDOCK:   -4.85 KCAL/MOL
REMARK 922        TOTAL FREE ENERGY PREDICTED BY IDOCK:   -9.03 KCAL/MOL
REMARK 923 INTER-LIGAND FREE ENERGY PREDICTED BY IDOCK:   -7.69 KCAL/MOL
REMARK 924 INTRA-LIGAND FREE ENERGY PREDICTED BY IDOCK:   -1.34 KCAL/MOL
REMARK 927      BINDING AFFINITY PREDICTED BY RF-SCORE:    0.00 PKD
ROOT
HETATM    1  C   UNK A   1     -10.975   8.575  72.345  1.00  0.00    -0.390 C  
HETATM    2  C   UNK A   1     -12.408   8.012  72.413  1.00  0.00    -0.299 C  
HETATM    3  C   UNK A   1     -13.258   8.915  71.529  1.00  0.00    -0.375 C  
HETATM    4  C   UNK A   1     -12.427  10.178  71.374  1.00  0.00    -0.524 C  
HETATM    5  C   UNK A   1     -10.993   9.668  71.262  1.00  0.00    -0.329 C  
HETATM    6  N   UNK A   1     -10.612   8.963  70.028  1.00  0.00    -0.215 N  
HETATM    7  C   UNK A   1     -10.367   9.537  68.781  1.00  0.00    -0.208 C  
HETATM    8  C   UNK A   1      -9.891   7.700  70.355  1.00  0.00    -0.183 C  
HETATM    9  C   UNK A   1     -10.417   6.386  69.743  1.00  0.00    -0.215 C  
HETATM   10  C   UNK A   1      -9.925   7.579  71.884  1.00  0.00    -0.204 C  
HETATM   11  O   UNK A   1      -9.839   8.840  67.906  1.00  0.00    -0.156 OA 
HETATM   12  O   UNK A   1     -11.508   6.542  68.956  1.00  0.00    -0.283 OA 
HETATM   13  O   UNK A   1      -9.935   5.292  69.972  1.00  0.00    -0.201 OA 
ENDROOT
BRANCH   7  14
HETATM   14  C   UNK A   1     -10.799  10.994  68.457  1.00  0.00    -0.213 C  
HETATM   15  C   UNK A   1     -11.034  11.137  66.945  1.00  0.00    -0.333 C  
BRANCH  14  16
HETATM   16  N   UNK A   1      -9.765  11.944  68.934  1.00  0.00    -0.413 NA 
HETATM   17  H   UNK A   1      -9.058  11.460  69.488  1.00  0.00     0.000 HD 
BRANCH  16  18
HETATM   18  C   UNK A   0      -9.128  12.732  67.834  1.00  0.00    -0.204 C  
BRANCH  18  19
HETATM   19  C   UNK A   0      -9.465  14.217  67.976  1.00  0.00    -0.213 C  
BRANCH  19  20
HETATM   20  C   UNK A   0      -8.998  15.093  66.804  1.00  0.00    -0.293 C  
BRANCH  20  21
HETATM   21  C   UNK A   0      -9.354  16.521  67.140  1.00  0.00    -0.242 A  
HETATM   22  C   UNK A   0     -10.348  16.798  68.088  1.00  0.00    -0.318 A  
HETATM   23  C   UNK A   0      -8.569  17.570  66.641  1.00  0.00    -0.284 A  
HETATM   24  C   UNK A   0     -10.519  18.095  68.569  1.00  0.00    -0.267 A  
HETATM   25  C   UNK A   0      -8.744  18.866  67.122  1.00  0.00    -0.298 A  
HETATM   26  C   UNK A   0      -9.705  19.124  68.097  1.00  0.00    -0.429 A  
ENDBRANCH  20  21
ENDBRANCH  19  20
ENDBRANCH  18  19
BRANCH  18  27
HETATM   27  C   UNK A   0      -7.602  12.510  67.853  1.00  0.00    -0.133 C  
HETATM   28  O   UNK A   0      -6.932  12.089  66.921  1.00  0.00    -0.122 OA 
BRANCH  27  29
HETATM   29  O   UNK A   0      -7.111  12.868  69.079  1.00  0.00    -0.093 OA 
BRANCH  29  30
HETATM   30  C   UNK A   0      -6.031  13.814  69.079  1.00  0.00    -0.083 C  
HETATM   31  C   UNK A   0      -6.425  15.087  69.807  1.00  0.00    -0.163 C  
ENDBRANCH  29  30
ENDBRANCH  27  29
ENDBRANCH  18  27
ENDBRANCH  16  18
ENDBRANCH  14  16
ENDBRANCH   7  14
TORSDOF 9
ENDMDL
MODEL      122
REMARK 921   NORMALIZED FREE ENERGY PREDICTED BY IDOCK:   -4.84 KCAL/MOL
REMARK 922        TOTAL FREE ENERGY PREDICTED BY IDOCK:   -9.02 KCAL/MOL
REMARK 923 INTER-LIGAND FREE ENERGY PREDICTED BY IDOCK:   -8.05 KCAL/MOL
REMARK 924 INTRA-LIGAND FREE ENERGY PREDICTED BY IDOCK:   -0.97 KCAL/MOL
REMARK 927      BINDING AFFINITY PREDICTED BY RF-SCORE:    0.00 PKD
ROOT
HETATM    1  C   UNK A   1      -9.657   9.084  65.871  1.00  0.00    -0.317 C  
HETATM    2  C   UNK A   1      -8.173   9.405  66.135  1.00  0.00    -0.111 C  
HETATM    3  C   UNK A   1      -8.000  10.884  65.819  1.00  0.00    -0.075 C  
HETATM    4  C   UNK A   1      -9.212  11.232  64.973  1.00  0.00    -0.147 C  
HETATM    5  C   UNK A   1     -10.348  10.432  65.604  1.00  0.00    -0.190 C  
HETATM    6  N   UNK A   1     -10.833  10.859  66.926  1.00  0.00    -0.266 N  
HETATM    7  C   UNK A   1     -11.633  11.967  67.204  1.00  0.00    -0.316 C  
HETATM    8  C   UNK A   1     -10.943   9.687  67.841  1.00  0.00    -0.145 C  
HETATM    9  C   UNK A   1     -10.222   9.759  69.202  1.00  0.00    -0.199 C  
HETATM   10  C   UNK A   1     -10.396   8.488  67.057  1.00  0.00    -0.379 C  
HETATM   11  O   UNK A   1     -12.139  12.061  68.329  1.00  0.00    -0.447 OA 
HETATM   12  O   UNK A   1      -9.553  10.917  69.411  1.00  0.00    -0.114 OA 
HETATM   13  O   UNK A   1     -10.209   8.849  70.010  1.00  0.00    -0.187 OA 
ENDROOT
BRANCH   7  14
HETATM   14  C   UNK A   1     -11.843  13.100  66.161  1.00  0.00    -0.401 C  
HETATM   15  C   UNK A   1     -12.443  12.510  64.874  1.00  0.00    -0.524 C  
BRANCH  14  16
HETATM   16  N   UNK A   1     -10.553  13.781  65.892  1.00  0.00    -0.284 NA 
HETATM   17  H   UNK A   1     -10.642  14.423  65.105  1.00  0.00     0.000 HD 
BRANCH  16  18
HETATM   18  C   UNK A   0      -9.989  14.482  67.087  1.00  0.00    -0.252 C  
BRANCH  18  19
HETATM   19  C   UNK A   0      -8.598  15.034  66.775  1.00  0.00    -0.279 C  
BRANCH  19  20
HETATM   20  C   UNK A   0      -7.831  15.560  67.998  1.00  0.00    -0.132 C  
BRANCH  20  21
HETATM   21  C   UNK A   0      -7.263  16.909  67.626  1.00  0.00    -0.161 A  
HETATM   22  C   UNK A   0      -7.210  17.309  66.284  1.00  0.00    -0.335 A  
HETATM   23  C   UNK A   0      -6.956  17.837  68.632  1.00  0.00    -0.247 A  
HETATM   24  C   UNK A   0      -6.907  18.629  65.955  1.00  0.00    -0.296 A  
HETATM   25  C   UNK A   0      -6.650  19.155  68.300  1.00  0.00    -0.269 A  
HETATM   26  C   UNK A   0      -6.643  19.554  66.966  1.00  0.00    -0.206 A  
ENDBRANCH  20  21
ENDBRANCH  19  20
ENDBRANCH  18  19
BRANCH  18  27
HETATM   27  C   UNK A   0     -10.943  15.611  67.525  1.00  0.00    -0.309 C  
HETATM   28  O   UNK A   0     -11.776  15.534  68.417  1.00  0.00    -0.365 OA 
BRANCH  27  29
HETATM   29  O   UNK A   0     -10.706  16.721  66.761  1.00  0.00    -0.242 OA 
BRANCH  29  30
HETATM   30  C   UNK A   0     -10.749  17.983  67.445  1.00  0.00    -0.318 C  
HETATM   31  C   UNK A   0     -10.527  19.133  66.478  1.00  0.00    -0.534 C  
ENDBRANCH  29  30
ENDBRANCH  27  29
ENDBRANCH  18  27
ENDBRANCH  16  18
ENDBRANCH  14  16
ENDBRANCH   7  14
TORSDOF 9
ENDMDL
MODEL      123
REMARK 921   NORMALIZED FREE ENERGY PREDICTED BY IDOCK:   -4.81 KCAL/MOL
REMARK 922        TOTAL FREE ENERGY PREDICTED BY IDOCK:   -8.97 KCAL/MOL
REMARK 923 INTER-LIGAND FREE ENERGY PREDICTED BY IDOCK:   -7.08 KCAL/MOL
REMARK 924 INTRA-LIGAND FREE ENERGY PREDICTED BY IDOCK:   -1.89 KCAL/MOL
REMARK 927      BINDING AFFINITY PREDICTED BY RF-SCORE:    0.00 PKD
ROOT
HETATM    1  C   UNK A   1     -11.161  13.537  69.885  1.00  0.00     0.008 C  
HETATM    2  C   UNK A   1     -12.648  13.888  70.090  1.00  0.00    -0.285 C  
HETATM    3  C   UNK A   1     -12.735  15.407  70.028  1.00  0.00    -0.189 C  
HETATM    4  C   UNK A   1     -11.308  15.874  70.256  1.00  0.00    -0.381 C  
HETATM    5  C   UNK A   1     -10.458  14.852  69.507  1.00  0.00    -0.201 C  
HETATM    6  N   UNK A   1     -10.498  14.875  68.037  1.00  0.00    -0.243 N  
HETATM    7  C   UNK A   1      -9.883  15.806  67.199  1.00  0.00    -0.226 C  
HETATM    8  C   UNK A   1     -10.695  13.497  67.502  1.00  0.00    -0.259 C  
HETATM    9  C   UNK A   1     -11.862  13.259  66.524  1.00  0.00    -0.398 C  
HETATM   10  C   UNK A   1     -10.887  12.594  68.727  1.00  0.00    -0.267 C  
HETATM   11  O   UNK A   1      -9.823  15.559  65.988  1.00  0.00    -0.284 OA 
HETATM   12  O   UNK A   1     -12.594  14.367  66.257  1.00  0.00    -0.355 OA 
HETATM   13  O   UNK A   1     -12.143  12.170  66.057  1.00  0.00    -0.612 OA 
ENDROOT
BRANCH   7  14
HETATM   14  C   UNK A   1      -9.341  17.155  67.744  1.00  0.00    -0.245 C  
HETATM   15  C   UNK A   1      -9.142  18.139  66.579  1.00  0.00    -0.287 C  
BRANCH  14  16
HETATM   16  N   UNK A   1      -8.072  16.928  68.479  1.00  0.00    -0.234 NA 
HETATM   17  H   UNK A   1      -8.256  16.728  69.462  1.00  0.00     0.000 HD 
BRANCH  16  18
HETATM   18  C   UNK A   0      -7.215  15.863  67.873  1.00  0.00    -0.136 C  
BRANCH  18  19
HETATM   19  C   UNK A   0      -5.952  16.473  67.266  1.00  0.00    -0.200 C  
BRANCH  19  20
HETATM   20  C   UNK A   0      -5.515  17.801  67.903  1.00  0.00    -0.137 C  
BRANCH  20  21
HETATM   21  C   UNK A   0      -5.567  18.855  66.824  1.00  0.00    -0.161 A  
HETATM   22  C   UNK A   0      -5.604  18.485  65.473  1.00  0.00    -0.228 A  
HETATM   23  C   UNK A   0      -5.762  20.200  67.173  1.00  0.00    -0.186 A  
HETATM   24  C   UNK A   0      -5.884  19.434  64.491  1.00  0.00    -0.314 A  
HETATM   25  C   UNK A   0      -6.039  21.146  66.189  1.00  0.00    -0.309 A  
HETATM   26  C   UNK A   0      -6.117  20.761  64.853  1.00  0.00    -0.310 A  
ENDBRANCH  20  21
ENDBRANCH  19  20
ENDBRANCH  18  19
BRANCH  18  27
HETATM   27  C   UNK A   0      -6.860  14.811  68.943  1.00  0.00    -0.105 C  
HETATM   28  O   UNK A   0      -6.185  15.012  69.942  1.00  0.00    -0.134 OA 
BRANCH  27  29
HETATM   29  O   UNK A   0      -7.427  13.614  68.602  1.00  0.00    -0.113 OA 
BRANCH  29  30
HETATM   30  C   UNK A   0      -6.769  12.873  67.562  1.00  0.00    -0.154 C  
HETATM   31  C   UNK A   0      -7.513  11.585  67.259  1.00  0.00    -0.139 C  
ENDBRANCH  29  30
ENDBRANCH  27  29
ENDBRANCH  18  27
ENDBRANCH  16  18
ENDBRANCH  14  16
ENDBRANCH   7  14
TORSDOF 9
ENDMDL
MODEL      124
REMARK 921   NORMALIZED FREE ENERGY PREDICTED BY IDOCK:   -4.81 KCAL/MOL
REMARK 922        TOTAL FREE ENERGY PREDICTED BY IDOCK:   -8.97 KCAL/MOL
REMARK 923 INTER-LIGAND FREE ENERGY PREDICTED BY IDOCK:   -7.11 KCAL/MOL
REMARK 924 INTRA-LIGAND FREE ENERGY PREDICTED BY IDOCK:   -1.86 KCAL/MOL
REMARK 927      BINDING AFFINITY PREDICTED BY RF-SCORE:    0.00 PKD
ROOT
HETATM    1  C   UNK A   1     -10.024   8.593  72.115  1.00  0.00    -0.386 C  
HETATM    2  C   UNK A   1     -10.786   7.422  72.766  1.00  0.00    -0.374 C  
HETATM    3  C   UNK A   1     -11.721   6.879  71.693  1.00  0.00    -0.343 C  
HETATM    4  C   UNK A   1     -11.805   7.997  70.668  1.00  0.00    -0.102 C  
HETATM    5  C   UNK A   1     -10.390   8.567  70.621  1.00  0.00    -0.199 C  
HETATM    6  N   UNK A   1      -9.341   7.740  70.005  1.00  0.00    -0.157 N  
HETATM    7  C   UNK A   1      -9.153   7.509  68.642  1.00  0.00    -0.134 C  
HETATM    8  C   UNK A   1      -8.135   7.697  70.880  1.00  0.00    -0.103 C  
HETATM    9  C   UNK A   1      -7.578   6.316  71.279  1.00  0.00    -0.094 C  
HETATM   10  C   UNK A   1      -8.511   8.463  72.155  1.00  0.00    -0.245 C  
HETATM   11  O   UNK A   1      -8.097   6.979  68.275  1.00  0.00    -0.120 OA 
HETATM   12  O   UNK A   1      -8.273   5.272  70.770  1.00  0.00    -0.105 OA 
HETATM   13  O   UNK A   1      -6.625   6.159  72.021  1.00  0.00    -0.056 OA 
ENDROOT
BRANCH   7  14
HETATM   14  C   UNK A   1     -10.258   7.840  67.602  1.00  0.00    -0.219 C  
HETATM   15  C   UNK A   1     -11.007   6.553  67.219  1.00  0.00    -0.475 C  
BRANCH  14  16
HETATM   16  N   UNK A   1      -9.652   8.486  66.412  1.00  0.00    -0.231 NA 
HETATM   17  H   UNK A   1     -10.095   8.152  65.556  1.00  0.00     0.000 HD 
BRANCH  16  18
HETATM   18  C   UNK A   0      -9.671   9.980  66.470  1.00  0.00    -0.200 C  
BRANCH  18  19
HETATM   19  C   UNK A   0     -10.792  10.465  67.389  1.00  0.00    -0.344 C  
BRANCH  19  20
HETATM   20  C   UNK A   0     -11.349  11.853  67.041  1.00  0.00    -0.392 C  
BRANCH  20  21
HETATM   21  C   UNK A   0     -11.851  12.472  68.323  1.00  0.00    -0.361 A  
HETATM   22  C   UNK A   0     -12.111  11.669  69.442  1.00  0.00    -0.328 A  
HETATM   23  C   UNK A   0     -11.885  13.868  68.457  1.00  0.00    -0.401 A  
HETATM   24  C   UNK A   0     -12.348  12.251  70.686  1.00  0.00    -0.375 A  
HETATM   25  C   UNK A   0     -12.126  14.447  69.701  1.00  0.00    -0.381 A  
HETATM   26  C   UNK A   0     -12.339  13.640  70.816  1.00  0.00    -0.446 A  
ENDBRANCH  20  21
ENDBRANCH  19  20
ENDBRANCH  18  19
BRANCH  18  27
HETATM   27  C   UNK A   0      -8.302  10.498  66.951  1.00  0.00    -0.126 C  
HETATM   28  O   UNK A   0      -7.995  10.729  68.112  1.00  0.00    -0.107 OA 
BRANCH  27  29
HETATM   29  O   UNK A   0      -7.475  10.653  65.872  1.00  0.00    -0.145 OA 
BRANCH  29  30
HETATM   30  C   UNK A   0      -6.065  10.601  66.139  1.00  0.00    -0.121 C  
HETATM   31  C   UNK A   0      -5.402   9.491  65.344  1.00  0.00    -0.043 C  
ENDBRANCH  29  30
ENDBRANCH  27  29
ENDBRANCH  18  27
ENDBRANCH  16  18
ENDBRANCH  14  16
ENDBRANCH   7  14
TORSDOF 9
ENDMDL
MODEL      125
REMARK 921   NORMALIZED FREE ENERGY PREDICTED BY IDOCK:   -4.79 KCAL/MOL
REMARK 922        TOTAL FREE ENERGY PREDICTED BY IDOCK:   -8.95 KCAL/MOL
REMARK 923 INTER-LIGAND FREE ENERGY PREDICTED BY IDOCK:   -8.17 KCAL/MOL
REMARK 924 INTRA-LIGAND FREE ENERGY PREDICTED BY IDOCK:   -0.77 KCAL/MOL
REMARK 927      BINDING AFFINITY PREDICTED BY RF-SCORE:    0.00 PKD
ROOT
HETATM    1  C   UNK A   1      -8.836  10.209  67.653  1.00  0.00    -0.125 C  
HETATM    2  C   UNK A   1      -7.650  10.066  68.627  1.00  0.00    -0.088 C  
HETATM    3  C   UNK A   1      -7.496  11.421  69.305  1.00  0.00    -0.005 C  
HETATM    4  C   UNK A   1      -8.248  12.381  68.400  1.00  0.00    -0.144 C  
HETATM    5  C   UNK A   1      -9.465  11.583  67.940  1.00  0.00    -0.178 C  
HETATM    6  N   UNK A   1     -10.512  11.302  68.934  1.00  0.00    -0.207 N  
HETATM    7  C   UNK A   1     -11.454  12.202  69.433  1.00  0.00    -0.290 C  
HETATM    8  C   UNK A   1     -10.899   9.863  68.885  1.00  0.00    -0.210 C  
HETATM    9  C   UNK A   1     -10.851   9.054  70.197  1.00  0.00    -0.237 C  
HETATM   10  C   UNK A   1      -9.957   9.207  67.868  1.00  0.00    -0.228 C  
HETATM   11  O   UNK A   1     -12.404  11.758  70.088  1.00  0.00    -0.262 OA 
HETATM   12  O   UNK A   1     -10.449   9.772  71.273  1.00  0.00    -0.241 OA 
HETATM   13  O   UNK A   1     -11.104   7.866  70.270  1.00  0.00    -0.257 OA 
ENDROOT
BRANCH   7  14
HETATM   14  C   UNK A   1     -11.295  13.735  69.237  1.00  0.00    -0.273 C  
HETATM   15  C   UNK A   1     -11.416  14.442  70.597  1.00  0.00    -0.170 C  
BRANCH  14  16
HETATM   16  N   UNK A   1     -12.316  14.229  68.280  1.00  0.00    -0.580 NA 
HETATM   17  H   UNK A   1     -12.750  15.085  68.626  1.00  0.00     0.000 HD 
BRANCH  16  18
HETATM   18  C   UNK A   0     -11.788  14.424  66.895  1.00  0.00    -0.410 C  
BRANCH  18  19
HETATM   19  C   UNK A   0     -10.410  15.084  66.935  1.00  0.00    -0.266 C  
BRANCH  19  20
HETATM   20  C   UNK A   0     -10.362  16.416  67.698  1.00  0.00    -0.284 C  
BRANCH  20  21
HETATM   21  C   UNK A   0      -8.948  16.936  67.607  1.00  0.00    -0.219 A  
HETATM   22  C   UNK A   0      -8.243  16.863  66.398  1.00  0.00    -0.342 A  
HETATM   23  C   UNK A   0      -8.400  17.658  68.678  1.00  0.00    -0.267 A  
HETATM   24  C   UNK A   0      -7.037  17.543  66.243  1.00  0.00    -0.340 A  
HETATM   25  C   UNK A   0      -7.192  18.335  68.521  1.00  0.00    -0.293 A  
HETATM   26  C   UNK A   0      -6.521  18.292  67.301  1.00  0.00    -0.191 A  
ENDBRANCH  20  21
ENDBRANCH  19  20
ENDBRANCH  18  19
BRANCH  18  27
HETATM   27  C   UNK A   0     -11.727  13.066  66.167  1.00  0.00    -0.394 C  
HETATM   28  O   UNK A   0     -12.259  12.031  66.542  1.00  0.00    -0.548 OA 
BRANCH  27  29
HETATM   29  O   UNK A   0     -10.987  13.203  65.024  1.00  0.00    -0.286 OA 
BRANCH  29  30
HETATM   30  C   UNK A   0     -11.167  12.185  64.026  1.00  0.00    -0.390 C  
HETATM   31  C   UNK A   0     -12.477  12.380  63.283  1.00  0.00    -0.449 C  
ENDBRANCH  29  30
ENDBRANCH  27  29
ENDBRANCH  18  27
ENDBRANCH  16  18
ENDBRANCH  14  16
ENDBRANCH   7  14
TORSDOF 9
ENDMDL
MODEL      126
REMARK 921   NORMALIZED FREE ENERGY PREDICTED BY IDOCK:   -4.79 KCAL/MOL
REMARK 922        TOTAL FREE ENERGY PREDICTED BY IDOCK:   -8.94 KCAL/MOL
REMARK 923 INTER-LIGAND FREE ENERGY PREDICTED BY IDOCK:   -7.53 KCAL/MOL
REMARK 924 INTRA-LIGAND FREE ENERGY PREDICTED BY IDOCK:   -1.41 KCAL/MOL
REMARK 927      BINDING AFFINITY PREDICTED BY RF-SCORE:    0.00 PKD
ROOT
HETATM    1  C   UNK A   1     -10.899  14.221  67.957  1.00  0.00    -0.247 C  
HETATM    2  C   UNK A   1     -10.009  15.052  67.012  1.00  0.00    -0.242 C  
HETATM    3  C   UNK A   1      -8.651  14.363  66.998  1.00  0.00    -0.226 C  
HETATM    4  C   UNK A   1      -8.663  13.485  68.237  1.00  0.00    -0.172 C  
HETATM    5  C   UNK A   1     -10.094  12.958  68.306  1.00  0.00    -0.242 C  
HETATM    6  N   UNK A   1     -10.508  11.973  67.296  1.00  0.00    -0.215 N  
HETATM    7  C   UNK A   1     -10.153  10.625  67.249  1.00  0.00    -0.199 C  
HETATM    8  C   UNK A   1     -11.824  12.355  66.709  1.00  0.00    -0.315 C  
HETATM    9  C   UNK A   1     -11.928  12.469  65.175  1.00  0.00    -0.434 C  
HETATM   10  C   UNK A   1     -12.185  13.711  67.330  1.00  0.00    -0.317 C  
HETATM   11  O   UNK A   1     -10.762   9.881  66.470  1.00  0.00    -0.130 OA 
HETATM   12  O   UNK A   1     -10.774  12.200  64.522  1.00  0.00    -0.279 OA 
HETATM   13  O   UNK A   1     -12.939  12.813  64.589  1.00  0.00    -0.742 OA 
ENDROOT
BRANCH   7  14
HETATM   14  C   UNK A   1      -8.978  10.064  68.098  1.00  0.00    -0.122 C  
HETATM   15  C   UNK A   1      -7.644  10.381  67.403  1.00  0.00    -0.094 C  
BRANCH  14  16
HETATM   16  N   UNK A   1      -9.150   8.604  68.293  1.00  0.00    -0.141 NA 
HETATM   17  H   UNK A   1      -8.374   8.090  67.877  1.00  0.00     0.000 HD 
BRANCH  16  18
HETATM   18  C   UNK A   0      -9.337   8.212  69.725  1.00  0.00    -0.159 C  
BRANCH  18  19
HETATM   19  C   UNK A   0      -8.767   9.286  70.652  1.00  0.00    -0.282 C  
BRANCH  19  20
HETATM   20  C   UNK A   0      -7.595   8.817  71.526  1.00  0.00    -0.130 C  
BRANCH  20  21
HETATM   21  C   UNK A   0      -8.127   7.759  72.462  1.00  0.00    -0.156 A  
HETATM   22  C   UNK A   0      -9.246   8.020  73.263  1.00  0.00    -0.347 A  
HETATM   23  C   UNK A   0      -7.617   6.453  72.400  1.00  0.00    -0.097 A  
HETATM   24  C   UNK A   0      -9.878   6.985  73.949  1.00  0.00    -0.354 A  
HETATM   25  C   UNK A   0      -8.249   5.421  73.090  1.00  0.00    -0.115 A  
HETATM   26  C   UNK A   0      -9.387   5.683  73.848  1.00  0.00    -0.134 A  
ENDBRANCH  20  21
ENDBRANCH  19  20
ENDBRANCH  18  19
BRANCH  18  27
HETATM   27  C   UNK A   0     -10.835   7.980  70.007  1.00  0.00    -0.235 C  
HETATM   28  O   UNK A   0     -11.454   6.952  69.774  1.00  0.00    -0.259 OA 
BRANCH  27  29
HETATM   29  O   UNK A   0     -11.365   9.109  70.571  1.00  0.00    -0.261 OA 
BRANCH  29  30
HETATM   30  C   UNK A   0     -12.462   8.910  71.477  1.00  0.00    -0.324 C  
HETATM   31  C   UNK A   0     -13.118  10.232  71.834  1.00  0.00    -0.568 C  
ENDBRANCH  29  30
ENDBRANCH  27  29
ENDBRANCH  18  27
ENDBRANCH  16  18
ENDBRANCH  14  16
ENDBRANCH   7  14
TORSDOF 9
ENDMDL
MODEL      127
REMARK 921   NORMALIZED FREE ENERGY PREDICTED BY IDOCK:   -4.78 KCAL/MOL
REMARK 922        TOTAL FREE ENERGY PREDICTED BY IDOCK:   -8.93 KCAL/MOL
REMARK 923 INTER-LIGAND FREE ENERGY PREDICTED BY IDOCK:   -8.06 KCAL/MOL
REMARK 924 INTRA-LIGAND FREE ENERGY PREDICTED BY IDOCK:   -0.87 KCAL/MOL
REMARK 927      BINDING AFFINITY PREDICTED BY RF-SCORE:    0.00 PKD
ROOT
HETATM    1  C   UNK A   1     -12.617  14.155  65.458  1.00  0.00    -0.501 C  
HETATM    2  C   UNK A   1     -12.379  15.035  64.215  1.00  0.00    -0.247 C  
HETATM    3  C   UNK A   1     -11.169  15.902  64.538  1.00  0.00    -0.324 C  
HETATM    4  C   UNK A   1     -11.052  15.835  66.051  1.00  0.00    -0.085 C  
HETATM    5  C   UNK A   1     -11.415  14.392  66.389  1.00  0.00    -0.360 C  
HETATM    6  N   UNK A   1     -10.456  13.341  66.017  1.00  0.00    -0.281 N  
HETATM    7  C   UNK A   1      -9.249  13.049  66.653  1.00  0.00    -0.219 C  
HETATM    8  C   UNK A   1     -11.157  12.219  65.330  1.00  0.00    -0.316 C  
HETATM    9  C   UNK A   1     -10.635  11.776  63.949  1.00  0.00    -0.393 C  
HETATM   10  C   UNK A   1     -12.619  12.661  65.186  1.00  0.00    -0.459 C  
HETATM   11  O   UNK A   1      -8.669  11.996  66.360  1.00  0.00    -0.176 OA 
HETATM   12  O   UNK A   1      -9.567  12.482  63.510  1.00  0.00    -0.171 OA 
HETATM   13  O   UNK A   1     -11.153  10.901  63.278  1.00  0.00     0.062 OA 
ENDROOT
BRANCH   7  14
HETATM   14  C   UNK A   1      -8.600  14.040  67.658  1.00  0.00    -0.188 C  
HETATM   15  C   UNK A   1      -9.620  14.413  68.745  1.00  0.00    -0.177 C  
BRANCH  14  16
HETATM   16  N   UNK A   1      -8.116  15.243  66.937  1.00  0.00    -0.257 NA 
HETATM   17  H   UNK A   1      -8.771  16.016  67.046  1.00  0.00     0.000 HD 
BRANCH  16  18
HETATM   18  C   UNK A   0      -6.735  15.659  67.332  1.00  0.00    -0.183 C  
BRANCH  18  19
HETATM   19  C   UNK A   0      -6.788  16.849  68.290  1.00  0.00    -0.164 C  
BRANCH  19  20
HETATM   20  C   UNK A   0      -6.654  18.221  67.613  1.00  0.00    -0.201 C  
BRANCH  20  21
HETATM   21  C   UNK A   0      -8.041  18.804  67.501  1.00  0.00    -0.273 A  
HETATM   22  C   UNK A   0      -8.493  19.328  66.282  1.00  0.00    -0.328 A  
HETATM   23  C   UNK A   0      -8.946  18.660  68.563  1.00  0.00    -0.364 A  
HETATM   24  C   UNK A   0      -9.837  19.652  66.110  1.00  0.00    -0.523 A  
HETATM   25  C   UNK A   0     -10.289  18.988  68.389  1.00  0.00    -0.382 A  
HETATM   26  C   UNK A   0     -10.737  19.466  67.160  1.00  0.00    -0.593 A  
ENDBRANCH  20  21
ENDBRANCH  19  20
ENDBRANCH  18  19
BRANCH  18  27
HETATM   27  C   UNK A   0      -5.998  14.467  67.975  1.00  0.00    -0.148 C  
HETATM   28  O   UNK A   0      -5.613  13.466  67.387  1.00  0.00    -0.346 OA 
BRANCH  27  29
HETATM   29  O   UNK A   0      -5.834  14.708  69.311  1.00  0.00    -0.097 OA 
BRANCH  29  30
HETATM   30  C   UNK A   0      -5.969  13.575  70.182  1.00  0.00    -0.145 C  
HETATM   31  C   UNK A   0      -5.658  13.954  71.619  1.00  0.00    -0.227 C  
ENDBRANCH  29  30
ENDBRANCH  27  29
ENDBRANCH  18  27
ENDBRANCH  16  18
ENDBRANCH  14  16
ENDBRANCH   7  14
TORSDOF 9
ENDMDL
MODEL      128
REMARK 921   NORMALIZED FREE ENERGY PREDICTED BY IDOCK:   -4.74 KCAL/MOL
REMARK 922        TOTAL FREE ENERGY PREDICTED BY IDOCK:   -8.87 KCAL/MOL
REMARK 923 INTER-LIGAND FREE ENERGY PREDICTED BY IDOCK:   -7.46 KCAL/MOL
REMARK 924 INTRA-LIGAND FREE ENERGY PREDICTED BY IDOCK:   -1.41 KCAL/MOL
REMARK 927      BINDING AFFINITY PREDICTED BY RF-SCORE:    0.00 PKD
ROOT
HETATM    1  C   UNK A   1      -7.209   7.766  66.072  1.00  0.00    -0.073 C  
HETATM    2  C   UNK A   1      -6.726   7.280  67.452  1.00  0.00    -0.068 C  
HETATM    3  C   UNK A   1      -6.440   8.536  68.265  1.00  0.00    -0.060 C  
HETATM    4  C   UNK A   1      -6.316   9.636  67.225  1.00  0.00    -0.068 C  
HETATM    5  C   UNK A   1      -7.382   9.290  66.189  1.00  0.00    -0.095 C  
HETATM    6  N   UNK A   1      -8.791   9.466  66.574  1.00  0.00    -0.133 N  
HETATM    7  C   UNK A   1      -9.481  10.673  66.690  1.00  0.00    -0.167 C  
HETATM    8  C   UNK A   1      -9.583   8.258  66.208  1.00  0.00    -0.196 C  
HETATM    9  C   UNK A   1     -10.417   7.576  67.311  1.00  0.00    -0.321 C  
HETATM   10  C   UNK A   1      -8.573   7.243  65.657  1.00  0.00    -0.123 C  
HETATM   11  O   UNK A   1     -10.712  10.640  66.801  1.00  0.00    -0.250 OA 
HETATM   12  O   UNK A   1     -10.329   8.177  68.521  1.00  0.00    -0.205 OA 
HETATM   13  O   UNK A   1     -11.069   6.562  67.138  1.00  0.00    -0.390 OA 
ENDROOT
BRANCH   7  14
HETATM   14  C   UNK A   1      -8.733  12.034  66.747  1.00  0.00    -0.192 C  
HETATM   15  C   UNK A   1      -8.559  12.464  68.213  1.00  0.00    -0.172 C  
BRANCH  14  16
HETATM   16  N   UNK A   1      -9.481  13.053  65.971  1.00  0.00    -0.454 NA 
HETATM   17  H   UNK A   1     -10.300  12.638  65.526  1.00  0.00     0.000 HD 
BRANCH  16  18
HETATM   18  C   UNK A   0      -9.867  14.251  66.779  1.00  0.00    -0.270 C  
BRANCH  18  19
HETATM   19  C   UNK A   0      -9.285  15.523  66.160  1.00  0.00    -0.379 C  
BRANCH  19  20
HETATM   20  C   UNK A   0      -7.918  15.940  66.723  1.00  0.00    -0.287 C  
BRANCH  20  21
HETATM   21  C   UNK A   0      -7.786  17.430  66.525  1.00  0.00    -0.319 A  
HETATM   22  C   UNK A   0      -6.696  17.956  65.818  1.00  0.00    -0.262 A  
HETATM   23  C   UNK A   0      -8.843  18.278  66.887  1.00  0.00    -0.279 A  
HETATM   24  C   UNK A   0      -6.686  19.295  65.433  1.00  0.00    -0.293 A  
HETATM   25  C   UNK A   0      -8.829  19.618  66.503  1.00  0.00    -0.410 A  
HETATM   26  C   UNK A   0      -7.762  20.121  65.763  1.00  0.00    -0.200 A  
ENDBRANCH  20  21
ENDBRANCH  19  20
ENDBRANCH  18  19
BRANCH  18  27
HETATM   27  C   UNK A   0     -11.403  14.340  66.875  1.00  0.00    -0.343 C  
HETATM   28  O   UNK A   0     -12.182  14.259  65.936  1.00  0.00    -0.417 OA 
BRANCH  27  29
HETATM   29  O   UNK A   0     -11.761  14.514  68.184  1.00  0.00    -0.314 OA 
BRANCH  29  30
HETATM   30  C   UNK A   0     -12.026  13.319  68.934  1.00  0.00    -0.297 C  
HETATM   31  C   UNK A   0     -12.112  13.618  70.420  1.00  0.00    -0.421 C  
ENDBRANCH  29  30
ENDBRANCH  27  29
ENDBRANCH  18  27
ENDBRANCH  16  18
ENDBRANCH  14  16
ENDBRANCH   7  14
TORSDOF 9
ENDMDL
MODEL      129
REMARK 921   NORMALIZED FREE ENERGY PREDICTED BY IDOCK:   -4.74 KCAL/MOL
REMARK 922        TOTAL FREE ENERGY PREDICTED BY IDOCK:   -8.87 KCAL/MOL
REMARK 923 INTER-LIGAND FREE ENERGY PREDICTED BY IDOCK:   -7.24 KCAL/MOL
REMARK 924 INTRA-LIGAND FREE ENERGY PREDICTED BY IDOCK:   -1.63 KCAL/MOL
REMARK 927      BINDING AFFINITY PREDICTED BY RF-SCORE:    0.00 PKD
ROOT
HETATM    1  C   UNK A   1      -7.359   6.959  68.718  1.00  0.00    -0.094 C  
HETATM    2  C   UNK A   1      -6.546   6.334  69.869  1.00  0.00    -0.048 C  
HETATM    3  C   UNK A   1      -6.949   7.090  71.128  1.00  0.00    -0.062 C  
HETATM    4  C   UNK A   1      -7.585   8.368  70.611  1.00  0.00    -0.070 C  
HETATM    5  C   UNK A   1      -8.362   7.924  69.375  1.00  0.00    -0.132 C  
HETATM    6  N   UNK A   1      -9.568   7.108  69.582  1.00  0.00    -0.155 N  
HETATM    7  C   UNK A   1     -10.808   7.552  70.040  1.00  0.00    -0.249 C  
HETATM    8  C   UNK A   1      -9.557   5.927  68.672  1.00  0.00    -0.123 C  
HETATM    9  C   UNK A   1      -9.731   4.528  69.298  1.00  0.00    -0.190 C  
HETATM   10  C   UNK A   1      -8.211   5.973  67.937  1.00  0.00    -0.112 C  
HETATM   11  O   UNK A   1     -11.779   6.791  69.944  1.00  0.00    -0.306 OA 
HETATM   12  O   UNK A   1      -9.878   4.540  70.644  1.00  0.00    -0.198 OA 
HETATM   13  O   UNK A   1      -9.697   3.492  68.659  1.00  0.00    -0.128 OA 
ENDROOT
BRANCH   7  14
HETATM   14  C   UNK A   1     -10.974   8.940  70.718  1.00  0.00    -0.253 C  
HETATM   15  C   UNK A   1     -11.740   8.779  72.041  1.00  0.00    -0.442 C  
BRANCH  14  16
HETATM   16  N   UNK A   1     -11.677   9.869  69.799  1.00  0.00    -0.450 NA 
HETATM   17  H   UNK A   1     -12.196  10.572  70.324  1.00  0.00     0.000 HD 
BRANCH  16  18
HETATM   18  C   UNK A   0     -10.772  10.515  68.798  1.00  0.00    -0.216 C  
BRANCH  18  19
HETATM   19  C   UNK A   0     -11.127  10.059  67.383  1.00  0.00    -0.157 C  
BRANCH  19  20
HETATM   20  C   UNK A   0     -10.003   9.310  66.652  1.00  0.00    -0.333 C  
BRANCH  20  21
HETATM   21  C   UNK A   0      -9.708  10.070  65.382  1.00  0.00    -0.368 A  
HETATM   22  C   UNK A   0      -8.890   9.506  64.393  1.00  0.00    -0.251 A  
HETATM   23  C   UNK A   0     -10.395  11.261  65.107  1.00  0.00    -0.353 A  
HETATM   24  C   UNK A   0      -8.802  10.094  63.133  1.00  0.00    -0.232 A  
HETATM   25  C   UNK A   0     -10.302  11.848  63.846  1.00  0.00    -0.426 A  
HETATM   26  C   UNK A   0      -9.522  11.256  62.857  1.00  0.00    -0.385 A  
ENDBRANCH  20  21
ENDBRANCH  19  20
ENDBRANCH  18  19
BRANCH  18  27
HETATM   27  C   UNK A   0     -10.871  12.048  68.924  1.00  0.00    -0.211 C  
HETATM   28  O   UNK A   0     -10.070  12.854  68.470  1.00  0.00    -0.233 OA 
BRANCH  27  29
HETATM   29  O   UNK A   0     -12.004  12.370  69.619  1.00  0.00    -0.304 OA 
BRANCH  29  30
HETATM   30  C   UNK A   0     -12.270  13.771  69.787  1.00  0.00    -0.310 C  
HETATM   31  C   UNK A   0     -12.372  14.132  71.258  1.00  0.00    -0.447 C  
ENDBRANCH  29  30
ENDBRANCH  27  29
ENDBRANCH  18  27
ENDBRANCH  16  18
ENDBRANCH  14  16
ENDBRANCH   7  14
TORSDOF 9
ENDMDL
MODEL      130
REMARK 921   NORMALIZED FREE ENERGY PREDICTED BY IDOCK:   -4.72 KCAL/MOL
REMARK 922        TOTAL FREE ENERGY PREDICTED BY IDOCK:   -8.84 KCAL/MOL
REMARK 923 INTER-LIGAND FREE ENERGY PREDICTED BY IDOCK:   -7.17 KCAL/MOL
REMARK 924 INTRA-LIGAND FREE ENERGY PREDICTED BY IDOCK:   -1.67 KCAL/MOL
REMARK 927      BINDING AFFINITY PREDICTED BY RF-SCORE:    0.00 PKD
ROOT
HETATM    1  C   UNK A   1     -10.716   5.518  70.107  1.00  0.00    -0.348 C  
HETATM    2  C   UNK A   1     -10.064   4.950  71.383  1.00  0.00    -0.268 C  
HETATM    3  C   UNK A   1      -8.585   5.300  71.291  1.00  0.00    -0.132 C  
HETATM    4  C   UNK A   1      -8.365   5.618  69.822  1.00  0.00    -0.107 C  
HETATM    5  C   UNK A   1      -9.634   6.358  69.408  1.00  0.00    -0.142 C  
HETATM    6  N   UNK A   1      -9.835   7.718  69.933  1.00  0.00    -0.176 N  
HETATM    7  C   UNK A   1      -9.180   8.878  69.519  1.00  0.00    -0.150 C  
HETATM    8  C   UNK A   1     -11.217   7.866  70.471  1.00  0.00    -0.253 C  
HETATM    9  C   UNK A   1     -11.381   8.372  71.918  1.00  0.00    -0.314 C  
HETATM   10  C   UNK A   1     -11.865   6.480  70.357  1.00  0.00    -0.378 C  
HETATM   11  O   UNK A   1      -9.620   9.970  69.898  1.00  0.00    -0.226 OA 
HETATM   12  O   UNK A   1     -10.211   8.630  72.548  1.00  0.00    -0.290 OA 
HETATM   13  O   UNK A   1     -12.457   8.493  72.475  1.00  0.00    -0.383 OA 
ENDROOT
BRANCH   7  14
HETATM   14  C   UNK A   1      -7.888   8.818  68.657  1.00  0.00    -0.103 C  
HETATM   15  C   UNK A   1      -6.724   9.457  69.432  1.00  0.00    -0.048 C  
BRANCH  14  16
HETATM   16  N   UNK A   1      -8.115   9.504  67.362  1.00  0.00    -0.110 NA 
HETATM   17  H   UNK A   1      -7.236   9.624  66.859  1.00  0.00     0.000 HD 
BRANCH  16  18
HETATM   18  C   UNK A   0      -9.131   8.826  66.499  1.00  0.00    -0.162 C  
BRANCH  18  19
HETATM   19  C   UNK A   0      -9.753   9.823  65.521  1.00  0.00    -0.382 C  
BRANCH  19  20
HETATM   20  C   UNK A   0      -9.193  11.250  65.622  1.00  0.00    -0.231 C  
BRANCH  20  21
HETATM   21  C   UNK A   0     -10.360  12.200  65.495  1.00  0.00    -0.296 A  
HETATM   22  C   UNK A   0     -11.286  12.049  64.454  1.00  0.00    -0.406 A  
HETATM   23  C   UNK A   0     -10.622  13.122  66.519  1.00  0.00    -0.290 A  
HETATM   24  C   UNK A   0     -12.480  12.768  64.464  1.00  0.00    -0.501 A  
HETATM   25  C   UNK A   0     -11.815  13.842  66.524  1.00  0.00    -0.440 A  
HETATM   26  C   UNK A   0     -12.749  13.653  65.509  1.00  0.00    -0.514 A  
ENDBRANCH  20  21
ENDBRANCH  19  20
ENDBRANCH  18  19
BRANCH  18  27
HETATM   27  C   UNK A   0      -8.472   7.654  65.745  1.00  0.00    -0.144 C  
HETATM   28  O   UNK A   0      -8.462   6.487  66.110  1.00  0.00    -0.125 OA 
BRANCH  27  29
HETATM   29  O   UNK A   0      -7.904   8.124  64.592  1.00  0.00    -0.120 OA 
BRANCH  29  30
HETATM   30  C   UNK A   0      -6.473   8.038  64.509  1.00  0.00    -0.056 C  
HETATM   31  C   UNK A   0      -5.858   9.411  64.305  1.00  0.00    -0.076 C  
ENDBRANCH  29  30
ENDBRANCH  27  29
ENDBRANCH  18  27
ENDBRANCH  16  18
ENDBRANCH  14  16
ENDBRANCH   7  14
TORSDOF 9
ENDMDL
MODEL      131
REMARK 921   NORMALIZED FREE ENERGY PREDICTED BY IDOCK:   -4.72 KCAL/MOL
REMARK 922        TOTAL FREE ENERGY PREDICTED BY IDOCK:   -8.83 KCAL/MOL
REMARK 923 INTER-LIGAND FREE ENERGY PREDICTED BY IDOCK:   -7.32 KCAL/MOL
REMARK 924 INTRA-LIGAND FREE ENERGY PREDICTED BY IDOCK:   -1.51 KCAL/MOL
REMARK 927      BINDING AFFINITY PREDICTED BY RF-SCORE:    0.00 PKD
ROOT
HETATM    1  C   UNK A   1     -10.082   5.559  69.083  1.00  0.00    -0.286 C  
HETATM    2  C   UNK A   1      -9.660   4.483  70.102  1.00  0.00    -0.264 C  
HETATM    3  C   UNK A   1      -8.312   4.931  70.653  1.00  0.00    -0.102 C  
HETATM    4  C   UNK A   1      -7.809   5.943  69.638  1.00  0.00    -0.097 C  
HETATM    5  C   UNK A   1      -9.064   6.704  69.219  1.00  0.00    -0.138 C  
HETATM    6  N   UNK A   1      -9.672   7.614  70.203  1.00  0.00    -0.179 N  
HETATM    7  C   UNK A   1      -9.196   8.869  70.585  1.00  0.00    -0.213 C  
HETATM    8  C   UNK A   1     -11.143   7.387  70.279  1.00  0.00    -0.258 C  
HETATM    9  C   UNK A   1     -11.762   7.105  71.663  1.00  0.00    -0.291 C  
HETATM   10  C   UNK A   1     -11.434   6.195  69.358  1.00  0.00    -0.256 C  
HETATM   11  O   UNK A   1      -9.938   9.602  71.250  1.00  0.00    -0.186 OA 
HETATM   12  O   UNK A   1     -10.866   7.098  72.678  1.00  0.00    -0.242 OA 
HETATM   13  O   UNK A   1     -12.943   6.865  71.840  1.00  0.00    -0.325 OA 
ENDROOT
BRANCH   7  14
HETATM   14  C   UNK A   1      -7.750   9.326  70.250  1.00  0.00    -0.129 C  
HETATM   15  C   UNK A   1      -6.799   8.891  71.376  1.00  0.00    -0.086 C  
BRANCH  14  16
HETATM   16  N   UNK A   1      -7.719  10.796  70.056  1.00  0.00    -0.387 NA 
HETATM   17  H   UNK A   1      -6.898  11.202  70.505  1.00  0.00     0.000 HD 
BRANCH  16  18
HETATM   18  C   UNK A   0      -7.795  11.209  68.620  1.00  0.00    -0.138 C  
BRANCH  18  19
HETATM   19  C   UNK A   0      -9.249  11.230  68.146  1.00  0.00    -0.170 C  
BRANCH  19  20
HETATM   20  C   UNK A   0      -9.522  10.395  66.887  1.00  0.00    -0.196 C  
BRANCH  20  21
HETATM   21  C   UNK A   0     -10.216  11.294  65.893  1.00  0.00    -0.298 A  
HETATM   22  C   UNK A   0      -9.832  11.288  64.545  1.00  0.00    -0.317 A  
HETATM   23  C   UNK A   0     -11.364  12.002  66.277  1.00  0.00    -0.415 A  
HETATM   24  C   UNK A   0     -10.613  11.935  63.588  1.00  0.00    -0.500 A  
HETATM   25  C   UNK A   0     -12.141  12.650  65.318  1.00  0.00    -0.519 A  
HETATM   26  C   UNK A   0     -11.775  12.602  63.975  1.00  0.00    -0.496 A  
ENDBRANCH  20  21
ENDBRANCH  19  20
ENDBRANCH  18  19
BRANCH  18  27
HETATM   27  C   UNK A   0      -7.139  12.593  68.443  1.00  0.00    -0.101 C  
HETATM   28  O   UNK A   0      -6.302  13.086  69.186  1.00  0.00    -0.093 OA 
BRANCH  27  29
HETATM   29  O   UNK A   0      -7.635  13.184  67.313  1.00  0.00    -0.152 OA 
BRANCH  29  30
HETATM   30  C   UNK A   0      -7.894  14.594  67.395  1.00  0.00    -0.202 C  
HETATM   31  C   UNK A   0      -9.016  14.996  66.454  1.00  0.00    -0.286 C  
ENDBRANCH  29  30
ENDBRANCH  27  29
ENDBRANCH  18  27
ENDBRANCH  16  18
ENDBRANCH  14  16
ENDBRANCH   7  14
TORSDOF 9
ENDMDL
MODEL      132
REMARK 921   NORMALIZED FREE ENERGY PREDICTED BY IDOCK:   -4.71 KCAL/MOL
REMARK 922        TOTAL FREE ENERGY PREDICTED BY IDOCK:   -8.82 KCAL/MOL
REMARK 923 INTER-LIGAND FREE ENERGY PREDICTED BY IDOCK:   -7.45 KCAL/MOL
REMARK 924 INTRA-LIGAND FREE ENERGY PREDICTED BY IDOCK:   -1.37 KCAL/MOL
REMARK 927      BINDING AFFINITY PREDICTED BY RF-SCORE:    0.00 PKD
ROOT
HETATM    1  C   UNK A   1     -14.232  13.718  71.232  1.00  0.00     0.351 C  
HETATM    2  C   UNK A   1     -13.855  12.814  72.422  1.00  0.00    -0.360 C  
HETATM    3  C   UNK A   1     -12.711  11.934  71.936  1.00  0.00    -0.214 C  
HETATM    4  C   UNK A   1     -12.785  12.024  70.422  1.00  0.00     0.000 C  
HETATM    5  C   UNK A   1     -13.162  13.479  70.153  1.00  0.00     0.742 C  
HETATM    6  N   UNK A   1     -12.145  14.508  70.417  1.00  0.00    -0.301 N  
HETATM    7  C   UNK A   1     -11.023  14.792  69.638  1.00  0.00    -0.261 C  
HETATM    8  C   UNK A   1     -12.734  15.629  71.204  1.00  0.00    -0.465 C  
HETATM    9  C   UNK A   1     -12.034  16.040  72.515  1.00  0.00    -0.545 C  
HETATM   10  C   UNK A   1     -14.173  15.207  71.525  1.00  0.00    -0.647 C  
HETATM   11  O   UNK A   1     -10.392  15.830  69.870  1.00  0.00    -0.294 OA 
HETATM   12  O   UNK A   1     -10.931  15.310  72.804  1.00  0.00     0.053 OA 
HETATM   13  O   UNK A   1     -12.447  16.912  73.258  1.00  0.00    -0.041 OA 
ENDROOT
BRANCH   7  14
HETATM   14  C   UNK A   1     -10.523  13.808  68.545  1.00  0.00    -0.244 C  
HETATM   15  C   UNK A   1      -9.157  14.276  68.016  1.00  0.00    -0.191 C  
BRANCH  14  16
HETATM   16  N   UNK A   1     -11.522  13.720  67.452  1.00  0.00    -0.326 NA 
HETATM   17  H   UNK A   1     -11.707  14.641  67.057  1.00  0.00     0.000 HD 
BRANCH  16  18
HETATM   18  C   UNK A   0     -11.147  12.748  66.378  1.00  0.00    -0.285 C  
BRANCH  18  19
HETATM   19  C   UNK A   0     -11.386  11.313  66.848  1.00  0.00    -0.231 C  
BRANCH  19  20
HETATM   20  C   UNK A   0     -10.107  10.493  67.071  1.00  0.00    -0.259 C  
BRANCH  20  21
HETATM   21  C   UNK A   0     -10.498   9.246  67.827  1.00  0.00    -0.313 A  
HETATM   22  C   UNK A   0     -10.602   8.018  67.161  1.00  0.00    -0.367 A  
HETATM   23  C   UNK A   0     -10.581   9.278  69.227  1.00  0.00    -0.234 A  
HETATM   24  C   UNK A   0     -10.733   6.834  67.885  1.00  0.00    -0.320 A  
HETATM   25  C   UNK A   0     -10.715   8.092  69.948  1.00  0.00    -0.241 A  
HETATM   26  C   UNK A   0     -10.773   6.872  69.279  1.00  0.00    -0.265 A  
ENDBRANCH  20  21
ENDBRANCH  19  20
ENDBRANCH  18  19
BRANCH  18  27
HETATM   27  C   UNK A   0     -11.953  13.051  65.100  1.00  0.00    -0.402 C  
HETATM   28  O   UNK A   0     -13.020  12.539  64.792  1.00  0.00    -0.827 OA 
BRANCH  27  29
HETATM   29  O   UNK A   0     -11.289  13.992  64.362  1.00  0.00    -0.367 OA 
BRANCH  29  30
HETATM   30  C   UNK A   0     -11.861  15.309  64.351  1.00  0.00    -0.281 C  
HETATM   31  C   UNK A   0     -10.860  16.341  64.839  1.00  0.00    -0.315 C  
ENDBRANCH  29  30
ENDBRANCH  27  29
ENDBRANCH  18  27
ENDBRANCH  16  18
ENDBRANCH  14  16
ENDBRANCH   7  14
TORSDOF 9
ENDMDL
MODEL      133
REMARK 921   NORMALIZED FREE ENERGY PREDICTED BY IDOCK:   -4.71 KCAL/MOL
REMARK 922        TOTAL FREE ENERGY PREDICTED BY IDOCK:   -8.82 KCAL/MOL
REMARK 923 INTER-LIGAND FREE ENERGY PREDICTED BY IDOCK:   -7.62 KCAL/MOL
REMARK 924 INTRA-LIGAND FREE ENERGY PREDICTED BY IDOCK:   -1.20 KCAL/MOL
REMARK 927      BINDING AFFINITY PREDICTED BY RF-SCORE:    0.00 PKD
ROOT
HETATM    1  C   UNK A   1      -9.245  16.263  67.822  1.00  0.00    -0.203 C  
HETATM    2  C   UNK A   1      -8.012  15.815  67.014  1.00  0.00    -0.272 C  
HETATM    3  C   UNK A   1      -7.899  14.310  67.219  1.00  0.00    -0.170 C  
HETATM    4  C   UNK A   1      -8.741  14.034  68.453  1.00  0.00    -0.179 C  
HETATM    5  C   UNK A   1      -9.933  14.976  68.308  1.00  0.00    -0.225 C  
HETATM    6  N   UNK A   1     -10.919  14.673  67.259  1.00  0.00    -0.308 N  
HETATM    7  C   UNK A   1     -11.884  13.666  67.285  1.00  0.00    -0.391 C  
HETATM    8  C   UNK A   1     -11.231  15.900  66.472  1.00  0.00     0.082 C  
HETATM    9  C   UNK A   1     -11.081  15.835  64.939  1.00  0.00    -0.399 C  
HETATM   10  C   UNK A   1     -10.301  16.995  67.011  1.00  0.00    -0.304 C  
HETATM   11  O   UNK A   1     -12.779  13.685  66.432  1.00  0.00    -0.300 OA 
HETATM   12  O   UNK A   1     -10.671  14.631  64.474  1.00  0.00    -0.334 OA 
HETATM   13  O   UNK A   1     -11.269  16.784  64.199  1.00  0.00    -1.155 OA 
ENDROOT
BRANCH   7  14
HETATM   14  C   UNK A   1     -11.815  12.502  68.312  1.00  0.00    -0.309 C  
HETATM   15  C   UNK A   1     -11.812  13.074  69.739  1.00  0.00    -0.381 C  
BRANCH  14  16
HETATM   16  N   UNK A   1     -10.608  11.678  68.059  1.00  0.00    -0.194 NA 
HETATM   17  H   UNK A   1     -10.044  11.595  68.905  1.00  0.00     0.000 HD 
BRANCH  16  18
HETATM   18  C   UNK A   0     -10.916  10.328  67.493  1.00  0.00    -0.280 C  
BRANCH  18  19
HETATM   19  C   UNK A   0     -10.268  10.164  66.118  1.00  0.00    -0.285 C  
BRANCH  19  20
HETATM   20  C   UNK A   0      -8.990  10.991  65.911  1.00  0.00    -0.208 C  
BRANCH  20  21
HETATM   21  C   UNK A   0      -7.848  10.212  66.517  1.00  0.00    -0.112 A  
HETATM   22  C   UNK A   0      -7.123  10.741  67.594  1.00  0.00    -0.091 A  
HETATM   23  C   UNK A   0      -7.625   8.883  66.126  1.00  0.00    -0.091 A  
HETATM   24  C   UNK A   0      -6.229   9.939  68.302  1.00  0.00    -0.050 A  
HETATM   25  C   UNK A   0      -6.729   8.086  66.834  1.00  0.00    -0.064 A  
HETATM   26  C   UNK A   0      -6.046   8.607  67.930  1.00  0.00    -0.051 A  
ENDBRANCH  20  21
ENDBRANCH  19  20
ENDBRANCH  18  19
BRANCH  18  27
HETATM   27  C   UNK A   0     -10.429   9.235  68.465  1.00  0.00    -0.206 C  
HETATM   28  O   UNK A   0     -10.523   8.029  68.286  1.00  0.00    -0.204 OA 
BRANCH  27  29
HETATM   29  O   UNK A   0      -9.864   9.828  69.561  1.00  0.00    -0.188 OA 
BRANCH  29  30
HETATM   30  C   UNK A   0     -10.238   9.287  70.838  1.00  0.00    -0.301 C  
HETATM   31  C   UNK A   0     -11.672   9.646  71.181  1.00  0.00    -0.450 C  
ENDBRANCH  29  30
ENDBRANCH  27  29
ENDBRANCH  18  27
ENDBRANCH  16  18
ENDBRANCH  14  16
ENDBRANCH   7  14
TORSDOF 9
ENDMDL
MODEL      134
REMARK 921   NORMALIZED FREE ENERGY PREDICTED BY IDOCK:   -4.71 KCAL/MOL
REMARK 922        TOTAL FREE ENERGY PREDICTED BY IDOCK:   -8.82 KCAL/MOL
REMARK 923 INTER-LIGAND FREE ENERGY PREDICTED BY IDOCK:   -7.39 KCAL/MOL
REMARK 924 INTRA-LIGAND FREE ENERGY PREDICTED BY IDOCK:   -1.43 KCAL/MOL
REMARK 927      BINDING AFFINITY PREDICTED BY RF-SCORE:    0.00 PKD
ROOT
HETATM    1  C   UNK A   1     -10.014   6.617  67.794  1.00  0.00    -0.158 C  
HETATM    2  C   UNK A   1      -8.673   5.963  68.182  1.00  0.00    -0.111 C  
HETATM    3  C   UNK A   1      -7.640   7.082  68.171  1.00  0.00    -0.108 C  
HETATM    4  C   UNK A   1      -8.292   8.186  67.357  1.00  0.00    -0.122 C  
HETATM    5  C   UNK A   1      -9.761   8.134  67.767  1.00  0.00    -0.157 C  
HETATM    6  N   UNK A   1     -10.108   8.584  69.124  1.00  0.00    -0.197 N  
HETATM    7  C   UNK A   1     -10.163   9.901  69.579  1.00  0.00    -0.225 C  
HETATM    8  C   UNK A   1     -11.005   7.593  69.785  1.00  0.00    -0.170 C  
HETATM    9  C   UNK A   1     -10.588   7.045  71.164  1.00  0.00    -0.217 C  
HETATM   10  C   UNK A   1     -11.130   6.419  68.805  1.00  0.00    -0.404 C  
HETATM   11  O   UNK A   1     -10.688  10.124  70.676  1.00  0.00    -0.297 OA 
HETATM   12  O   UNK A   1      -9.418   7.545  71.627  1.00  0.00    -0.149 OA 
HETATM   13  O   UNK A   1     -11.220   6.203  71.777  1.00  0.00    -0.262 OA 
ENDROOT
BRANCH   7  14
HETATM   14  C   UNK A   1      -9.527  11.067  68.771  1.00  0.00    -0.183 C  
HETATM   15  C   UNK A   1      -8.017  11.124  69.053  1.00  0.00    -0.087 C  
BRANCH  14  16
HETATM   16  N   UNK A   1     -10.191  12.345  69.124  1.00  0.00    -0.411 NA 
HETATM   17  H   UNK A   1     -10.098  12.536  70.122  1.00  0.00     0.000 HD 
BRANCH  16  18
HETATM   18  C   UNK A   0      -9.712  13.509  68.316  1.00  0.00    -0.224 C  
BRANCH  18  19
HETATM   19  C   UNK A   0     -10.829  14.026  67.410  1.00  0.00    -0.288 C  
BRANCH  19  20
HETATM   20  C   UNK A   0     -11.977  13.033  67.179  1.00  0.00    -0.389 C  
BRANCH  20  21
HETATM   21  C   UNK A   0     -11.842  12.507  65.771  1.00  0.00    -0.494 A  
HETATM   22  C   UNK A   0     -12.533  13.120  64.717  1.00  0.00    -0.460 A  
HETATM   23  C   UNK A   0     -10.885  11.522  65.483  1.00  0.00    -0.313 A  
HETATM   24  C   UNK A   0     -12.236  12.793  63.395  1.00  0.00    -0.594 A  
HETATM   25  C   UNK A   0     -10.593  11.195  64.161  1.00  0.00    -0.436 A  
HETATM   26  C   UNK A   0     -11.254  11.841  63.119  1.00  0.00    -0.224 A  
ENDBRANCH  20  21
ENDBRANCH  19  20
ENDBRANCH  18  19
BRANCH  18  27
HETATM   27  C   UNK A   0      -9.205  14.621  69.256  1.00  0.00     0.036 C  
HETATM   28  O   UNK A   0      -9.907  15.336  69.956  1.00  0.00    -0.215 OA 
BRANCH  27  29
HETATM   29  O   UNK A   0      -7.840  14.677  69.190  1.00  0.00    -0.144 OA 
BRANCH  29  30
HETATM   30  C   UNK A   0      -7.264  14.588  67.877  1.00  0.00    -0.158 C  
HETATM   31  C   UNK A   0      -6.866  15.960  67.364  1.00  0.00    -0.228 C  
ENDBRANCH  29  30
ENDBRANCH  27  29
ENDBRANCH  18  27
ENDBRANCH  16  18
ENDBRANCH  14  16
ENDBRANCH   7  14
TORSDOF 9
ENDMDL
MODEL      135
REMARK 921   NORMALIZED FREE ENERGY PREDICTED BY IDOCK:   -4.70 KCAL/MOL
REMARK 922        TOTAL FREE ENERGY PREDICTED BY IDOCK:   -8.81 KCAL/MOL
REMARK 923 INTER-LIGAND FREE ENERGY PREDICTED BY IDOCK:   -7.99 KCAL/MOL
REMARK 924 INTRA-LIGAND FREE ENERGY PREDICTED BY IDOCK:   -0.82 KCAL/MOL
REMARK 927      BINDING AFFINITY PREDICTED BY RF-SCORE:    0.00 PKD
ROOT
HETATM    1  C   UNK A   1      -9.108   5.950  66.639  1.00  0.00    -0.138 C  
HETATM    2  C   UNK A   1      -7.589   5.753  66.816  1.00  0.00    -0.096 C  
HETATM    3  C   UNK A   1      -7.111   6.917  67.674  1.00  0.00    -0.085 C  
HETATM    4  C   UNK A   1      -8.224   7.945  67.566  1.00  0.00    -0.124 C  
HETATM    5  C   UNK A   1      -9.502   7.111  67.568  1.00  0.00    -0.124 C  
HETATM    6  N   UNK A   1      -9.888   6.454  68.826  1.00  0.00    -0.137 N  
HETATM    7  C   UNK A   1     -10.440   7.065  69.952  1.00  0.00    -0.217 C  
HETATM    8  C   UNK A   1     -10.241   5.028  68.578  1.00  0.00    -0.073 C  
HETATM    9  C   UNK A   1      -9.522   3.948  69.411  1.00  0.00    -0.190 C  
HETATM   10  C   UNK A   1      -9.956   4.774  67.092  1.00  0.00    -0.224 C  
HETATM   11  O   UNK A   1     -10.916   6.346  70.838  1.00  0.00    -0.250 OA 
HETATM   12  O   UNK A   1      -8.626   4.440  70.298  1.00  0.00    -0.075 OA 
HETATM   13  O   UNK A   1      -9.700   2.752  69.267  1.00  0.00    -0.050 OA 
ENDROOT
BRANCH   7  14
HETATM   14  C   UNK A   1     -10.408   8.608  70.137  1.00  0.00    -0.207 C  
HETATM   15  C   UNK A   1      -9.712   8.952  71.464  1.00  0.00    -0.372 C  
BRANCH  14  16
HETATM   16  N   UNK A   1     -11.789   9.148  70.097  1.00  0.00    -0.460 NA 
HETATM   17  H   UNK A   1     -12.227   9.088  71.016  1.00  0.00     0.000 HD 
BRANCH  16  18
HETATM   18  C   UNK A   0     -11.867  10.543  69.564  1.00  0.00    -0.215 C  
BRANCH  18  19
HETATM   19  C   UNK A   0     -11.677  11.558  70.691  1.00  0.00    -0.133 C  
BRANCH  19  20
HETATM   20  C   UNK A   0     -12.979  12.025  71.357  1.00  0.00    -0.362 C  
BRANCH  20  21
HETATM   21  C   UNK A   0     -12.872  13.518  71.558  1.00  0.00    -0.440 A  
HETATM   22  C   UNK A   0     -13.737  14.177  72.442  1.00  0.00    -0.645 A  
HETATM   23  C   UNK A   0     -11.793  14.220  71.001  1.00  0.00    -0.306 A  
HETATM   24  C   UNK A   0     -13.496  15.501  72.805  1.00  0.00    -0.650 A  
HETATM   25  C   UNK A   0     -11.557  15.544  71.364  1.00  0.00    -0.481 A  
HETATM   26  C   UNK A   0     -12.397  16.178  72.277  1.00  0.00    -0.538 A  
ENDBRANCH  20  21
ENDBRANCH  19  20
ENDBRANCH  18  19
BRANCH  18  27
HETATM   27  C   UNK A   0     -10.806  10.738  68.462  1.00  0.00    -0.228 C  
HETATM   28  O   UNK A   0      -9.635  11.037  68.646  1.00  0.00    -0.183 OA 
BRANCH  27  29
HETATM   29  O   UNK A   0     -11.381  10.515  67.241  1.00  0.00    -0.359 OA 
BRANCH  29  30
HETATM   30  C   UNK A   0     -11.098  11.484  66.220  1.00  0.00    -0.263 C  
HETATM   31  C   UNK A   0     -10.253  10.877  65.114  1.00  0.00    -0.360 C  
ENDBRANCH  29  30
ENDBRANCH  27  29
ENDBRANCH  18  27
ENDBRANCH  16  18
ENDBRANCH  14  16
ENDBRANCH   7  14
TORSDOF 9
ENDMDL
MODEL      136
REMARK 921   NORMALIZED FREE ENERGY PREDICTED BY IDOCK:   -4.69 KCAL/MOL
REMARK 922        TOTAL FREE ENERGY PREDICTED BY IDOCK:   -8.79 KCAL/MOL
REMARK 923 INTER-LIGAND FREE ENERGY PREDICTED BY IDOCK:   -7.37 KCAL/MOL
REMARK 924 INTRA-LIGAND FREE ENERGY PREDICTED BY IDOCK:   -1.42 KCAL/MOL
REMARK 927      BINDING AFFINITY PREDICTED BY RF-SCORE:    0.00 PKD
ROOT
HETATM    1  C   UNK A   1      -9.087   8.300  70.248  1.00  0.00    -0.150 C  
HETATM    2  C   UNK A   1     -10.432   7.665  70.653  1.00  0.00    -0.217 C  
HETATM    3  C   UNK A   1     -11.478   8.762  70.504  1.00  0.00    -0.222 C  
HETATM    4  C   UNK A   1     -10.671  10.049  70.481  1.00  0.00    -0.352 C  
HETATM    5  C   UNK A   1      -9.422   9.691  69.681  1.00  0.00    -0.210 C  
HETATM    6  N   UNK A   1      -9.578   9.465  68.235  1.00  0.00    -0.141 N  
HETATM    7  C   UNK A   1      -9.768  10.438  67.254  1.00  0.00    -0.165 C  
HETATM    8  C   UNK A   1      -8.884   8.210  67.830  1.00  0.00    -0.130 C  
HETATM    9  C   UNK A   1      -9.695   7.150  67.058  1.00  0.00    -0.170 C  
HETATM   10  C   UNK A   1      -8.359   7.580  69.126  1.00  0.00    -0.135 C  
HETATM   11  O   UNK A   1      -9.654  10.108  66.067  1.00  0.00    -0.183 OA 
HETATM   12  O   UNK A   1     -10.984   7.498  66.833  1.00  0.00    -0.292 OA 
HETATM   13  O   UNK A   1      -9.246   6.072  66.712  1.00  0.00    -0.128 OA 
ENDROOT
BRANCH   7  14
HETATM   14  C   UNK A   1     -10.179  11.891  67.620  1.00  0.00    -0.201 C  
HETATM   15  C   UNK A   1     -11.711  11.986  67.708  1.00  0.00    -0.379 C  
BRANCH  14  16
HETATM   16  N   UNK A   1      -9.637  12.836  66.613  1.00  0.00    -0.249 NA 
HETATM   17  H   UNK A   1      -9.488  12.366  65.721  1.00  0.00     0.000 HD 
BRANCH  16  18
HETATM   18  C   UNK A   0     -10.478  14.060  66.433  1.00  0.00    -0.284 C  
BRANCH  18  19
HETATM   19  C   UNK A   0      -9.735  15.298  66.935  1.00  0.00    -0.243 C  
BRANCH  19  20
HETATM   20  C   UNK A   0      -9.838  15.534  68.449  1.00  0.00    -0.210 C  
BRANCH  20  21
HETATM   21  C   UNK A   0      -8.538  16.157  68.897  1.00  0.00    -0.245 A  
HETATM   22  C   UNK A   0      -7.519  15.360  69.436  1.00  0.00    -0.218 A  
HETATM   23  C   UNK A   0      -8.275  17.505  68.608  1.00  0.00    -0.265 A  
HETATM   24  C   UNK A   0      -6.243  15.886  69.633  1.00  0.00    -0.177 A  
HETATM   25  C   UNK A   0      -7.000  18.029  68.809  1.00  0.00    -0.264 A  
HETATM   26  C   UNK A   0      -5.982  17.217  69.304  1.00  0.00    -0.207 A  
ENDBRANCH  20  21
ENDBRANCH  19  20
ENDBRANCH  18  19
BRANCH  18  27
HETATM   27  C   UNK A   0     -10.860  14.213  64.947  1.00  0.00    -0.411 C  
HETATM   28  O   UNK A   0     -11.320  15.221  64.429  1.00  0.00    -0.315 OA 
BRANCH  27  29
HETATM   29  O   UNK A   0     -10.595  13.041  64.293  1.00  0.00    -0.381 OA 
BRANCH  29  30
HETATM   30  C   UNK A   0     -11.511  12.677  63.248  1.00  0.00    -0.306 C  
HETATM   31  C   UNK A   0     -12.775  12.064  63.824  1.00  0.00    -0.516 C  
ENDBRANCH  29  30
ENDBRANCH  27  29
ENDBRANCH  18  27
ENDBRANCH  16  18
ENDBRANCH  14  16
ENDBRANCH   7  14
TORSDOF 9
ENDMDL
MODEL      137
REMARK 921   NORMALIZED FREE ENERGY PREDICTED BY IDOCK:   -4.64 KCAL/MOL
REMARK 922        TOTAL FREE ENERGY PREDICTED BY IDOCK:   -8.71 KCAL/MOL
REMARK 923 INTER-LIGAND FREE ENERGY PREDICTED BY IDOCK:   -7.25 KCAL/MOL
REMARK 924 INTRA-LIGAND FREE ENERGY PREDICTED BY IDOCK:   -1.46 KCAL/MOL
REMARK 927      BINDING AFFINITY PREDICTED BY RF-SCORE:    0.00 PKD
ROOT
HETATM    1  C   UNK A   1      -9.830   8.318  72.376  1.00  0.00    -0.375 C  
HETATM    2  C   UNK A   1     -11.118   7.772  73.022  1.00  0.00    -0.419 C  
HETATM    3  C   UNK A   1     -12.165   7.744  71.915  1.00  0.00    -0.341 C  
HETATM    4  C   UNK A   1     -11.609   8.673  70.850  1.00  0.00    -0.307 C  
HETATM    5  C   UNK A   1     -10.108   8.401  70.865  1.00  0.00    -0.194 C  
HETATM    6  N   UNK A   1      -9.642   7.108  70.339  1.00  0.00    -0.169 N  
HETATM    7  C   UNK A   1      -9.565   6.731  68.998  1.00  0.00    -0.135 C  
HETATM    8  C   UNK A   1      -8.672   6.484  71.283  1.00  0.00    -0.130 C  
HETATM    9  C   UNK A   1      -8.950   5.044  71.761  1.00  0.00    -0.133 C  
HETATM   10  C   UNK A   1      -8.621   7.407  72.507  1.00  0.00    -0.138 C  
HETATM   11  O   UNK A   1      -8.944   5.701  68.711  1.00  0.00    -0.114 OA 
HETATM   12  O   UNK A   1     -10.079   4.500  71.249  1.00  0.00    -0.192 OA 
HETATM   13  O   UNK A   1      -8.250   4.450  72.561  1.00  0.00    -0.101 OA 
ENDROOT
BRANCH   7  14
HETATM   14  C   UNK A   1     -10.291   7.536  67.885  1.00  0.00    -0.210 C  
HETATM   15  C   UNK A   1     -10.963   6.563  66.902  1.00  0.00    -0.408 C  
BRANCH  14  16
HETATM   16  N   UNK A   1      -9.324   8.421  67.191  1.00  0.00    -0.147 NA 
HETATM   17  H   UNK A   1      -8.366   8.160  67.423  1.00  0.00     0.000 HD 
BRANCH  16  18
HETATM   18  C   UNK A   0      -9.517   8.468  65.709  1.00  0.00    -0.064 C  
BRANCH  18  19
HETATM   19  C   UNK A   0      -9.824   9.896  65.255  1.00  0.00    -0.373 C  
BRANCH  19  20
HETATM   20  C   UNK A   0      -9.853  10.934  66.387  1.00  0.00    -0.249 C  
BRANCH  20  21
HETATM   21  C   UNK A   0     -10.938  11.930  66.055  1.00  0.00    -0.355 A  
HETATM   22  C   UNK A   0     -11.378  12.845  67.021  1.00  0.00    -0.355 A  
HETATM   23  C   UNK A   0     -11.379  12.065  64.730  1.00  0.00    -0.369 A  
HETATM   24  C   UNK A   0     -12.203  13.908  66.659  1.00  0.00    -0.465 A  
HETATM   25  C   UNK A   0     -12.206  13.127  64.372  1.00  0.00    -0.462 A  
HETATM   26  C   UNK A   0     -12.603  14.057  65.331  1.00  0.00    -0.529 A  
ENDBRANCH  20  21
ENDBRANCH  19  20
ENDBRANCH  18  19
BRANCH  18  27
HETATM   27  C   UNK A   0      -8.259   7.925  65.004  1.00  0.00    -0.131 C  
HETATM   28  O   UNK A   0      -7.870   6.766  65.033  1.00  0.00    -0.104 OA 
BRANCH  27  29
HETATM   29  O   UNK A   0      -7.646   8.946  64.330  1.00  0.00    -0.106 OA 
BRANCH  29  30
HETATM   30  C   UNK A   0      -6.279   9.209  64.684  1.00  0.00    -0.070 C  
HETATM   31  C   UNK A   0      -6.197  10.212  65.822  1.00  0.00    -0.100 C  
ENDBRANCH  29  30
ENDBRANCH  27  29
ENDBRANCH  18  27
ENDBRANCH  16  18
ENDBRANCH  14  16
ENDBRANCH   7  14
TORSDOF 9
ENDMDL
MODEL      138
REMARK 921   NORMALIZED FREE ENERGY PREDICTED BY IDOCK:   -4.62 KCAL/MOL
REMARK 922        TOTAL FREE ENERGY PREDICTED BY IDOCK:   -8.68 KCAL/MOL
REMARK 923 INTER-LIGAND FREE ENERGY PREDICTED BY IDOCK:   -6.49 KCAL/MOL
REMARK 924 INTRA-LIGAND FREE ENERGY PREDICTED BY IDOCK:   -2.19 KCAL/MOL
REMARK 927      BINDING AFFINITY PREDICTED BY RF-SCORE:    0.00 PKD
ROOT
HETATM    1  C   UNK A   1     -10.350  10.425  65.678  1.00  0.00    -0.260 C  
HETATM    2  C   UNK A   1     -10.099  11.919  65.961  1.00  0.00    -0.261 C  
HETATM    3  C   UNK A   1      -9.765  12.017  67.444  1.00  0.00    -0.185 C  
HETATM    4  C   UNK A   1     -10.276  10.713  68.030  1.00  0.00    -0.202 C  
HETATM    5  C   UNK A   1      -9.956   9.672  66.960  1.00  0.00    -0.206 C  
HETATM    6  N   UNK A   1      -8.543   9.318  66.753  1.00  0.00    -0.126 N  
HETATM    7  C   UNK A   1      -7.752   8.521  67.580  1.00  0.00    -0.102 C  
HETATM    8  C   UNK A   1      -8.212   9.338  65.300  1.00  0.00    -0.134 C  
HETATM    9  C   UNK A   1      -7.016  10.195  64.840  1.00  0.00    -0.131 C  
HETATM   10  C   UNK A   1      -9.476   9.832  64.586  1.00  0.00    -0.295 C  
HETATM   11  O   UNK A   1      -6.657   8.134  67.154  1.00  0.00    -0.056 OA 
HETATM   12  O   UNK A   1      -6.388  10.851  65.845  1.00  0.00    -0.126 OA 
HETATM   13  O   UNK A   1      -6.680  10.319  63.676  1.00  0.00    -0.133 OA 
ENDROOT
BRANCH   7  14
HETATM   14  C   UNK A   1      -8.189   8.171  69.030  1.00  0.00    -0.127 C  
HETATM   15  C   UNK A   1      -7.544   9.160  70.014  1.00  0.00    -0.080 C  
BRANCH  14  16
HETATM   16  N   UNK A   1      -7.809   6.772  69.346  1.00  0.00    -0.111 NA 
HETATM   17  H   UNK A   1      -7.178   6.742  70.147  1.00  0.00     0.000 HD 
BRANCH  16  18
HETATM   18  C   UNK A   0      -8.982   5.870  69.562  1.00  0.00    -0.129 C  
BRANCH  18  19
HETATM   19  C   UNK A   0     -10.288   6.660  69.469  1.00  0.00    -0.232 C  
BRANCH  19  20
HETATM   20  C   UNK A   0     -11.362   6.241  70.484  1.00  0.00    -0.428 C  
BRANCH  20  21
HETATM   21  C   UNK A   0     -11.920   7.503  71.096  1.00  0.00    -0.334 A  
HETATM   22  C   UNK A   0     -11.240   8.720  70.952  1.00  0.00    -0.320 A  
HETATM   23  C   UNK A   0     -13.207   7.497  71.653  1.00  0.00    -0.404 A  
HETATM   24  C   UNK A   0     -11.858   9.917  71.309  1.00  0.00    -0.479 A  
HETATM   25  C   UNK A   0     -13.821   8.696  72.012  1.00  0.00    -0.491 A  
HETATM   26  C   UNK A   0     -13.154   9.904  71.824  1.00  0.00    -0.553 A  
ENDBRANCH  20  21
ENDBRANCH  19  20
ENDBRANCH  18  19
BRANCH  18  27
HETATM   27  C   UNK A   0      -8.956   4.728  68.527  1.00  0.00    -0.111 C  
HETATM   28  O   UNK A   0      -9.693   3.752  68.524  1.00  0.00    -0.132 OA 
BRANCH  27  29
HETATM   29  O   UNK A   0      -7.979   4.981  67.603  1.00  0.00    -0.094 OA 
BRANCH  29  30
HETATM   30  C   UNK A   0      -8.187   4.430  66.293  1.00  0.00    -0.102 C  
HETATM   31  C   UNK A   0      -8.724   5.483  65.341  1.00  0.00    -0.148 C  
ENDBRANCH  29  30
ENDBRANCH  27  29
ENDBRANCH  18  27
ENDBRANCH  16  18
ENDBRANCH  14  16
ENDBRANCH   7  14
TORSDOF 9
ENDMDL
MODEL      139
REMARK 921   NORMALIZED FREE ENERGY PREDICTED BY IDOCK:   -4.61 KCAL/MOL
REMARK 922        TOTAL FREE ENERGY PREDICTED BY IDOCK:   -8.67 KCAL/MOL
REMARK 923 INTER-LIGAND FREE ENERGY PREDICTED BY IDOCK:   -6.43 KCAL/MOL
REMARK 924 INTRA-LIGAND FREE ENERGY PREDICTED BY IDOCK:   -2.24 KCAL/MOL
REMARK 927      BINDING AFFINITY PREDICTED BY RF-SCORE:    0.00 PKD
ROOT
HETATM    1  C   UNK A   1      -7.117   6.580  66.015  1.00  0.00    -0.063 C  
HETATM    2  C   UNK A   1      -6.208   5.568  66.740  1.00  0.00    -0.035 C  
HETATM    3  C   UNK A   1      -6.289   5.914  68.221  1.00  0.00    -0.044 C  
HETATM    4  C   UNK A   1      -6.833   7.332  68.245  1.00  0.00    -0.070 C  
HETATM    5  C   UNK A   1      -7.859   7.357  67.116  1.00  0.00    -0.117 C  
HETATM    6  N   UNK A   1      -9.108   6.606  67.311  1.00  0.00    -0.117 N  
HETATM    7  C   UNK A   1     -10.184   6.970  68.120  1.00  0.00    -0.181 C  
HETATM    8  C   UNK A   1      -9.406   5.774  66.110  1.00  0.00    -0.144 C  
HETATM    9  C   UNK A   1      -9.651   4.266  66.315  1.00  0.00    -0.196 C  
HETATM   10  C   UNK A   1      -8.210   5.955  65.166  1.00  0.00    -0.141 C  
HETATM   11  O   UNK A   1     -11.248   6.349  68.002  1.00  0.00    -0.311 OA 
HETATM   12  O   UNK A   1      -9.565   3.863  67.604  1.00  0.00    -0.186 OA 
HETATM   13  O   UNK A   1      -9.862   3.485  65.405  1.00  0.00    -0.134 OA 
ENDROOT
BRANCH   7  14
HETATM   14  C   UNK A   1     -10.050   8.081  69.198  1.00  0.00    -0.201 C  
HETATM   15  C   UNK A   1     -10.170   7.458  70.598  1.00  0.00    -0.202 C  
BRANCH  14  16
HETATM   16  N   UNK A   1     -11.086   9.121  68.981  1.00  0.00    -0.443 NA 
HETATM   17  H   UNK A   1     -11.976   8.834  69.388  1.00  0.00     0.000 HD 
BRANCH  16  18
HETATM   18  C   UNK A   0     -10.687  10.473  69.479  1.00  0.00    -0.255 C  
BRANCH  18  19
HETATM   19  C   UNK A   0      -9.973  11.260  68.380  1.00  0.00    -0.201 C  
BRANCH  19  20
HETATM   20  C   UNK A   0     -10.503  10.999  66.962  1.00  0.00    -0.284 C  
BRANCH  20  21
HETATM   21  C   UNK A   0      -9.342  10.506  66.132  1.00  0.00    -0.210 A  
HETATM   22  C   UNK A   0      -9.554  10.020  64.835  1.00  0.00    -0.375 A  
HETATM   23  C   UNK A   0      -8.029  10.702  66.585  1.00  0.00    -0.134 A  
HETATM   24  C   UNK A   0      -8.475   9.784  63.986  1.00  0.00    -0.186 A  
HETATM   25  C   UNK A   0      -6.951  10.462  65.735  1.00  0.00    -0.136 A  
HETATM   26  C   UNK A   0      -7.175  10.021  64.433  1.00  0.00    -0.134 A  
ENDBRANCH  20  21
ENDBRANCH  19  20
ENDBRANCH  18  19
BRANCH  18  27
HETATM   27  C   UNK A   0     -11.934  11.231  69.978  1.00  0.00    -0.368 C  
HETATM   28  O   UNK A   0     -12.074  12.446  69.984  1.00  0.00    -0.309 OA 
BRANCH  27  29
HETATM   29  O   UNK A   0     -12.867  10.327  70.407  1.00  0.00    -0.273 OA 
BRANCH  29  30
HETATM   30  C   UNK A   0     -13.045  10.225  71.828  1.00  0.00    -0.465 C  
HETATM   31  C   UNK A   0     -13.634   8.877  72.205  1.00  0.00    -0.513 C  
ENDBRANCH  29  30
ENDBRANCH  27  29
ENDBRANCH  18  27
ENDBRANCH  16  18
ENDBRANCH  14  16
ENDBRANCH   7  14
TORSDOF 9
ENDMDL
MODEL      140
REMARK 921   NORMALIZED FREE ENERGY PREDICTED BY IDOCK:   -4.60 KCAL/MOL
REMARK 922        TOTAL FREE ENERGY PREDICTED BY IDOCK:   -8.65 KCAL/MOL
REMARK 923 INTER-LIGAND FREE ENERGY PREDICTED BY IDOCK:   -7.58 KCAL/MOL
REMARK 924 INTRA-LIGAND FREE ENERGY PREDICTED BY IDOCK:   -1.07 KCAL/MOL
REMARK 927      BINDING AFFINITY PREDICTED BY RF-SCORE:    0.00 PKD
ROOT
HETATM    1  C   UNK A   1     -10.271  16.415  66.853  1.00  0.00    -0.290 C  
HETATM    2  C   UNK A   1     -10.730  16.937  68.229  1.00  0.00    -0.377 C  
HETATM    3  C   UNK A   1     -10.542  15.781  69.202  1.00  0.00    -0.242 C  
HETATM    4  C   UNK A   1     -10.439  14.554  68.312  1.00  0.00    -0.242 C  
HETATM    5  C   UNK A   1      -9.639  15.035  67.105  1.00  0.00    -0.217 C  
HETATM    6  N   UNK A   1      -8.209  15.322  67.304  1.00  0.00    -0.187 N  
HETATM    7  C   UNK A   1      -7.183  14.389  67.448  1.00  0.00    -0.122 C  
HETATM    8  C   UNK A   1      -7.858  16.640  66.703  1.00  0.00    -0.281 C  
HETATM    9  C   UNK A   1      -7.154  17.680  67.598  1.00  0.00    -0.177 C  
HETATM   10  C   UNK A   1      -9.176  17.238  66.196  1.00  0.00    -0.193 C  
HETATM   11  O   UNK A   1      -6.013  14.785  67.380  1.00  0.00    -0.339 OA 
HETATM   12  O   UNK A   1      -6.933  17.258  68.865  1.00  0.00    -0.213 OA 
HETATM   13  O   UNK A   1      -6.857  18.801  67.228  1.00  0.00    -0.202 OA 
ENDROOT
BRANCH   7  14
HETATM   14  C   UNK A   1      -7.480  12.895  67.754  1.00  0.00    -0.136 C  
HETATM   15  C   UNK A   1      -6.189  12.197  68.212  1.00  0.00    -0.052 C  
BRANCH  14  16
HETATM   16  N   UNK A   1      -8.051  12.238  66.553  1.00  0.00    -0.397 NA 
HETATM   17  H   UNK A   1      -7.337  12.118  65.834  1.00  0.00     0.000 HD 
BRANCH  16  18
HETATM   18  C   UNK A   0      -8.729  10.939  66.849  1.00  0.00    -0.144 C  
BRANCH  18  19
HETATM   19  C   UNK A   0      -9.582  11.056  68.112  1.00  0.00    -0.175 C  
BRANCH  19  20
HETATM   20  C   UNK A   0      -9.047  10.272  69.320  1.00  0.00    -0.206 C  
BRANCH  20  21
HETATM   21  C   UNK A   0      -9.998   9.127  69.570  1.00  0.00    -0.193 A  
HETATM   22  C   UNK A   0      -9.999   8.010  68.725  1.00  0.00    -0.196 A  
HETATM   23  C   UNK A   0     -10.755   9.095  70.751  1.00  0.00    -0.327 A  
HETATM   24  C   UNK A   0     -10.701   6.859  69.079  1.00  0.00    -0.259 A  
HETATM   25  C   UNK A   0     -11.459   7.945  71.101  1.00  0.00    -0.297 A  
HETATM   26  C   UNK A   0     -11.417   6.823  70.276  1.00  0.00    -0.414 A  
ENDBRANCH  20  21
ENDBRANCH  19  20
ENDBRANCH  18  19
BRANCH  18  27
HETATM   27  C   UNK A   0      -9.588  10.514  65.642  1.00  0.00    -0.226 C  
HETATM   28  O   UNK A   0      -9.639   9.390  65.163  1.00  0.00    -0.256 OA 
BRANCH  27  29
HETATM   29  O   UNK A   0     -10.296  11.595  65.193  1.00  0.00    -0.255 OA 
BRANCH  29  30
HETATM   30  C   UNK A   0     -11.018  11.416  63.964  1.00  0.00    -0.355 C  
HETATM   31  C   UNK A   0     -11.916  12.607  63.682  1.00  0.00    -0.615 C  
ENDBRANCH  29  30
ENDBRANCH  27  29
ENDBRANCH  18  27
ENDBRANCH  16  18
ENDBRANCH  14  16
ENDBRANCH   7  14
TORSDOF 9
ENDMDL
MODEL      141
REMARK 921   NORMALIZED FREE ENERGY PREDICTED BY IDOCK:   -4.60 KCAL/MOL
REMARK 922        TOTAL FREE ENERGY PREDICTED BY IDOCK:   -8.64 KCAL/MOL
REMARK 923 INTER-LIGAND FREE ENERGY PREDICTED BY IDOCK:   -7.22 KCAL/MOL
REMARK 924 INTRA-LIGAND FREE ENERGY PREDICTED BY IDOCK:   -1.43 KCAL/MOL
REMARK 927      BINDING AFFINITY PREDICTED BY RF-SCORE:    0.00 PKD
ROOT
HETATM    1  C   UNK A   1      -9.916   8.434  72.408  1.00  0.00    -0.380 C  
HETATM    2  C   UNK A   1     -11.302   7.881  72.792  1.00  0.00    -0.453 C  
HETATM    3  C   UNK A   1     -12.164   8.000  71.542  1.00  0.00    -0.328 C  
HETATM    4  C   UNK A   1     -11.427   9.003  70.672  1.00  0.00    -0.291 C  
HETATM    5  C   UNK A   1      -9.953   8.671  70.889  1.00  0.00    -0.206 C  
HETATM    6  N   UNK A   1      -9.444   7.416  70.313  1.00  0.00    -0.165 N  
HETATM    7  C   UNK A   1      -9.168   7.165  68.969  1.00  0.00    -0.135 C  
HETATM    8  C   UNK A   1      -8.648   6.667  71.327  1.00  0.00    -0.126 C  
HETATM    9  C   UNK A   1      -9.032   5.201  71.611  1.00  0.00    -0.134 C  
HETATM   10  C   UNK A   1      -8.765   7.468  72.631  1.00  0.00    -0.165 C  
HETATM   11  O   UNK A   1      -8.535   6.143  68.678  1.00  0.00    -0.113 OA 
HETATM   12  O   UNK A   1     -10.080   4.754  70.881  1.00  0.00    -0.214 OA 
HETATM   13  O   UNK A   1      -8.480   4.506  72.445  1.00  0.00    -0.108 OA 
ENDROOT
BRANCH   7  14
HETATM   14  C   UNK A   1      -9.692   8.100  67.844  1.00  0.00    -0.161 C  
HETATM   15  C   UNK A   1     -10.780   7.373  67.036  1.00  0.00    -0.389 C  
BRANCH  14  16
HETATM   16  N   UNK A   1      -8.566   8.522  66.975  1.00  0.00    -0.120 NA 
HETATM   17  H   UNK A   1      -7.683   8.150  67.323  1.00  0.00     0.000 HD 
BRANCH  16  18
HETATM   18  C   UNK A   0      -8.761   8.168  65.535  1.00  0.00    -0.120 C  
BRANCH  18  19
HETATM   19  C   UNK A   0      -8.819   9.431  64.676  1.00  0.00    -0.238 C  
BRANCH  19  20
HETATM   20  C   UNK A   0      -8.711  10.745  65.465  1.00  0.00    -0.196 C  
BRANCH  20  21
HETATM   21  C   UNK A   0      -9.941  11.561  65.150  1.00  0.00    -0.304 A  
HETATM   22  C   UNK A   0     -10.352  11.738  63.822  1.00  0.00    -0.451 A  
HETATM   23  C   UNK A   0     -10.777  11.992  66.191  1.00  0.00    -0.312 A  
HETATM   24  C   UNK A   0     -11.601  12.288  63.539  1.00  0.00    -0.570 A  
HETATM   25  C   UNK A   0     -12.024  12.544  65.905  1.00  0.00    -0.472 A  
HETATM   26  C   UNK A   0     -12.442  12.675  64.583  1.00  0.00    -0.538 A  
ENDBRANCH  20  21
ENDBRANCH  19  20
ENDBRANCH  18  19
BRANCH  18  27
HETATM   27  C   UNK A   0      -7.621   7.239  65.071  1.00  0.00    -0.107 C  
HETATM   28  O   UNK A   0      -6.503   7.183  65.562  1.00  0.00    -0.045 OA 
BRANCH  27  29
HETATM   29  O   UNK A   0      -8.061   6.477  64.023  1.00  0.00    -0.106 OA 
BRANCH  29  30
HETATM   30  C   UNK A   0      -8.337   5.098  64.313  1.00  0.00    -0.137 C  
HETATM   31  C   UNK A   0      -9.127   4.454  63.187  1.00  0.00    -0.135 C  
ENDBRANCH  29  30
ENDBRANCH  27  29
ENDBRANCH  18  27
ENDBRANCH  16  18
ENDBRANCH  14  16
ENDBRANCH   7  14
TORSDOF 9
ENDMDL
MODEL      142
REMARK 921   NORMALIZED FREE ENERGY PREDICTED BY IDOCK:   -4.58 KCAL/MOL
REMARK 922        TOTAL FREE ENERGY PREDICTED BY IDOCK:   -8.63 KCAL/MOL
REMARK 923 INTER-LIGAND FREE ENERGY PREDICTED BY IDOCK:   -7.13 KCAL/MOL
REMARK 924 INTRA-LIGAND FREE ENERGY PREDICTED BY IDOCK:   -1.50 KCAL/MOL
REMARK 927      BINDING AFFINITY PREDICTED BY RF-SCORE:    0.00 PKD
ROOT
HETATM    1  C   UNK A   1     -11.638  12.766  65.447  1.00  0.00    -0.393 C  
HETATM    2  C   UNK A   1     -10.698  13.892  64.976  1.00  0.00    -0.397 C  
HETATM    3  C   UNK A   1      -9.705  14.113  66.109  1.00  0.00    -0.310 C  
HETATM    4  C   UNK A   1     -10.366  13.475  67.318  1.00  0.00    -0.241 C  
HETATM    5  C   UNK A   1     -11.040  12.225  66.757  1.00  0.00    -0.296 C  
HETATM    6  N   UNK A   1     -10.173  11.116  66.330  1.00  0.00    -0.232 N  
HETATM    7  C   UNK A   1      -9.495  10.220  67.156  1.00  0.00    -0.158 C  
HETATM    8  C   UNK A   1     -10.584  10.628  64.982  1.00  0.00    -0.117 C  
HETATM    9  C   UNK A   1      -9.509  10.558  63.879  1.00  0.00    -0.292 C  
HETATM   10  C   UNK A   1     -11.705  11.566  64.518  1.00  0.00    -0.089 C  
HETATM   11  O   UNK A   1      -8.994   9.211  66.645  1.00  0.00    -0.130 OA 
HETATM   12  O   UNK A   1      -8.280  10.960  64.279  1.00  0.00     0.036 OA 
HETATM   13  O   UNK A   1      -9.737  10.215  62.733  1.00  0.00    -0.260 OA 
ENDROOT
BRANCH   7  14
HETATM   14  C   UNK A   1      -9.304  10.499  68.673  1.00  0.00    -0.172 C  
HETATM   15  C   UNK A   1      -8.018  11.313  68.889  1.00  0.00    -0.104 C  
BRANCH  14  16
HETATM   16  N   UNK A   1      -9.263   9.217  69.419  1.00  0.00    -0.153 NA 
HETATM   17  H   UNK A   1      -8.812   9.342  70.325  1.00  0.00     0.000 HD 
BRANCH  16  18
HETATM   18  C   UNK A   0     -10.606   8.578  69.579  1.00  0.00    -0.211 C  
BRANCH  18  19
HETATM   19  C   UNK A   0     -10.519   7.076  69.303  1.00  0.00    -0.223 C  
BRANCH  19  20
HETATM   20  C   UNK A   0     -11.128   6.636  67.964  1.00  0.00    -0.296 C  
BRANCH  20  21
HETATM   21  C   UNK A   0     -10.293   5.492  67.444  1.00  0.00    -0.279 A  
HETATM   22  C   UNK A   0      -9.618   4.646  68.334  1.00  0.00    -0.212 A  
HETATM   23  C   UNK A   0     -10.336   5.160  66.081  1.00  0.00    -0.280 A  
HETATM   24  C   UNK A   0      -9.041   3.462  67.880  1.00  0.00    -0.207 A  
HETATM   25  C   UNK A   0      -9.755   3.977  65.630  1.00  0.00    -0.192 A  
HETATM   26  C   UNK A   0      -9.125   3.121  66.530  1.00  0.00    -0.170 A  
ENDBRANCH  20  21
ENDBRANCH  19  20
ENDBRANCH  18  19
BRANCH  18  27
HETATM   27  C   UNK A   0     -11.143   8.847  70.999  1.00  0.00    -0.276 C  
HETATM   28  O   UNK A   0     -10.488   8.794  72.030  1.00  0.00    -0.326 OA 
BRANCH  27  29
HETATM   29  O   UNK A   0     -12.471   9.163  70.924  1.00  0.00    -0.230 OA 
BRANCH  29  30
HETATM   30  C   UNK A   0     -12.857  10.421  71.499  1.00  0.00    -0.464 C  
HETATM   31  C   UNK A   0     -12.337  11.581  70.667  1.00  0.00    -0.457 C  
ENDBRANCH  29  30
ENDBRANCH  27  29
ENDBRANCH  18  27
ENDBRANCH  16  18
ENDBRANCH  14  16
ENDBRANCH   7  14
TORSDOF 9
ENDMDL
MODEL      143
REMARK 921   NORMALIZED FREE ENERGY PREDICTED BY IDOCK:   -4.58 KCAL/MOL
REMARK 922        TOTAL FREE ENERGY PREDICTED BY IDOCK:   -8.63 KCAL/MOL
REMARK 923 INTER-LIGAND FREE ENERGY PREDICTED BY IDOCK:   -7.11 KCAL/MOL
REMARK 924 INTRA-LIGAND FREE ENERGY PREDICTED BY IDOCK:   -1.52 KCAL/MOL
REMARK 927      BINDING AFFINITY PREDICTED BY RF-SCORE:    0.00 PKD
ROOT
HETATM    1  C   UNK A   1     -11.062  12.316  65.815  1.00  0.00    -0.362 C  
HETATM    2  C   UNK A   1     -10.013  13.423  65.592  1.00  0.00    -0.249 C  
HETATM    3  C   UNK A   1      -9.205  13.502  66.881  1.00  0.00    -0.254 C  
HETATM    4  C   UNK A   1     -10.076  12.809  67.914  1.00  0.00    -0.231 C  
HETATM    5  C   UNK A   1     -10.702  11.644  67.151  1.00  0.00    -0.247 C  
HETATM    6  N   UNK A   1      -9.825  10.526  66.771  1.00  0.00    -0.186 N  
HETATM    7  C   UNK A   1      -9.324   9.534  67.613  1.00  0.00    -0.123 C  
HETATM    8  C   UNK A   1     -10.035  10.167  65.339  1.00  0.00    -0.307 C  
HETATM    9  C   UNK A   1      -8.803  10.125  64.414  1.00  0.00    -0.211 C  
HETATM   10  C   UNK A   1     -11.029  11.197  64.788  1.00  0.00    -0.218 C  
HETATM   11  O   UNK A   1      -8.790   8.542  67.103  1.00  0.00    -0.127 OA 
HETATM   12  O   UNK A   1      -7.637  10.428  65.033  1.00  0.00    -0.142 OA 
HETATM   13  O   UNK A   1      -8.859   9.885  63.222  1.00  0.00    -0.205 OA 
ENDROOT
BRANCH   7  14
HETATM   14  C   UNK A   1      -9.366   9.683  69.159  1.00  0.00    -0.172 C  
HETATM   15  C   UNK A   1      -8.048  10.303  69.653  1.00  0.00    -0.157 C  
BRANCH  14  16
HETATM   16  N   UNK A   1      -9.608   8.361  69.787  1.00  0.00    -0.170 NA 
HETATM   17  H   UNK A   1      -8.943   8.193  70.541  1.00  0.00     0.000 HD 
BRANCH  16  18
HETATM   18  C   UNK A   0     -11.012   8.178  70.268  1.00  0.00    -0.240 C  
BRANCH  18  19
HETATM   19  C   UNK A   0     -11.511   6.771  69.940  1.00  0.00    -0.355 C  
BRANCH  19  20
HETATM   20  C   UNK A   0     -10.680   5.638  70.559  1.00  0.00    -0.344 C  
BRANCH  20  21
HETATM   21  C   UNK A   0     -10.045   4.873  69.423  1.00  0.00    -0.270 A  
HETATM   22  C   UNK A   0      -9.535   3.585  69.635  1.00  0.00    -0.235 A  
HETATM   23  C   UNK A   0     -10.128   5.372  68.115  1.00  0.00    -0.220 A  
HETATM   24  C   UNK A   0      -9.163   2.789  68.553  1.00  0.00    -0.241 A  
HETATM   25  C   UNK A   0      -9.752   4.575  67.036  1.00  0.00    -0.227 A  
HETATM   26  C   UNK A   0      -9.287   3.280  67.253  1.00  0.00    -0.229 A  
ENDBRANCH  20  21
ENDBRANCH  19  20
ENDBRANCH  18  19
BRANCH  18  27
HETATM   27  C   UNK A   0     -11.080   8.447  71.785  1.00  0.00    -0.290 C  
HETATM   28  O   UNK A   0     -12.101   8.488  72.457  1.00  0.00    -0.389 OA 
BRANCH  27  29
HETATM   29  O   UNK A   0      -9.812   8.624  72.266  1.00  0.00    -0.305 OA 
BRANCH  29  30
HETATM   30  C   UNK A   0      -9.462   7.860  73.431  1.00  0.00    -0.275 C  
HETATM   31  C   UNK A   0      -8.361   6.863  73.116  1.00  0.00    -0.127 C  
ENDBRANCH  29  30
ENDBRANCH  27  29
ENDBRANCH  18  27
ENDBRANCH  16  18
ENDBRANCH  14  16
ENDBRANCH   7  14
TORSDOF 9
ENDMDL
MODEL      144
REMARK 921   NORMALIZED FREE ENERGY PREDICTED BY IDOCK:   -4.58 KCAL/MOL
REMARK 922        TOTAL FREE ENERGY PREDICTED BY IDOCK:   -8.62 KCAL/MOL
REMARK 923 INTER-LIGAND FREE ENERGY PREDICTED BY IDOCK:   -7.63 KCAL/MOL
REMARK 924 INTRA-LIGAND FREE ENERGY PREDICTED BY IDOCK:   -0.99 KCAL/MOL
REMARK 927      BINDING AFFINITY PREDICTED BY RF-SCORE:    0.00 PKD
ROOT
HETATM    1  C   UNK A   1      -7.503   6.388  66.133  1.00  0.00    -0.082 C  
HETATM    2  C   UNK A   1      -6.309   6.020  67.035  1.00  0.00    -0.042 C  
HETATM    3  C   UNK A   1      -6.256   7.088  68.120  1.00  0.00    -0.035 C  
HETATM    4  C   UNK A   1      -7.079   8.234  67.558  1.00  0.00    -0.083 C  
HETATM    5  C   UNK A   1      -8.234   7.545  66.836  1.00  0.00    -0.124 C  
HETATM    6  N   UNK A   1      -9.256   6.881  67.659  1.00  0.00    -0.120 N  
HETATM    7  C   UNK A   1     -10.262   7.500  68.401  1.00  0.00    -0.185 C  
HETATM    8  C   UNK A   1      -9.534   5.513  67.137  1.00  0.00    -0.122 C  
HETATM    9  C   UNK A   1      -9.424   4.327  68.116  1.00  0.00    -0.157 C  
HETATM   10  C   UNK A   1      -8.546   5.293  65.984  1.00  0.00    -0.124 C  
HETATM   11  O   UNK A   1     -11.176   6.800  68.854  1.00  0.00    -0.208 OA 
HETATM   12  O   UNK A   1      -9.077   4.681  69.375  1.00  0.00    -0.095 OA 
HETATM   13  O   UNK A   1      -9.588   3.165  67.792  1.00  0.00    -0.198 OA 
ENDROOT
BRANCH   7  14
HETATM   14  C   UNK A   1     -10.219   9.021  68.717  1.00  0.00    -0.208 C  
HETATM   15  C   UNK A   1     -10.234   9.230  70.241  1.00  0.00    -0.270 C  
BRANCH  14  16
HETATM   16  N   UNK A   1     -11.366   9.703  68.069  1.00  0.00    -0.485 NA 
HETATM   17  H   UNK A   1     -12.143   9.801  68.721  1.00  0.00     0.000 HD 
BRANCH  16  18
HETATM   18  C   UNK A   0     -11.009  11.025  67.467  1.00  0.00    -0.281 C  
BRANCH  18  19
HETATM   19  C   UNK A   0     -10.664  12.035  68.562  1.00  0.00    -0.261 C  
BRANCH  19  20
HETATM   20  C   UNK A   0     -11.568  13.276  68.594  1.00  0.00    -0.362 C  
BRANCH  20  21
HETATM   21  C   UNK A   0     -12.152  13.371  69.983  1.00  0.00    -0.404 A  
HETATM   22  C   UNK A   0     -12.594  14.603  70.483  1.00  0.00    -0.409 A  
HETATM   23  C   UNK A   0     -12.424  12.199  70.706  1.00  0.00    -0.362 A  
HETATM   24  C   UNK A   0     -13.340  14.659  71.659  1.00  0.00    -0.435 A  
HETATM   25  C   UNK A   0     -13.167  12.259  71.883  1.00  0.00    -0.481 A  
HETATM   26  C   UNK A   0     -13.639  13.483  72.349  1.00  0.00    -0.709 A  
ENDBRANCH  20  21
ENDBRANCH  19  20
ENDBRANCH  18  19
BRANCH  18  27
HETATM   27  C   UNK A   0      -9.831  10.850  66.489  1.00  0.00    -0.204 C  
HETATM   28  O   UNK A   0      -8.676  11.194  66.694  1.00  0.00    -0.154 OA 
BRANCH  27  29
HETATM   29  O   UNK A   0     -10.280  10.237  65.351  1.00  0.00    -0.297 OA 
BRANCH  29  30
HETATM   30  C   UNK A   0     -10.359  11.059  64.176  1.00  0.00    -0.369 C  
HETATM   31  C   UNK A   0     -10.496  12.525  64.547  1.00  0.00    -0.366 C  
ENDBRANCH  29  30
ENDBRANCH  27  29
ENDBRANCH  18  27
ENDBRANCH  16  18
ENDBRANCH  14  16
ENDBRANCH   7  14
TORSDOF 9
ENDMDL
MODEL      145
REMARK 921   NORMALIZED FREE ENERGY PREDICTED BY IDOCK:   -4.57 KCAL/MOL
REMARK 922        TOTAL FREE ENERGY PREDICTED BY IDOCK:   -8.61 KCAL/MOL
REMARK 923 INTER-LIGAND FREE ENERGY PREDICTED BY IDOCK:   -6.21 KCAL/MOL
REMARK 924 INTRA-LIGAND FREE ENERGY PREDICTED BY IDOCK:   -2.40 KCAL/MOL
REMARK 927      BINDING AFFINITY PREDICTED BY RF-SCORE:    0.00 PKD
ROOT
HETATM    1  C   UNK A   1      -8.507   9.019  70.234  1.00  0.00    -0.180 C  
HETATM    2  C   UNK A   1      -7.291   9.961  70.329  1.00  0.00    -0.166 C  
HETATM    3  C   UNK A   1      -6.358   9.559  69.194  1.00  0.00    -0.041 C  
HETATM    4  C   UNK A   1      -6.821   8.166  68.803  1.00  0.00    -0.066 C  
HETATM    5  C   UNK A   1      -8.341   8.231  68.924  1.00  0.00    -0.127 C  
HETATM    6  N   UNK A   1      -9.072   9.028  67.926  1.00  0.00    -0.135 N  
HETATM    7  C   UNK A   1      -9.322   8.678  66.599  1.00  0.00    -0.192 C  
HETATM    8  C   UNK A   1     -10.060   9.919  68.598  1.00  0.00    -0.175 C  
HETATM    9  C   UNK A   1     -10.009  11.427  68.281  1.00  0.00    -0.198 C  
HETATM   10  C   UNK A   1      -9.846   9.725  70.105  1.00  0.00    -0.306 C  
HETATM   11  O   UNK A   1     -10.140   9.349  65.958  1.00  0.00    -0.300 OA 
HETATM   12  O   UNK A   1      -9.041  11.774  67.401  1.00  0.00    -0.168 OA 
HETATM   13  O   UNK A   1     -10.738  12.253  68.800  1.00  0.00    -0.228 OA 
ENDROOT
BRANCH   7  14
HETATM   14  C   UNK A   1      -8.554   7.520  65.905  1.00  0.00    -0.151 C  
HETATM   15  C   UNK A   1      -8.009   8.002  64.551  1.00  0.00    -0.151 C  
BRANCH  14  16
HETATM   16  N   UNK A   1      -9.451   6.350  65.739  1.00  0.00    -0.380 NA 
HETATM   17  H   UNK A   1      -9.409   5.996  64.784  1.00  0.00     0.000 HD 
BRANCH  16  18
HETATM   18  C   UNK A   0      -9.189   5.253  66.722  1.00  0.00    -0.126 C  
BRANCH  18  19
HETATM   19  C   UNK A   0     -10.282   5.220  67.790  1.00  0.00    -0.211 C  
BRANCH  19  20
HETATM   20  C   UNK A   0      -9.806   4.767  69.178  1.00  0.00    -0.254 C  
BRANCH  20  21
HETATM   21  C   UNK A   0     -10.406   5.712  70.190  1.00  0.00    -0.341 A  
HETATM   22  C   UNK A   0     -11.581   6.416  69.892  1.00  0.00    -0.422 A  
HETATM   23  C   UNK A   0      -9.895   5.752  71.496  1.00  0.00    -0.209 A  
HETATM   24  C   UNK A   0     -12.263   7.104  70.894  1.00  0.00    -0.354 A  
HETATM   25  C   UNK A   0     -10.577   6.444  72.495  1.00  0.00    -0.240 A  
HETATM   26  C   UNK A   0     -11.767   7.103  72.198  1.00  0.00    -0.322 A  
ENDBRANCH  20  21
ENDBRANCH  19  20
ENDBRANCH  18  19
BRANCH  18  27
HETATM   27  C   UNK A   0      -9.100   3.904  65.983  1.00  0.00    -0.148 C  
HETATM   28  O   UNK A   0      -9.221   2.800  66.496  1.00  0.00    -0.146 OA 
BRANCH  27  29
HETATM   29  O   UNK A   0      -8.871   4.134  64.654  1.00  0.00    -0.125 OA 
BRANCH  29  30
HETATM   30  C   UNK A   0      -9.285   3.098  63.750  1.00  0.00    -0.101 C  
HETATM   31  C   UNK A   0     -10.773   3.192  63.463  1.00  0.00    -0.246 C  
ENDBRANCH  29  30
ENDBRANCH  27  29
ENDBRANCH  18  27
ENDBRANCH  16  18
ENDBRANCH  14  16
ENDBRANCH   7  14
TORSDOF 9
ENDMDL
MODEL      146
REMARK 921   NORMALIZED FREE ENERGY PREDICTED BY IDOCK:   -4.56 KCAL/MOL
REMARK 922        TOTAL FREE ENERGY PREDICTED BY IDOCK:   -8.60 KCAL/MOL
REMARK 923 INTER-LIGAND FREE ENERGY PREDICTED BY IDOCK:   -7.28 KCAL/MOL
REMARK 924 INTRA-LIGAND FREE ENERGY PREDICTED BY IDOCK:   -1.32 KCAL/MOL
REMARK 927      BINDING AFFINITY PREDICTED BY RF-SCORE:    0.00 PKD
ROOT
HETATM    1  C   UNK A   1      -6.741  10.795  67.483  1.00  0.00    -0.073 C  
HETATM    2  C   UNK A   1      -7.282   9.539  68.193  1.00  0.00    -0.080 C  
HETATM    3  C   UNK A   1      -8.668   9.908  68.706  1.00  0.00    -0.132 C  
HETATM    4  C   UNK A   1      -8.681  11.427  68.691  1.00  0.00    -0.121 C  
HETATM    5  C   UNK A   1      -7.910  11.794  67.426  1.00  0.00    -0.155 C  
HETATM    6  N   UNK A   1      -8.555  11.524  66.131  1.00  0.00    -0.320 N  
HETATM    7  C   UNK A   1      -9.596  12.249  65.550  1.00  0.00    -0.099 C  
HETATM    8  C   UNK A   1      -7.604  10.835  65.213  1.00  0.00     0.079 C  
HETATM    9  C   UNK A   1      -8.053   9.508  64.569  1.00  0.00    -0.142 C  
HETATM   10  C   UNK A   1      -6.335  10.578  66.035  1.00  0.00    -0.124 C  
HETATM   11  O   UNK A   1      -9.872  12.034  64.363  1.00  0.00    -0.233 OA 
HETATM   12  O   UNK A   1      -9.298   9.114  64.925  1.00  0.00    -0.161 OA 
HETATM   13  O   UNK A   1      -7.347   8.838  63.837  1.00  0.00    -0.094 OA 
ENDROOT
BRANCH   7  14
HETATM   14  C   UNK A   1     -10.443  13.257  66.374  1.00  0.00    -0.284 C  
HETATM   15  C   UNK A   1     -11.718  13.617  65.593  1.00  0.00    -0.360 C  
BRANCH  14  16
HETATM   16  N   UNK A   1      -9.636  14.464  66.676  1.00  0.00    -0.270 NA 
HETATM   17  H   UNK A   1      -9.526  15.042  65.842  1.00  0.00     0.000 HD 
BRANCH  16  18
HETATM   18  C   UNK A   0     -10.176  15.273  67.813  1.00  0.00    -0.237 C  
BRANCH  18  19
HETATM   19  C   UNK A   0     -10.755  14.358  68.892  1.00  0.00    -0.260 C  
BRANCH  19  20
HETATM   20  C   UNK A   0     -12.278  14.454  69.062  1.00  0.00    -0.233 C  
BRANCH  20  21
HETATM   21  C   UNK A   0     -12.551  14.754  70.516  1.00  0.00    -0.416 A  
HETATM   22  C   UNK A   0     -13.383  13.914  71.268  1.00  0.00    -0.314 A  
HETATM   23  C   UNK A   0     -11.829  15.766  71.166  1.00  0.00    -0.471 A  
HETATM   24  C   UNK A   0     -13.453  14.049  72.653  1.00  0.00    -0.650 A  
HETATM   25  C   UNK A   0     -11.903  15.901  72.551  1.00  0.00    -0.613 A  
HETATM   26  C   UNK A   0     -12.700  15.033  73.294  1.00  0.00    -0.635 A  
ENDBRANCH  20  21
ENDBRANCH  19  20
ENDBRANCH  18  19
BRANCH  18  27
HETATM   27  C   UNK A   0      -9.060  16.166  68.389  1.00  0.00    -0.199 C  
HETATM   28  O   UNK A   0      -9.208  17.299  68.827  1.00  0.00    -0.270 OA 
BRANCH  27  29
HETATM   29  O   UNK A   0      -7.873  15.488  68.343  1.00  0.00    -0.121 OA 
BRANCH  29  30
HETATM   30  C   UNK A   0      -7.347  15.041  69.603  1.00  0.00    -0.181 C  
HETATM   31  C   UNK A   0      -6.182  14.090  69.399  1.00  0.00    -0.108 C  
ENDBRANCH  29  30
ENDBRANCH  27  29
ENDBRANCH  18  27
ENDBRANCH  16  18
ENDBRANCH  14  16
ENDBRANCH   7  14
TORSDOF 9
ENDMDL
MODEL      147
REMARK 921   NORMALIZED FREE ENERGY PREDICTED BY IDOCK:   -4.55 KCAL/MOL
REMARK 922        TOTAL FREE ENERGY PREDICTED BY IDOCK:   -8.58 KCAL/MOL
REMARK 923 INTER-LIGAND FREE ENERGY PREDICTED BY IDOCK:   -7.63 KCAL/MOL
REMARK 924 INTRA-LIGAND FREE ENERGY PREDICTED BY IDOCK:   -0.95 KCAL/MOL
REMARK 927      BINDING AFFINITY PREDICTED BY RF-SCORE:    0.00 PKD
ROOT
HETATM    1  C   UNK A   1     -10.878  14.964  69.702  1.00  0.00    -0.269 C  
HETATM    2  C   UNK A   1     -11.909  15.634  68.772  1.00  0.00    -0.336 C  
HETATM    3  C   UNK A   1     -12.614  14.500  68.039  1.00  0.00     0.539 C  
HETATM    4  C   UNK A   1     -11.686  13.309  68.208  1.00  0.00    -0.388 C  
HETATM    5  C   UNK A   1     -11.154  13.452  69.631  1.00  0.00     0.043 C  
HETATM    6  N   UNK A   1     -12.089  13.202  70.739  1.00  0.00    -0.503 N  
HETATM    7  C   UNK A   1     -12.553  11.961  71.176  1.00  0.00    -0.288 C  
HETATM    8  C   UNK A   1     -11.999  14.294  71.749  1.00  0.00    -0.023 C  
HETATM    9  C   UNK A   1     -13.300  15.018  72.151  1.00  0.00    -0.387 C  
HETATM   10  C   UNK A   1     -11.021  15.324  71.170  1.00  0.00    -0.249 C  
HETATM   11  O   UNK A   1     -13.153  11.904  72.256  1.00  0.00    -0.385 OA 
HETATM   12  O   UNK A   1     -14.405  14.560  71.518  1.00  0.00    -0.433 OA 
HETATM   13  O   UNK A   1     -13.341  15.950  72.934  1.00  0.00    -0.513 OA 
ENDROOT
BRANCH   7  14
HETATM   14  C   UNK A   1     -12.388  10.681  70.311  1.00  0.00    -0.325 C  
HETATM   15  C   UNK A   1     -13.071   9.495  71.011  1.00  0.00    -0.263 C  
BRANCH  14  16
HETATM   16  N   UNK A   1     -10.948  10.413  70.078  1.00  0.00    -0.295 NA 
HETATM   17  H   UNK A   1     -10.519  10.002  70.906  1.00  0.00     0.000 HD 
BRANCH  16  18
HETATM   18  C   UNK A   0     -10.687   9.568  68.871  1.00  0.00    -0.195 C  
BRANCH  18  19
HETATM   19  C   UNK A   0      -9.756  10.294  67.901  1.00  0.00    -0.165 C  
BRANCH  19  20
HETATM   20  C   UNK A   0     -10.022   9.997  66.418  1.00  0.00    -0.300 C  
BRANCH  20  21
HETATM   21  C   UNK A   0     -10.122  11.324  65.705  1.00  0.00    -0.295 A  
HETATM   22  C   UNK A   0     -11.024  11.493  64.646  1.00  0.00    -0.353 A  
HETATM   23  C   UNK A   0      -9.445  12.442  66.215  1.00  0.00    -0.220 A  
HETATM   24  C   UNK A   0     -11.287  12.765  64.142  1.00  0.00    -0.442 A  
HETATM   25  C   UNK A   0      -9.708  13.712  65.706  1.00  0.00    -0.162 A  
HETATM   26  C   UNK A   0     -10.640  13.876  64.684  1.00  0.00    -0.432 A  
ENDBRANCH  20  21
ENDBRANCH  19  20
ENDBRANCH  18  19
BRANCH  18  27
HETATM   27  C   UNK A   0     -10.086   8.216  69.305  1.00  0.00    -0.202 C  
HETATM   28  O   UNK A   0      -9.721   7.928  70.436  1.00  0.00    -0.178 OA 
BRANCH  27  29
HETATM   29  O   UNK A   0     -10.030   7.381  68.222  1.00  0.00    -0.154 OA 
BRANCH  29  30
HETATM   30  C   UNK A   0     -10.633   6.089  68.386  1.00  0.00    -0.261 C  
HETATM   31  C   UNK A   0      -9.581   4.994  68.381  1.00  0.00    -0.195 C  
ENDBRANCH  29  30
ENDBRANCH  27  29
ENDBRANCH  18  27
ENDBRANCH  16  18
ENDBRANCH  14  16
ENDBRANCH   7  14
TORSDOF 9
ENDMDL
MODEL      148
REMARK 921   NORMALIZED FREE ENERGY PREDICTED BY IDOCK:   -4.53 KCAL/MOL
REMARK 922        TOTAL FREE ENERGY PREDICTED BY IDOCK:   -8.55 KCAL/MOL
REMARK 923 INTER-LIGAND FREE ENERGY PREDICTED BY IDOCK:   -8.44 KCAL/MOL
REMARK 924 INTRA-LIGAND FREE ENERGY PREDICTED BY IDOCK:   -0.11 KCAL/MOL
REMARK 927      BINDING AFFINITY PREDICTED BY RF-SCORE:    0.00 PKD
ROOT
HETATM    1  C   UNK A   1      -9.164  16.270  67.849  1.00  0.00    -0.201 C  
HETATM    2  C   UNK A   1      -7.932  15.815  67.041  1.00  0.00    -0.272 C  
HETATM    3  C   UNK A   1      -7.841  14.306  67.227  1.00  0.00    -0.170 C  
HETATM    4  C   UNK A   1      -8.692  14.026  68.454  1.00  0.00    -0.179 C  
HETATM    5  C   UNK A   1      -9.871  14.985  68.315  1.00  0.00    -0.219 C  
HETATM    6  N   UNK A   1     -10.856  14.709  67.257  1.00  0.00    -0.298 N  
HETATM    7  C   UNK A   1     -11.834  13.715  67.266  1.00  0.00    -0.391 C  
HETATM    8  C   UNK A   1     -11.147  15.950  66.485  1.00  0.00    -0.028 C  
HETATM    9  C   UNK A   1     -10.991  15.903  64.952  1.00  0.00    -0.411 C  
HETATM   10  C   UNK A   1     -10.206  17.025  67.042  1.00  0.00    -0.303 C  
HETATM   11  O   UNK A   1     -12.724  13.757  66.409  1.00  0.00    -0.334 OA 
HETATM   12  O   UNK A   1     -10.595  14.700  64.474  1.00  0.00    -0.318 OA 
HETATM   13  O   UNK A   1     -11.162  16.864  64.224  1.00  0.00    -1.204 OA 
ENDROOT
BRANCH   7  14
HETATM   14  C   UNK A   1     -11.786  12.537  68.278  1.00  0.00    -0.340 C  
HETATM   15  C   UNK A   1     -11.790  13.091  69.713  1.00  0.00    -0.381 C  
BRANCH  14  16
HETATM   16  N   UNK A   1     -10.584  11.705  68.026  1.00  0.00    -0.194 NA 
HETATM   17  H   UNK A   1      -9.755  12.135  68.435  1.00  0.00     0.000 HD 
BRANCH  16  18
HETATM   18  C   UNK A   0     -10.731  10.291  68.489  1.00  0.00    -0.227 C  
BRANCH  18  19
HETATM   19  C   UNK A   0     -10.675   9.330  67.301  1.00  0.00    -0.244 C  
BRANCH  19  20
HETATM   20  C   UNK A   0      -9.263   8.855  66.929  1.00  0.00    -0.185 C  
BRANCH  20  21
HETATM   21  C   UNK A   0      -9.380   7.428  66.449  1.00  0.00    -0.206 A  
HETATM   22  C   UNK A   0      -8.328   6.831  65.742  1.00  0.00    -0.143 A  
HETATM   23  C   UNK A   0     -10.462   6.640  66.867  1.00  0.00    -0.349 A  
HETATM   24  C   UNK A   0      -8.332   5.458  65.502  1.00  0.00    -0.133 A  
HETATM   25  C   UNK A   0     -10.465   5.268  66.622  1.00  0.00    -0.345 A  
HETATM   26  C   UNK A   0      -9.394   4.676  65.957  1.00  0.00    -0.156 A  
ENDBRANCH  20  21
ENDBRANCH  19  20
ENDBRANCH  18  19
BRANCH  18  27
HETATM   27  C   UNK A   0      -9.626   9.963  69.514  1.00  0.00    -0.225 C  
HETATM   28  O   UNK A   0      -8.587  10.589  69.667  1.00  0.00    -0.107 OA 
BRANCH  27  29
HETATM   29  O   UNK A   0      -9.996   8.860  70.235  1.00  0.00    -0.172 OA 
BRANCH  29  30
HETATM   30  C   UNK A   0     -10.212   9.064  71.640  1.00  0.00    -0.348 C  
HETATM   31  C   UNK A   0     -10.951   7.888  72.252  1.00  0.00    -0.359 C  
ENDBRANCH  29  30
ENDBRANCH  27  29
ENDBRANCH  18  27
ENDBRANCH  16  18
ENDBRANCH  14  16
ENDBRANCH   7  14
TORSDOF 9
ENDMDL
MODEL      149
REMARK 921   NORMALIZED FREE ENERGY PREDICTED BY IDOCK:   -4.52 KCAL/MOL
REMARK 922        TOTAL FREE ENERGY PREDICTED BY IDOCK:   -8.53 KCAL/MOL
REMARK 923 INTER-LIGAND FREE ENERGY PREDICTED BY IDOCK:   -7.24 KCAL/MOL
REMARK 924 INTRA-LIGAND FREE ENERGY PREDICTED BY IDOCK:   -1.29 KCAL/MOL
REMARK 927      BINDING AFFINITY PREDICTED BY RF-SCORE:    0.00 PKD
ROOT
HETATM    1  C   UNK A   1     -11.160   6.256  68.726  1.00  0.00    -0.424 C  
HETATM    2  C   UNK A   1     -10.191   5.106  68.388  1.00  0.00    -0.175 C  
HETATM    3  C   UNK A   1      -8.970   5.757  67.754  1.00  0.00    -0.107 C  
HETATM    4  C   UNK A   1      -9.454   7.134  67.334  1.00  0.00    -0.156 C  
HETATM    5  C   UNK A   1     -10.388   7.560  68.463  1.00  0.00    -0.199 C  
HETATM    6  N   UNK A   1      -9.783   7.892  69.762  1.00  0.00    -0.175 N  
HETATM    7  C   UNK A   1      -9.079   9.052  70.084  1.00  0.00    -0.188 C  
HETATM    8  C   UNK A   1     -10.518   7.209  70.865  1.00  0.00    -0.210 C  
HETATM    9  C   UNK A   1      -9.708   6.341  71.848  1.00  0.00    -0.152 C  
HETATM   10  C   UNK A   1     -11.574   6.327  70.185  1.00  0.00    -0.385 C  
HETATM   11  O   UNK A   1      -8.831   9.280  71.274  1.00  0.00    -0.290 OA 
HETATM   12  O   UNK A   1      -8.380   6.302  71.585  1.00  0.00    -0.126 OA 
HETATM   13  O   UNK A   1     -10.206   5.706  72.760  1.00  0.00    -0.176 OA 
ENDROOT
BRANCH   7  14
HETATM   14  C   UNK A   1      -8.551  10.013  68.983  1.00  0.00    -0.153 C  
HETATM   15  C   UNK A   1      -7.013  10.008  68.990  1.00  0.00    -0.056 C  
BRANCH  14  16
HETATM   16  N   UNK A   1      -9.086  11.378  69.207  1.00  0.00    -0.367 NA 
HETATM   17  H   UNK A   1      -8.363  11.992  69.581  1.00  0.00     0.000 HD 
BRANCH  16  18
HETATM   18  C   UNK A   0      -9.715  11.978  67.991  1.00  0.00    -0.198 C  
BRANCH  18  19
HETATM   19  C   UNK A   0     -10.511  13.230  68.362  1.00  0.00    -0.261 C  
BRANCH  19  20
HETATM   20  C   UNK A   0     -11.076  14.007  67.164  1.00  0.00    -0.313 C  
BRANCH  20  21
HETATM   21  C   UNK A   0     -10.621  15.440  67.302  1.00  0.00    -0.294 A  
HETATM   22  C   UNK A   0     -10.520  16.262  66.172  1.00  0.00    -0.330 A  
HETATM   23  C   UNK A   0     -10.474  16.004  68.577  1.00  0.00    -0.258 A  
HETATM   24  C   UNK A   0     -10.329  17.635  66.315  1.00  0.00    -0.342 A  
HETATM   25  C   UNK A   0     -10.279  17.377  68.717  1.00  0.00    -0.361 A  
HETATM   26  C   UNK A   0     -10.224  18.193  67.590  1.00  0.00    -0.385 A  
ENDBRANCH  20  21
ENDBRANCH  19  20
ENDBRANCH  18  19
BRANCH  18  27
HETATM   27  C   UNK A   0      -8.625  12.308  66.952  1.00  0.00    -0.182 C  
HETATM   28  O   UNK A   0      -7.741  13.143  67.085  1.00  0.00    -0.127 OA 
BRANCH  27  29
HETATM   29  O   UNK A   0      -8.795  11.510  65.853  1.00  0.00    -0.187 OA 
BRANCH  29  30
HETATM   30  C   UNK A   0     -10.102  10.939  65.680  1.00  0.00    -0.261 C  
HETATM   31  C   UNK A   0     -10.751  11.445  64.404  1.00  0.00    -0.405 C  
ENDBRANCH  29  30
ENDBRANCH  27  29
ENDBRANCH  18  27
ENDBRANCH  16  18
ENDBRANCH  14  16
ENDBRANCH   7  14
TORSDOF 9
ENDMDL
MODEL      150
REMARK 921   NORMALIZED FREE ENERGY PREDICTED BY IDOCK:   -4.52 KCAL/MOL
REMARK 922        TOTAL FREE ENERGY PREDICTED BY IDOCK:   -8.53 KCAL/MOL
REMARK 923 INTER-LIGAND FREE ENERGY PREDICTED BY IDOCK:   -6.87 KCAL/MOL
REMARK 924 INTRA-LIGAND FREE ENERGY PREDICTED BY IDOCK:   -1.66 KCAL/MOL
REMARK 927      BINDING AFFINITY PREDICTED BY RF-SCORE:    0.00 PKD
ROOT
HETATM    1  C   UNK A   1      -8.223  11.020  67.153  1.00  0.00    -0.133 C  
HETATM    2  C   UNK A   1      -8.860  10.482  65.857  1.00  0.00    -0.180 C  
HETATM    3  C   UNK A   1      -9.385   9.092  66.191  1.00  0.00    -0.288 C  
HETATM    4  C   UNK A   1      -8.649   8.709  67.463  1.00  0.00    -0.135 C  
HETATM    5  C   UNK A   1      -8.576  10.010  68.258  1.00  0.00    -0.115 C  
HETATM    6  N   UNK A   1      -9.826  10.527  68.837  1.00  0.00    -0.192 N  
HETATM    7  C   UNK A   1     -10.495  10.034  69.957  1.00  0.00    -0.287 C  
HETATM    8  C   UNK A   1      -9.972  11.980  68.537  1.00  0.00    -0.184 C  
HETATM    9  C   UNK A   1     -11.275  12.453  67.860  1.00  0.00    -0.266 C  
HETATM   10  C   UNK A   1      -8.788  12.346  67.633  1.00  0.00    -0.177 C  
HETATM   11  O   UNK A   1     -11.404  10.714  70.448  1.00  0.00    -0.307 OA 
HETATM   12  O   UNK A   1     -12.160  11.459  67.612  1.00  0.00    -0.630 OA 
HETATM   13  O   UNK A   1     -11.487  13.606  67.532  1.00  0.00    -0.296 OA 
ENDROOT
BRANCH   7  14
HETATM   14  C   UNK A   1     -10.167   8.635  70.547  1.00  0.00    -0.197 C  
HETATM   15  C   UNK A   1     -11.036   7.569  69.861  1.00  0.00    -0.185 C  
BRANCH  14  16
HETATM   16  N   UNK A   1     -10.384   8.644  72.015  1.00  0.00    -0.329 NA 
HETATM   17  H   UNK A   1     -11.194   8.076  72.263  1.00  0.00     0.000 HD 
BRANCH  16  18
HETATM   18  C   UNK A   0      -9.182   8.223  72.798  1.00  0.00    -0.266 C  
BRANCH  18  19
HETATM   19  C   UNK A   0      -9.355   6.797  73.320  1.00  0.00    -0.157 C  
BRANCH  19  20
HETATM   20  C   UNK A   0     -10.784   6.244  73.205  1.00  0.00    -0.286 C  
BRANCH  20  21
HETATM   21  C   UNK A   0     -10.673   4.793  72.805  1.00  0.00    -0.282 A  
HETATM   22  C   UNK A   0      -9.992   4.430  71.636  1.00  0.00    -0.256 A  
HETATM   23  C   UNK A   0     -11.092   3.791  73.694  1.00  0.00    -0.318 A  
HETATM   24  C   UNK A   0      -9.687   3.094  71.384  1.00  0.00    -0.219 A  
HETATM   25  C   UNK A   0     -10.788   2.456  73.438  1.00  0.00    -0.285 A  
HETATM   26  C   UNK A   0     -10.072   2.110  72.295  1.00  0.00    -0.231 A  
ENDBRANCH  20  21
ENDBRANCH  19  20
ENDBRANCH  18  19
BRANCH  18  27
HETATM   27  C   UNK A   0      -7.922   8.337  71.916  1.00  0.00    -0.127 C  
HETATM   28  O   UNK A   0      -7.392   9.381  71.562  1.00  0.00    -0.334 OA 
BRANCH  27  29
HETATM   29  O   UNK A   0      -7.483   7.081  71.597  1.00  0.00    -0.085 OA 
BRANCH  29  30
HETATM   30  C   UNK A   0      -6.960   6.910  70.270  1.00  0.00    -0.066 C  
HETATM   31  C   UNK A   0      -6.926   5.442  69.885  1.00  0.00    -0.061 C  
ENDBRANCH  29  30
ENDBRANCH  27  29
ENDBRANCH  18  27
ENDBRANCH  16  18
ENDBRANCH  14  16
ENDBRANCH   7  14
TORSDOF 9
ENDMDL
MODEL      151
REMARK 921   NORMALIZED FREE ENERGY PREDICTED BY IDOCK:   -4.50 KCAL/MOL
REMARK 922        TOTAL FREE ENERGY PREDICTED BY IDOCK:   -8.50 KCAL/MOL
REMARK 923 INTER-LIGAND FREE ENERGY PREDICTED BY IDOCK:   -7.95 KCAL/MOL
REMARK 924 INTRA-LIGAND FREE ENERGY PREDICTED BY IDOCK:   -0.55 KCAL/MOL
REMARK 927      BINDING AFFINITY PREDICTED BY RF-SCORE:    0.00 PKD
ROOT
HETATM    1  C   UNK A   1      -7.494   6.188  69.343  1.00  0.00    -0.093 C  
HETATM    2  C   UNK A   1      -6.924   7.295  68.434  1.00  0.00    -0.079 C  
HETATM    3  C   UNK A   1      -8.100   8.195  68.077  1.00  0.00    -0.128 C  
HETATM    4  C   UNK A   1      -9.325   7.351  68.385  1.00  0.00    -0.144 C  
HETATM    5  C   UNK A   1      -8.946   6.593  69.654  1.00  0.00    -0.142 C  
HETATM    6  N   UNK A   1      -8.849   7.360  70.905  1.00  0.00    -0.147 N  
HETATM    7  C   UNK A   1      -9.908   7.848  71.670  1.00  0.00    -0.167 C  
HETATM    8  C   UNK A   1      -7.584   7.026  71.621  1.00  0.00    -0.089 C  
HETATM    9  C   UNK A   1      -6.649   8.184  72.021  1.00  0.00    -0.067 C  
HETATM   10  C   UNK A   1      -6.817   6.070  70.697  1.00  0.00    -0.058 C  
HETATM   11  O   UNK A   1      -9.667   8.274  72.806  1.00  0.00    -0.269 OA 
HETATM   12  O   UNK A   1      -7.103   9.409  71.663  1.00  0.00    -0.320 OA 
HETATM   13  O   UNK A   1      -5.574   8.028  72.570  1.00  0.00    -0.036 OA 
ENDROOT
BRANCH   7  14
HETATM   14  C   UNK A   1     -11.352   7.924  71.102  1.00  0.00    -0.266 C  
HETATM   15  C   UNK A   1     -11.848   6.509  70.764  1.00  0.00    -0.394 C  
BRANCH  14  16
HETATM   16  N   UNK A   1     -11.377   8.804  69.907  1.00  0.00    -0.445 NA 
HETATM   17  H   UNK A   1     -12.213   8.631  69.349  1.00  0.00     0.000 HD 
BRANCH  16  18
HETATM   18  C   UNK A   0     -11.250  10.258  70.235  1.00  0.00    -0.323 C  
BRANCH  18  19
HETATM   19  C   UNK A   0     -10.777  11.042  69.011  1.00  0.00    -0.258 C  
BRANCH  19  20
HETATM   20  C   UNK A   0     -11.881  11.366  67.994  1.00  0.00    -0.273 C  
BRANCH  20  21
HETATM   21  C   UNK A   0     -11.224  11.481  66.639  1.00  0.00    -0.336 A  
HETATM   22  C   UNK A   0     -10.243  10.560  66.248  1.00  0.00    -0.296 A  
HETATM   23  C   UNK A   0     -11.722  12.395  65.699  1.00  0.00    -0.468 A  
HETATM   24  C   UNK A   0      -9.804  10.518  64.926  1.00  0.00    -0.379 A  
HETATM   25  C   UNK A   0     -11.279  12.353  64.379  1.00  0.00    -0.384 A  
HETATM   26  C   UNK A   0     -10.335  11.405  63.989  1.00  0.00    -0.418 A  
ENDBRANCH  20  21
ENDBRANCH  19  20
ENDBRANCH  18  19
BRANCH  18  27
HETATM   27  C   UNK A   0     -12.603  10.795  70.744  1.00  0.00    -0.383 C  
HETATM   28  O   UNK A   0     -13.653  10.169  70.772  1.00  0.00    -0.233 OA 
BRANCH  27  29
HETATM   29  O   UNK A   0     -12.442  12.085  71.169  1.00  0.00    -0.348 OA 
BRANCH  29  30
HETATM   30  C   UNK A   0     -13.371  12.546  72.162  1.00  0.00    -0.435 C  
HETATM   31  C   UNK A   0     -13.354  14.061  72.260  1.00  0.00    -0.574 C  
ENDBRANCH  29  30
ENDBRANCH  27  29
ENDBRANCH  18  27
ENDBRANCH  16  18
ENDBRANCH  14  16
ENDBRANCH   7  14
TORSDOF 9
ENDMDL
MODEL      152
REMARK 921   NORMALIZED FREE ENERGY PREDICTED BY IDOCK:   -4.49 KCAL/MOL
REMARK 922        TOTAL FREE ENERGY PREDICTED BY IDOCK:   -8.48 KCAL/MOL
REMARK 923 INTER-LIGAND FREE ENERGY PREDICTED BY IDOCK:   -7.36 KCAL/MOL
REMARK 924 INTRA-LIGAND FREE ENERGY PREDICTED BY IDOCK:   -1.12 KCAL/MOL
REMARK 927      BINDING AFFINITY PREDICTED BY RF-SCORE:    0.00 PKD
ROOT
HETATM    1  C   UNK A   1      -8.672   5.450  73.450  1.00  0.00    -0.115 C  
HETATM    2  C   UNK A   1      -8.688   3.916  73.297  1.00  0.00    -0.091 C  
HETATM    3  C   UNK A   1      -9.800   3.603  72.305  1.00  0.00    -0.234 C  
HETATM    4  C   UNK A   1     -10.653   4.860  72.288  1.00  0.00    -0.251 C  
HETATM    5  C   UNK A   1      -9.641   5.998  72.388  1.00  0.00    -0.151 C  
HETATM    6  N   UNK A   1      -8.787   6.258  71.218  1.00  0.00    -0.139 N  
HETATM    7  C   UNK A   1      -9.168   6.876  70.027  1.00  0.00    -0.155 C  
HETATM    8  C   UNK A   1      -7.363   6.397  71.637  1.00  0.00    -0.088 C  
HETATM    9  C   UNK A   1      -6.313   5.509  70.941  1.00  0.00    -0.034 C  
HETATM   10  C   UNK A   1      -7.336   6.103  73.143  1.00  0.00    -0.092 C  
HETATM   11  O   UNK A   1      -8.284   7.222  69.235  1.00  0.00    -0.127 OA 
HETATM   12  O   UNK A   1      -6.826   4.681  70.000  1.00  0.00    -0.042 OA 
HETATM   13  O   UNK A   1      -5.129   5.507  71.229  1.00  0.00    -0.008 OA 
ENDROOT
BRANCH   7  14
HETATM   14  C   UNK A   1     -10.664   7.073  69.657  1.00  0.00    -0.241 C  
HETATM   15  C   UNK A   1     -11.145   5.883  68.810  1.00  0.00    -0.218 C  
BRANCH  14  16
HETATM   16  N   UNK A   1     -10.838   8.356  68.933  1.00  0.00    -0.425 NA 
HETATM   17  H   UNK A   1     -11.750   8.391  68.476  1.00  0.00     0.000 HD 
BRANCH  16  18
HETATM   18  C   UNK A   0     -10.630   9.560  69.795  1.00  0.00    -0.236 C  
BRANCH  18  19
HETATM   19  C   UNK A   0     -10.839  10.840  68.986  1.00  0.00    -0.278 C  
BRANCH  19  20
HETATM   20  C   UNK A   0     -11.179  10.612  67.506  1.00  0.00    -0.326 C  
BRANCH  20  21
HETATM   21  C   UNK A   0     -11.322  11.970  66.863  1.00  0.00    -0.400 A  
HETATM   22  C   UNK A   0     -11.395  12.089  65.468  1.00  0.00    -0.381 A  
HETATM   23  C   UNK A   0     -11.565  13.097  67.661  1.00  0.00    -0.392 A  
HETATM   24  C   UNK A   0     -11.757  13.300  64.883  1.00  0.00    -0.375 A  
HETATM   25  C   UNK A   0     -11.923  14.308  67.073  1.00  0.00    -0.463 A  
HETATM   26  C   UNK A   0     -12.036  14.405  65.688  1.00  0.00    -0.359 A  
ENDBRANCH  20  21
ENDBRANCH  19  20
ENDBRANCH  18  19
BRANCH  18  27
HETATM   27  C   UNK A   0     -11.591   9.507  71.000  1.00  0.00    -0.344 C  
HETATM   28  O   UNK A   0     -11.418   8.858  72.022  1.00  0.00    -0.352 OA 
BRANCH  27  29
HETATM   29  O   UNK A   0     -12.669  10.312  70.750  1.00  0.00    -0.335 OA 
BRANCH  29  30
HETATM   30  C   UNK A   0     -13.134  11.109  71.850  1.00  0.00    -0.408 C  
HETATM   31  C   UNK A   0     -12.717  12.559  71.684  1.00  0.00    -0.297 C  
ENDBRANCH  29  30
ENDBRANCH  27  29
ENDBRANCH  18  27
ENDBRANCH  16  18
ENDBRANCH  14  16
ENDBRANCH   7  14
TORSDOF 9
ENDMDL
MODEL      153
REMARK 921   NORMALIZED FREE ENERGY PREDICTED BY IDOCK:   -4.49 KCAL/MOL
REMARK 922        TOTAL FREE ENERGY PREDICTED BY IDOCK:   -8.48 KCAL/MOL
REMARK 923 INTER-LIGAND FREE ENERGY PREDICTED BY IDOCK:   -8.23 KCAL/MOL
REMARK 924 INTRA-LIGAND FREE ENERGY PREDICTED BY IDOCK:   -0.25 KCAL/MOL
REMARK 927      BINDING AFFINITY PREDICTED BY RF-SCORE:    0.00 PKD
ROOT
HETATM    1  C   UNK A   1      -9.164   8.469  66.335  1.00  0.00    -0.251 C  
HETATM    2  C   UNK A   1      -8.815   8.745  64.860  1.00  0.00    -0.119 C  
HETATM    3  C   UNK A   1      -9.430  10.098  64.527  1.00  0.00    -0.364 C  
HETATM    4  C   UNK A   1     -10.461  10.320  65.620  1.00  0.00    -0.152 C  
HETATM    5  C   UNK A   1      -9.798   9.762  66.877  1.00  0.00    -0.201 C  
HETATM    6  N   UNK A   1      -8.666  10.512  67.443  1.00  0.00    -0.126 N  
HETATM    7  C   UNK A   1      -8.732  11.704  68.165  1.00  0.00    -0.159 C  
HETATM    8  C   UNK A   1      -7.533   9.591  67.742  1.00  0.00    -0.084 C  
HETATM    9  C   UNK A   1      -6.150   9.927  67.148  1.00  0.00    -0.058 C  
HETATM   10  C   UNK A   1      -7.965   8.210  67.232  1.00  0.00    -0.113 C  
HETATM   11  O   UNK A   1      -7.719  12.086  68.763  1.00  0.00    -0.118 OA 
HETATM   12  O   UNK A   1      -6.130  11.056  66.401  1.00  0.00    -0.115 OA 
HETATM   13  O   UNK A   1      -5.164   9.228  67.291  1.00  0.00    -0.036 OA 
ENDROOT
BRANCH   7  14
HETATM   14  C   UNK A   1     -10.017  12.578  68.175  1.00  0.00    -0.224 C  
HETATM   15  C   UNK A   1     -11.198  11.749  68.706  1.00  0.00    -0.308 C  
BRANCH  14  16
HETATM   16  N   UNK A   1     -10.288  13.090  66.809  1.00  0.00    -0.252 NA 
HETATM   17  H   UNK A   1     -10.509  12.323  66.174  1.00  0.00     0.000 HD 
BRANCH  16  18
HETATM   18  C   UNK A   0     -11.354  14.138  66.767  1.00  0.00    -0.343 C  
BRANCH  18  19
HETATM   19  C   UNK A   0     -10.731  15.533  66.718  1.00  0.00    -0.305 C  
BRANCH  19  20
HETATM   20  C   UNK A   0     -10.734  16.282  68.059  1.00  0.00    -0.331 C  
BRANCH  20  21
HETATM   21  C   UNK A   0     -10.068  17.617  67.830  1.00  0.00    -0.338 A  
HETATM   22  C   UNK A   0     -10.675  18.580  67.013  1.00  0.00    -0.363 A  
HETATM   23  C   UNK A   0      -8.933  17.967  68.577  1.00  0.00    -0.297 A  
HETATM   24  C   UNK A   0     -10.189  19.886  66.983  1.00  0.00    -0.588 A  
HETATM   25  C   UNK A   0      -8.448  19.273  68.542  1.00  0.00    -0.401 A  
HETATM   26  C   UNK A   0      -9.085  20.234  67.761  1.00  0.00    -0.367 A  
ENDBRANCH  20  21
ENDBRANCH  19  20
ENDBRANCH  18  19
BRANCH  18  27
HETATM   27  C   UNK A   0     -12.268  13.900  65.549  1.00  0.00    -0.444 C  
HETATM   28  O   UNK A   0     -13.487  13.999  65.541  1.00  0.00    -0.677 OA 
BRANCH  27  29
HETATM   29  O   UNK A   0     -11.498  13.565  64.468  1.00  0.00    -0.353 OA 
BRANCH  29  30
HETATM   30  C   UNK A   0     -12.205  13.213  63.269  1.00  0.00    -0.360 C  
HETATM   31  C   UNK A   0     -12.600  11.747  63.282  1.00  0.00    -0.382 C  
ENDBRANCH  29  30
ENDBRANCH  27  29
ENDBRANCH  18  27
ENDBRANCH  16  18
ENDBRANCH  14  16
ENDBRANCH   7  14
TORSDOF 9
ENDMDL
MODEL      154
REMARK 921   NORMALIZED FREE ENERGY PREDICTED BY IDOCK:   -4.47 KCAL/MOL
REMARK 922        TOTAL FREE ENERGY PREDICTED BY IDOCK:   -8.46 KCAL/MOL
REMARK 923 INTER-LIGAND FREE ENERGY PREDICTED BY IDOCK:   -7.85 KCAL/MOL
REMARK 924 INTRA-LIGAND FREE ENERGY PREDICTED BY IDOCK:   -0.61 KCAL/MOL
REMARK 927      BINDING AFFINITY PREDICTED BY RF-SCORE:    0.00 PKD
ROOT
HETATM    1  C   UNK A   1      -8.936  15.697  67.818  1.00  0.00    -0.176 C  
HETATM    2  C   UNK A   1      -9.865  16.682  67.081  1.00  0.00    -0.257 C  
HETATM    3  C   UNK A   1     -10.703  15.839  66.129  1.00  0.00    -0.293 C  
HETATM    4  C   UNK A   1      -9.937  14.532  66.011  1.00  0.00    -0.343 C  
HETATM    5  C   UNK A   1      -9.403  14.286  67.420  1.00  0.00    -0.203 C  
HETATM    6  N   UNK A   1     -10.372  13.917  68.463  1.00  0.00    -0.241 N  
HETATM    7  C   UNK A   1     -10.995  12.679  68.624  1.00  0.00    -0.256 C  
HETATM    8  C   UNK A   1     -10.152  14.737  69.688  1.00  0.00     0.011 C  
HETATM    9  C   UNK A   1     -11.352  15.512  70.267  1.00  0.00    -0.332 C  
HETATM   10  C   UNK A   1      -9.045  15.737  69.332  1.00  0.00    -0.254 C  
HETATM   11  O   UNK A   1     -11.606  12.459  69.676  1.00  0.00    -0.285 OA 
HETATM   12  O   UNK A   1     -12.502  15.350  69.570  1.00  0.00    -0.218 OA 
HETATM   13  O   UNK A   1     -11.281  16.244  71.237  1.00  0.00    -0.290 OA 
ENDROOT
BRANCH   7  14
HETATM   14  C   UNK A   1     -10.988  11.613  67.493  1.00  0.00    -0.259 C  
HETATM   15  C   UNK A   1     -11.866  12.096  66.326  1.00  0.00    -0.320 C  
BRANCH  14  16
HETATM   16  N   UNK A   1     -11.464  10.313  68.024  1.00  0.00    -0.654 NA 
HETATM   17  H   UNK A   1     -12.222   9.944  67.450  1.00  0.00     0.000 HD 
BRANCH  16  18
HETATM   18  C   UNK A   0     -10.376   9.298  68.179  1.00  0.00    -0.215 C  
BRANCH  18  19
HETATM   19  C   UNK A   0     -10.304   8.398  66.945  1.00  0.00    -0.378 C  
BRANCH  19  20
HETATM   20  C   UNK A   0     -10.995   7.036  67.107  1.00  0.00    -0.393 C  
BRANCH  20  21
HETATM   21  C   UNK A   0     -10.423   6.386  68.344  1.00  0.00    -0.266 A  
HETATM   22  C   UNK A   0     -11.230   6.172  69.469  1.00  0.00    -0.482 A  
HETATM   23  C   UNK A   0      -9.136   5.829  68.306  1.00  0.00    -0.117 A  
HETATM   24  C   UNK A   0     -10.779   5.371  70.517  1.00  0.00    -0.266 A  
HETATM   25  C   UNK A   0      -8.687   5.031  69.357  1.00  0.00    -0.108 A  
HETATM   26  C   UNK A   0      -9.513   4.789  70.451  1.00  0.00    -0.241 A  
ENDBRANCH  20  21
ENDBRANCH  19  20
ENDBRANCH  18  19
BRANCH  18  27
HETATM   27  C   UNK A   0      -9.031  10.013  68.418  1.00  0.00    -0.121 C  
HETATM   28  O   UNK A   0      -8.306  10.477  67.549  1.00  0.00    -0.117 OA 
BRANCH  27  29
HETATM   29  O   UNK A   0      -8.776  10.053  69.762  1.00  0.00    -0.196 OA 
BRANCH  29  30
HETATM   30  C   UNK A   0      -9.765   9.454  70.613  1.00  0.00    -0.273 C  
HETATM   31  C   UNK A   0      -9.114   8.742  71.785  1.00  0.00    -0.305 C  
ENDBRANCH  29  30
ENDBRANCH  27  29
ENDBRANCH  18  27
ENDBRANCH  16  18
ENDBRANCH  14  16
ENDBRANCH   7  14
TORSDOF 9
ENDMDL
MODEL      155
REMARK 921   NORMALIZED FREE ENERGY PREDICTED BY IDOCK:   -4.47 KCAL/MOL
REMARK 922        TOTAL FREE ENERGY PREDICTED BY IDOCK:   -8.45 KCAL/MOL
REMARK 923 INTER-LIGAND FREE ENERGY PREDICTED BY IDOCK:   -6.81 KCAL/MOL
REMARK 924 INTRA-LIGAND FREE ENERGY PREDICTED BY IDOCK:   -1.64 KCAL/MOL
REMARK 927      BINDING AFFINITY PREDICTED BY RF-SCORE:    0.00 PKD
ROOT
HETATM    1  C   UNK A   1     -11.667  12.227  68.012  1.00  0.00    -0.417 C  
HETATM    2  C   UNK A   1     -11.644  11.142  69.106  1.00  0.00    -0.393 C  
HETATM    3  C   UNK A   1     -10.196  11.038  69.566  1.00  0.00    -0.032 C  
HETATM    4  C   UNK A   1      -9.399  11.689  68.449  1.00  0.00    -0.191 C  
HETATM    5  C   UNK A   1     -10.267  12.866  68.010  1.00  0.00    -0.229 C  
HETATM    6  N   UNK A   1     -10.387  14.007  68.931  1.00  0.00    -0.340 N  
HETATM    7  C   UNK A   1      -9.422  14.981  69.184  1.00  0.00    -0.195 C  
HETATM    8  C   UNK A   1     -11.817  14.403  69.080  1.00  0.00    -0.323 C  
HETATM    9  C   UNK A   1     -12.400  14.489  70.504  1.00  0.00    -0.337 C  
HETATM   10  C   UNK A   1     -12.625  13.375  68.278  1.00  0.00     0.672 C  
HETATM   11  O   UNK A   1      -9.758  15.995  69.808  1.00  0.00    -0.221 OA 
HETATM   12  O   UNK A   1     -11.515  14.185  71.483  1.00  0.00     0.229 OA 
HETATM   13  O   UNK A   1     -13.562  14.763  70.744  1.00  0.00    -0.301 OA 
ENDROOT
BRANCH   7  14
HETATM   14  C   UNK A   1      -7.941  14.787  68.757  1.00  0.00    -0.152 C  
HETATM   15  C   UNK A   1      -7.127  14.261  69.951  1.00  0.00     0.106 C  
BRANCH  14  16
HETATM   16  N   UNK A   1      -7.390  16.069  68.253  1.00  0.00    -0.125 NA 
HETATM   17  H   UNK A   1      -6.387  16.124  68.428  1.00  0.00     0.000 HD 
BRANCH  16  18
HETATM   18  C   UNK A   0      -7.690  16.318  66.809  1.00  0.00    -0.260 C  
BRANCH  18  19
HETATM   19  C   UNK A   0      -8.664  15.267  66.275  1.00  0.00    -0.188 C  
BRANCH  19  20
HETATM   20  C   UNK A   0      -9.930  15.843  65.624  1.00  0.00    -0.368 C  
BRANCH  20  21
HETATM   21  C   UNK A   0     -10.688  14.687  65.017  1.00  0.00    -0.448 A  
HETATM   22  C   UNK A   0     -10.016  13.512  64.654  1.00  0.00    -0.112 A  
HETATM   23  C   UNK A   0     -12.090  14.714  64.984  1.00  0.00    -0.349 A  
HETATM   24  C   UNK A   0     -10.734  12.367  64.313  1.00  0.00    -0.390 A  
HETATM   25  C   UNK A   0     -12.805  13.569  64.640  1.00  0.00    -0.119 A  
HETATM   26  C   UNK A   0     -12.129  12.393  64.322  1.00  0.00    -0.516 A  
ENDBRANCH  20  21
ENDBRANCH  19  20
ENDBRANCH  18  19
BRANCH  18  27
HETATM   27  C   UNK A   0      -8.263  17.739  66.636  1.00  0.00    -0.259 C  
HETATM   28  O   UNK A   0      -8.304  18.368  65.588  1.00  0.00    -0.388 OA 
BRANCH  27  29
HETATM   29  O   UNK A   0      -8.729  18.185  67.842  1.00  0.00    -0.252 OA 
BRANCH  29  30
HETATM   30  C   UNK A   0     -10.113  18.565  67.886  1.00  0.00    -0.369 C  
HETATM   31  C   UNK A   0     -10.262  20.076  67.882  1.00  0.00    -0.545 C  
ENDBRANCH  29  30
ENDBRANCH  27  29
ENDBRANCH  18  27
ENDBRANCH  16  18
ENDBRANCH  14  16
ENDBRANCH   7  14
TORSDOF 9
ENDMDL
MODEL      156
REMARK 921   NORMALIZED FREE ENERGY PREDICTED BY IDOCK:   -4.46 KCAL/MOL
REMARK 922        TOTAL FREE ENERGY PREDICTED BY IDOCK:   -8.44 KCAL/MOL
REMARK 923 INTER-LIGAND FREE ENERGY PREDICTED BY IDOCK:   -6.95 KCAL/MOL
REMARK 924 INTRA-LIGAND FREE ENERGY PREDICTED BY IDOCK:   -1.48 KCAL/MOL
REMARK 927      BINDING AFFINITY PREDICTED BY RF-SCORE:    0.00 PKD
ROOT
HETATM    1  C   UNK A   1      -9.848   4.219  68.843  1.00  0.00    -0.131 C  
HETATM    2  C   UNK A   1      -8.881   3.803  67.718  1.00  0.00    -0.136 C  
HETATM    3  C   UNK A   1      -8.702   5.034  66.840  1.00  0.00    -0.107 C  
HETATM    4  C   UNK A   1      -9.879   5.925  67.196  1.00  0.00    -0.162 C  
HETATM    5  C   UNK A   1     -10.044   5.739  68.702  1.00  0.00    -0.175 C  
HETATM    6  N   UNK A   1      -9.014   6.320  69.579  1.00  0.00    -0.134 N  
HETATM    7  C   UNK A   1      -8.851   7.668  69.895  1.00  0.00    -0.143 C  
HETATM    8  C   UNK A   1      -8.574   5.320  70.593  1.00  0.00    -0.122 C  
HETATM    9  C   UNK A   1      -7.066   5.022  70.709  1.00  0.00    -0.056 C  
HETATM   10  C   UNK A   1      -9.308   4.018  70.249  1.00  0.00    -0.234 C  
HETATM   11  O   UNK A   1      -8.085   7.968  70.818  1.00  0.00    -0.096 OA 
HETATM   12  O   UNK A   1      -6.295   5.727  69.848  1.00  0.00    -0.028 OA 
HETATM   13  O   UNK A   1      -6.596   4.197  71.472  1.00  0.00    -0.024 OA 
ENDROOT
BRANCH   7  14
HETATM   14  C   UNK A   1      -9.554   8.786  69.075  1.00  0.00    -0.162 C  
HETATM   15  C   UNK A   1      -8.874  10.136  69.357  1.00  0.00    -0.197 C  
BRANCH  14  16
HETATM   16  N   UNK A   1     -10.997   8.828  69.415  1.00  0.00    -0.422 NA 
HETATM   17  H   UNK A   1     -11.284   7.965  69.877  1.00  0.00     0.000 HD 
BRANCH  16  18
HETATM   18  C   UNK A   0     -11.382  10.020  70.232  1.00  0.00    -0.308 C  
BRANCH  18  19
HETATM   19  C   UNK A   0     -12.430  10.856  69.497  1.00  0.00    -0.126 C  
BRANCH  19  20
HETATM   20  C   UNK A   0     -11.856  11.832  68.459  1.00  0.00    -0.365 C  
BRANCH  20  21
HETATM   21  C   UNK A   0     -11.426  13.075  69.200  1.00  0.00    -0.353 A  
HETATM   22  C   UNK A   0     -10.299  13.795  68.782  1.00  0.00    -0.198 A  
HETATM   23  C   UNK A   0     -12.256  13.615  70.194  1.00  0.00    -0.413 A  
HETATM   24  C   UNK A   0     -10.034  15.057  69.310  1.00  0.00    -0.218 A  
HETATM   25  C   UNK A   0     -11.986  14.876  70.723  1.00  0.00    -0.372 A  
HETATM   26  C   UNK A   0     -10.888  15.603  70.269  1.00  0.00    -0.366 A  
ENDBRANCH  20  21
ENDBRANCH  19  20
ENDBRANCH  18  19
BRANCH  18  27
HETATM   27  C   UNK A   0     -11.910   9.560  71.605  1.00  0.00    -0.397 C  
HETATM   28  O   UNK A   0     -13.047   9.723  72.023  1.00  0.00    -0.414 OA 
BRANCH  27  29
HETATM   29  O   UNK A   0     -10.903   8.929  72.284  1.00  0.00    -0.332 OA 
BRANCH  29  30
HETATM   30  C   UNK A   0     -11.238   7.671  72.891  1.00  0.00    -0.372 C  
HETATM   31  C   UNK A   0     -10.084   7.147  73.727  1.00  0.00    -0.391 C  
ENDBRANCH  29  30
ENDBRANCH  27  29
ENDBRANCH  18  27
ENDBRANCH  16  18
ENDBRANCH  14  16
ENDBRANCH   7  14
TORSDOF 9
ENDMDL
MODEL      157
REMARK 921   NORMALIZED FREE ENERGY PREDICTED BY IDOCK:   -4.45 KCAL/MOL
REMARK 922        TOTAL FREE ENERGY PREDICTED BY IDOCK:   -8.43 KCAL/MOL
REMARK 923 INTER-LIGAND FREE ENERGY PREDICTED BY IDOCK:   -5.61 KCAL/MOL
REMARK 924 INTRA-LIGAND FREE ENERGY PREDICTED BY IDOCK:   -2.82 KCAL/MOL
REMARK 927      BINDING AFFINITY PREDICTED BY RF-SCORE:    0.00 PKD
ROOT
HETATM    1  C   UNK A   1     -10.799   6.203  72.417  1.00  0.00    -0.281 C  
HETATM    2  C   UNK A   1     -10.467   6.973  73.710  1.00  0.00    -0.392 C  
HETATM    3  C   UNK A   1      -9.185   7.744  73.424  1.00  0.00    -0.344 C  
HETATM    4  C   UNK A   1      -8.596   7.055  72.205  1.00  0.00    -0.129 C  
HETATM    5  C   UNK A   1      -9.812   6.708  71.350  1.00  0.00    -0.179 C  
HETATM    6  N   UNK A   1     -10.524   7.816  70.694  1.00  0.00    -0.211 N  
HETATM    7  C   UNK A   1     -10.103   8.531  69.573  1.00  0.00    -0.200 C  
HETATM    8  C   UNK A   1     -11.993   7.691  70.914  1.00  0.00    -0.229 C  
HETATM    9  C   UNK A   1     -12.742   8.899  71.510  1.00  0.00    -0.335 C  
HETATM   10  C   UNK A   1     -12.178   6.488  71.848  1.00  0.00    -0.373 C  
HETATM   11  O   UNK A   1     -10.914   9.276  69.010  1.00  0.00    -0.157 OA 
HETATM   12  O   UNK A   1     -11.950   9.966  71.770  1.00  0.00    -0.381 OA 
HETATM   13  O   UNK A   1     -13.931   8.897  71.770  1.00  0.00    -0.397 OA 
ENDROOT
BRANCH   7  14
HETATM   14  C   UNK A   1      -8.635   8.459  69.067  1.00  0.00    -0.131 C  
HETATM   15  C   UNK A   1      -7.948   9.817  69.285  1.00  0.00    -0.112 C  
BRANCH  14  16
HETATM   16  N   UNK A   1      -8.614   8.068  67.636  1.00  0.00    -0.130 NA 
HETATM   17  H   UNK A   1      -7.989   8.674  67.106  1.00  0.00     0.000 HD 
BRANCH  16  18
HETATM   18  C   UNK A   0      -8.270   6.629  67.417  1.00  0.00    -0.121 C  
BRANCH  18  19
HETATM   19  C   UNK A   0      -7.699   6.014  68.695  1.00  0.00    -0.095 C  
BRANCH  19  20
HETATM   20  C   UNK A   0      -7.354   4.522  68.587  1.00  0.00    -0.060 C  
BRANCH  20  21
HETATM   21  C   UNK A   0      -7.868   3.849  69.837  1.00  0.00    -0.051 A  
HETATM   22  C   UNK A   0      -7.157   3.952  71.040  1.00  0.00    -0.033 A  
HETATM   23  C   UNK A   0      -9.148   3.275  69.843  1.00  0.00    -0.199 A  
HETATM   24  C   UNK A   0      -7.736   3.536  72.238  1.00  0.00    -0.059 A  
HETATM   25  C   UNK A   0      -9.723   2.858  71.042  1.00  0.00    -0.166 A  
HETATM   26  C   UNK A   0      -9.025   3.004  72.238  1.00  0.00    -0.131 A  
ENDBRANCH  20  21
ENDBRANCH  19  20
ENDBRANCH  18  19
BRANCH  18  27
HETATM   27  C   UNK A   0      -9.523   5.861  66.949  1.00  0.00    -0.135 C  
HETATM   28  O   UNK A   0     -10.466   5.538  67.657  1.00  0.00    -0.210 OA 
BRANCH  27  29
HETATM   29  O   UNK A   0      -9.418   5.604  65.609  1.00  0.00    -0.089 OA 
BRANCH  29  30
HETATM   30  C   UNK A   0      -8.537   4.534  65.236  1.00  0.00    -0.128 C  
HETATM   31  C   UNK A   0      -9.211   3.186  65.422  1.00  0.00    -0.148 C  
ENDBRANCH  29  30
ENDBRANCH  27  29
ENDBRANCH  18  27
ENDBRANCH  16  18
ENDBRANCH  14  16
ENDBRANCH   7  14
TORSDOF 9
ENDMDL
MODEL      158
REMARK 921   NORMALIZED FREE ENERGY PREDICTED BY IDOCK:   -4.42 KCAL/MOL
REMARK 922        TOTAL FREE ENERGY PREDICTED BY IDOCK:   -8.38 KCAL/MOL
REMARK 923 INTER-LIGAND FREE ENERGY PREDICTED BY IDOCK:   -6.60 KCAL/MOL
REMARK 924 INTRA-LIGAND FREE ENERGY PREDICTED BY IDOCK:   -1.78 KCAL/MOL
REMARK 927      BINDING AFFINITY PREDICTED BY RF-SCORE:    0.00 PKD
ROOT
HETATM    1  C   UNK A   1      -9.515  12.519  66.429  1.00  0.00    -0.233 C  
HETATM    2  C   UNK A   1     -10.774  12.894  65.622  1.00  0.00    -0.295 C  
HETATM    3  C   UNK A   1     -11.245  11.609  64.954  1.00  0.00    -0.287 C  
HETATM    4  C   UNK A   1     -10.035  10.691  65.011  1.00  0.00    -0.369 C  
HETATM    5  C   UNK A   1      -9.408  10.985  66.371  1.00  0.00    -0.183 C  
HETATM    6  N   UNK A   1     -10.129  10.526  67.569  1.00  0.00    -0.182 N  
HETATM    7  C   UNK A   1     -10.217   9.216  68.039  1.00  0.00    -0.211 C  
HETATM    8  C   UNK A   1     -10.210  11.622  68.576  1.00  0.00    -0.210 C  
HETATM    9  C   UNK A   1     -11.600  12.003  69.122  1.00  0.00    -0.312 C  
HETATM   10  C   UNK A   1      -9.589  12.856  67.908  1.00  0.00    -0.215 C  
HETATM   11  O   UNK A   1     -10.666   9.027  69.176  1.00  0.00    -0.222 OA 
HETATM   12  O   UNK A   1     -12.616  11.272  68.605  1.00  0.00    -0.295 OA 
HETATM   13  O   UNK A   1     -11.792  12.908  69.915  1.00  0.00    -0.323 OA 
ENDROOT
BRANCH   7  14
HETATM   14  C   UNK A   1      -9.829   8.005  67.147  1.00  0.00    -0.210 C  
HETATM   15  C   UNK A   1     -10.986   6.993  67.122  1.00  0.00    -0.393 C  
BRANCH  14  16
HETATM   16  N   UNK A   1      -8.581   7.384  67.655  1.00  0.00    -0.120 NA 
HETATM   17  H   UNK A   1      -7.935   7.195  66.890  1.00  0.00     0.000 HD 
BRANCH  16  18
HETATM   18  C   UNK A   0      -7.912   8.184  68.727  1.00  0.00    -0.115 C  
BRANCH  18  19
HETATM   19  C   UNK A   0      -7.595   7.301  69.934  1.00  0.00    -0.094 C  
BRANCH  19  20
HETATM   20  C   UNK A   0      -8.523   6.089  70.100  1.00  0.00    -0.127 C  
BRANCH  20  21
HETATM   21  C   UNK A   0      -9.616   6.487  71.062  1.00  0.00    -0.185 A  
HETATM   22  C   UNK A   0      -9.350   7.387  72.102  1.00  0.00    -0.164 A  
HETATM   23  C   UNK A   0     -10.941   6.100  70.810  1.00  0.00    -0.365 A  
HETATM   24  C   UNK A   0     -10.396   7.934  72.844  1.00  0.00    -0.413 A  
HETATM   25  C   UNK A   0     -11.984   6.646  71.556  1.00  0.00    -0.402 A  
HETATM   26  C   UNK A   0     -11.713   7.574  72.559  1.00  0.00    -0.310 A  
ENDBRANCH  20  21
ENDBRANCH  19  20
ENDBRANCH  18  19
BRANCH  18  27
HETATM   27  C   UNK A   0      -6.630   8.833  68.168  1.00  0.00    -0.061 C  
HETATM   28  O   UNK A   0      -5.551   8.274  68.028  1.00  0.00    -0.033 OA 
BRANCH  27  29
HETATM   29  O   UNK A   0      -6.891  10.136  67.843  1.00  0.00    -0.073 OA 
BRANCH  29  30
HETATM   30  C   UNK A   0      -5.887  11.095  68.209  1.00  0.00    -0.045 C  
HETATM   31  C   UNK A   0      -5.922  12.298  67.284  1.00  0.00    -0.150 C  
ENDBRANCH  29  30
ENDBRANCH  27  29
ENDBRANCH  18  27
ENDBRANCH  16  18
ENDBRANCH  14  16
ENDBRANCH   7  14
TORSDOF 9
ENDMDL
MODEL      159
REMARK 921   NORMALIZED FREE ENERGY PREDICTED BY IDOCK:   -4.42 KCAL/MOL
REMARK 922        TOTAL FREE ENERGY PREDICTED BY IDOCK:   -8.37 KCAL/MOL
REMARK 923 INTER-LIGAND FREE ENERGY PREDICTED BY IDOCK:   -8.11 KCAL/MOL
REMARK 924 INTRA-LIGAND FREE ENERGY PREDICTED BY IDOCK:   -0.26 KCAL/MOL
REMARK 927      BINDING AFFINITY PREDICTED BY RF-SCORE:    0.00 PKD
ROOT
HETATM    1  C   UNK A   1      -6.534  17.813  65.908  1.00  0.00    -0.264 C  
HETATM    2  C   UNK A   1      -6.280  19.137  66.653  1.00  0.00    -0.188 C  
HETATM    3  C   UNK A   1      -7.653  19.685  67.020  1.00  0.00    -0.274 C  
HETATM    4  C   UNK A   1      -8.610  18.941  66.104  1.00  0.00    -0.185 C  
HETATM    5  C   UNK A   1      -8.040  17.527  66.040  1.00  0.00    -0.127 C  
HETATM    6  N   UNK A   1      -8.146  16.692  67.247  1.00  0.00    -0.161 N  
HETATM    7  C   UNK A   1      -9.295  16.067  67.731  1.00  0.00    -0.211 C  
HETATM    8  C   UNK A   1      -6.837  16.046  67.546  1.00  0.00    -0.176 C  
HETATM    9  C   UNK A   1      -6.241  16.234  68.955  1.00  0.00    -0.147 C  
HETATM   10  C   UNK A   1      -5.847  16.602  66.515  1.00  0.00     0.195 C  
HETATM   11  O   UNK A   1      -9.173  15.220  68.625  1.00  0.00    -0.184 OA 
HETATM   12  O   UNK A   1      -7.004  16.988  69.781  1.00  0.00    -0.039 OA 
HETATM   13  O   UNK A   1      -5.161  15.788  69.299  1.00  0.00    -0.104 OA 
ENDROOT
BRANCH   7  14
HETATM   14  C   UNK A   1     -10.710  16.458  67.221  1.00  0.00    -0.257 C  
HETATM   15  C   UNK A   1     -11.032  17.898  67.652  1.00  0.00    -0.104 C  
BRANCH  14  16
HETATM   16  N   UNK A   1     -11.716  15.502  67.743  1.00  0.00    -0.261 NA 
HETATM   17  H   UNK A   1     -12.661  15.849  67.584  1.00  0.00     0.000 HD 
BRANCH  16  18
HETATM   18  C   UNK A   0     -11.562  14.118  67.197  1.00  0.00    -0.377 C  
BRANCH  18  19
HETATM   19  C   UNK A   0     -12.088  13.087  68.196  1.00  0.00    -0.201 C  
BRANCH  19  20
HETATM   20  C   UNK A   0     -11.251  12.952  69.476  1.00  0.00    -0.143 C  
BRANCH  20  21
HETATM   21  C   UNK A   0     -12.049  13.564  70.602  1.00  0.00    -0.386 A  
HETATM   22  C   UNK A   0     -13.044  12.821  71.250  1.00  0.00    -0.245 A  
HETATM   23  C   UNK A   0     -11.674  14.811  71.124  1.00  0.00    -0.360 A  
HETATM   24  C   UNK A   0     -13.619  13.291  72.430  1.00  0.00    -0.694 A  
HETATM   25  C   UNK A   0     -12.253  15.281  72.301  1.00  0.00    -0.466 A  
HETATM   26  C   UNK A   0     -13.210  14.514  72.962  1.00  0.00    -0.575 A  
ENDBRANCH  20  21
ENDBRANCH  19  20
ENDBRANCH  18  19
BRANCH  18  27
HETATM   27  C   UNK A   0     -12.302  14.006  65.849  1.00  0.00    -0.486 C  
HETATM   28  O   UNK A   0     -12.708  14.945  65.179  1.00  0.00    -0.130 OA 
BRANCH  27  29
HETATM   29  O   UNK A   0     -12.426  12.685  65.513  1.00  0.00    -0.622 OA 
BRANCH  29  30
HETATM   30  C   UNK A   0     -12.478  12.390  64.109  1.00  0.00    -0.442 C  
HETATM   31  C   UNK A   0     -11.201  11.711  63.649  1.00  0.00    -0.497 C  
ENDBRANCH  29  30
ENDBRANCH  27  29
ENDBRANCH  18  27
ENDBRANCH  16  18
ENDBRANCH  14  16
ENDBRANCH   7  14
TORSDOF 9
ENDMDL
MODEL      160
REMARK 921   NORMALIZED FREE ENERGY PREDICTED BY IDOCK:   -4.41 KCAL/MOL
REMARK 922        TOTAL FREE ENERGY PREDICTED BY IDOCK:   -8.37 KCAL/MOL
REMARK 923 INTER-LIGAND FREE ENERGY PREDICTED BY IDOCK:   -8.09 KCAL/MOL
REMARK 924 INTRA-LIGAND FREE ENERGY PREDICTED BY IDOCK:   -0.28 KCAL/MOL
REMARK 927      BINDING AFFINITY PREDICTED BY RF-SCORE:    0.00 PKD
ROOT
HETATM    1  C   UNK A   1      -9.690  11.561  65.843  1.00  0.00    -0.260 C  
HETATM    2  C   UNK A   1     -10.677  10.964  66.867  1.00  0.00    -0.318 C  
HETATM    3  C   UNK A   1     -11.060  12.107  67.798  1.00  0.00    -0.302 C  
HETATM    4  C   UNK A   1      -9.973  13.147  67.583  1.00  0.00    -0.219 C  
HETATM    5  C   UNK A   1      -9.685  13.080  66.086  1.00  0.00    -0.251 C  
HETATM    6  N   UNK A   1     -10.713  13.597  65.169  1.00  0.00    -0.333 N  
HETATM    7  C   UNK A   1     -11.011  14.937  64.919  1.00  0.00    -0.408 C  
HETATM    8  C   UNK A   1     -10.962  12.623  64.068  1.00  0.00    -0.406 C  
HETATM    9  C   UNK A   1     -12.413  12.165  63.821  1.00  0.00    -0.514 C  
HETATM   10  C   UNK A   1     -10.105  11.393  64.392  1.00  0.00    -0.341 C  
HETATM   11  O   UNK A   1     -11.742  15.209  63.959  1.00  0.00    -0.268 OA 
HETATM   12  O   UNK A   1     -13.318  12.720  64.661  1.00  0.00    -0.665 OA 
HETATM   13  O   UNK A   1     -12.729  11.344  62.979  1.00  0.00    -0.159 OA 
ENDROOT
BRANCH   7  14
HETATM   14  C   UNK A   1     -10.502  16.070  65.853  1.00  0.00    -0.359 C  
HETATM   15  C   UNK A   1     -11.158  17.401  65.451  1.00  0.00     0.312 C  
BRANCH  14  16
HETATM   16  N   UNK A   1      -9.023  16.155  65.782  1.00  0.00    -0.386 NA 
HETATM   17  H   UNK A   1      -8.734  16.852  65.097  1.00  0.00     0.000 HD 
BRANCH  16  18
HETATM   18  C   UNK A   0      -8.377  16.413  67.106  1.00  0.00    -0.187 C  
BRANCH  18  19
HETATM   19  C   UNK A   0      -6.870  16.601  66.938  1.00  0.00    -0.253 C  
BRANCH  19  20
HETATM   20  C   UNK A   0      -6.462  17.437  65.716  1.00  0.00     0.072 C  
BRANCH  20  21
HETATM   21  C   UNK A   0      -5.984  18.775  66.226  1.00  0.00    -0.191 A  
HETATM   22  C   UNK A   0      -6.123  19.925  65.437  1.00  0.00    -0.243 A  
HETATM   23  C   UNK A   0      -5.567  18.904  67.560  1.00  0.00    -0.165 A  
HETATM   24  C   UNK A   0      -5.901  21.186  65.986  1.00  0.00    -0.297 A  
HETATM   25  C   UNK A   0      -5.343  20.167  68.104  1.00  0.00    -0.222 A  
HETATM   26  C   UNK A   0      -5.527  21.306  67.324  1.00  0.00    -0.361 A  
ENDBRANCH  20  21
ENDBRANCH  19  20
ENDBRANCH  18  19
BRANCH  18  27
HETATM   27  C   UNK A   0      -9.017  17.654  67.762  1.00  0.00    -0.247 C  
HETATM   28  O   UNK A   0      -9.166  18.744  67.229  1.00  0.00    -0.282 OA 
BRANCH  27  29
HETATM   29  O   UNK A   0      -9.400  17.340  69.037  1.00  0.00    -0.224 OA 
BRANCH  29  30
HETATM   30  C   UNK A   0      -9.648  15.951  69.302  1.00  0.00    -0.266 C  
HETATM   31  C   UNK A   0     -10.976  15.762  70.013  1.00  0.00    -0.344 C  
ENDBRANCH  29  30
ENDBRANCH  27  29
ENDBRANCH  18  27
ENDBRANCH  16  18
ENDBRANCH  14  16
ENDBRANCH   7  14
TORSDOF 9
ENDMDL
MODEL      161
REMARK 921   NORMALIZED FREE ENERGY PREDICTED BY IDOCK:   -4.38 KCAL/MOL
REMARK 922        TOTAL FREE ENERGY PREDICTED BY IDOCK:   -8.32 KCAL/MOL
REMARK 923 INTER-LIGAND FREE ENERGY PREDICTED BY IDOCK:   -7.13 KCAL/MOL
REMARK 924 INTRA-LIGAND FREE ENERGY PREDICTED BY IDOCK:   -1.19 KCAL/MOL
REMARK 927      BINDING AFFINITY PREDICTED BY RF-SCORE:    0.00 PKD
ROOT
HETATM    1  C   UNK A   1      -8.578  16.290  68.179  1.00  0.00    -0.183 C  
HETATM    2  C   UNK A   1      -9.147  17.721  68.118  1.00  0.00    -0.274 C  
HETATM    3  C   UNK A   1     -10.041  17.767  66.886  1.00  0.00    -0.342 C  
HETATM    4  C   UNK A   1      -9.601  16.571  66.059  1.00  0.00    -0.323 C  
HETATM    5  C   UNK A   1      -9.316  15.487  67.094  1.00  0.00    -0.216 C  
HETATM    6  N   UNK A   1     -10.464  14.897  67.799  1.00  0.00    -0.252 N  
HETATM    7  C   UNK A   1     -11.379  13.979  67.282  1.00  0.00    -0.330 C  
HETATM    8  C   UNK A   1     -10.205  14.853  69.266  1.00  0.00    -0.214 C  
HETATM    9  C   UNK A   1     -11.246  15.492  70.206  1.00  0.00    -0.326 C  
HETATM   10  C   UNK A   1      -8.856  15.553  69.477  1.00  0.00    -0.229 C  
HETATM   11  O   UNK A   1     -12.149  13.410  68.066  1.00  0.00    -0.342 OA 
HETATM   12  O   UNK A   1     -12.308  16.035  69.565  1.00  0.00    -0.176 OA 
HETATM   13  O   UNK A   1     -11.120  15.552  71.416  1.00  0.00    -0.357 OA 
ENDROOT
BRANCH   7  14
HETATM   14  C   UNK A   1     -11.490  13.715  65.755  1.00  0.00    -0.315 C  
HETATM   15  C   UNK A   1     -12.962  13.811  65.322  1.00  0.00    -0.328 C  
BRANCH  14  16
HETATM   16  N   UNK A   1     -10.919  12.385  65.431  1.00  0.00    -0.290 NA 
HETATM   17  H   UNK A   1     -10.247  12.457  64.668  1.00  0.00     0.000 HD 
BRANCH  16  18
HETATM   18  C   UNK A   0     -10.310  11.695  66.611  1.00  0.00    -0.222 C  
BRANCH  18  19
HETATM   19  C   UNK A   0     -10.982  10.342  66.845  1.00  0.00    -0.167 C  
BRANCH  19  20
HETATM   20  C   UNK A   0     -10.486   9.589  68.088  1.00  0.00    -0.268 C  
BRANCH  20  21
HETATM   21  C   UNK A   0      -9.933   8.265  67.621  1.00  0.00    -0.245 A  
HETATM   22  C   UNK A   0      -8.591   7.935  67.855  1.00  0.00    -0.125 A  
HETATM   23  C   UNK A   0     -10.801   7.286  67.114  1.00  0.00    -0.378 A  
HETATM   24  C   UNK A   0      -8.137   6.636  67.638  1.00  0.00    -0.119 A  
HETATM   25  C   UNK A   0     -10.343   5.989  66.894  1.00  0.00    -0.303 A  
HETATM   26  C   UNK A   0      -9.019   5.660  67.172  1.00  0.00    -0.112 A  
ENDBRANCH  20  21
ENDBRANCH  19  20
ENDBRANCH  18  19
BRANCH  18  27
HETATM   27  C   UNK A   0      -8.794  11.525  66.387  1.00  0.00    -0.193 C  
HETATM   28  O   UNK A   0      -8.274  10.882  65.486  1.00  0.00    -0.143 OA 
BRANCH  27  29
HETATM   29  O   UNK A   0      -8.117  12.217  67.354  1.00  0.00    -0.156 OA 
BRANCH  29  30
HETATM   30  C   UNK A   0      -6.880  11.640  67.799  1.00  0.00    -0.079 C  
HETATM   31  C   UNK A   0      -5.696  12.475  67.346  1.00  0.00    -0.124 C  
ENDBRANCH  29  30
ENDBRANCH  27  29
ENDBRANCH  18  27
ENDBRANCH  16  18
ENDBRANCH  14  16
ENDBRANCH   7  14
TORSDOF 9
ENDMDL
MODEL      162
REMARK 921   NORMALIZED FREE ENERGY PREDICTED BY IDOCK:   -4.38 KCAL/MOL
REMARK 922        TOTAL FREE ENERGY PREDICTED BY IDOCK:   -8.31 KCAL/MOL
REMARK 923 INTER-LIGAND FREE ENERGY PREDICTED BY IDOCK:   -6.74 KCAL/MOL
REMARK 924 INTRA-LIGAND FREE ENERGY PREDICTED BY IDOCK:   -1.57 KCAL/MOL
REMARK 927      BINDING AFFINITY PREDICTED BY RF-SCORE:    0.00 PKD
ROOT
HETATM    1  C   UNK A   1     -10.325  11.559  67.526  1.00  0.00    -0.220 C  
HETATM    2  C   UNK A   1     -11.845  11.442  67.757  1.00  0.00    -0.196 C  
HETATM    3  C   UNK A   1     -12.237  12.653  68.592  1.00  0.00     0.031 C  
HETATM    4  C   UNK A   1     -10.927  13.142  69.184  1.00  0.00    -0.194 C  
HETATM    5  C   UNK A   1      -9.913  12.941  68.061  1.00  0.00    -0.236 C  
HETATM    6  N   UNK A   1     -10.006  13.826  66.890  1.00  0.00    -0.258 N  
HETATM    7  C   UNK A   1      -9.619  15.164  66.822  1.00  0.00    -0.245 C  
HETATM    8  C   UNK A   1      -9.939  13.029  65.632  1.00  0.00    -0.230 C  
HETATM    9  C   UNK A   1     -11.067  13.213  64.596  1.00  0.00    -0.345 C  
HETATM   10  C   UNK A   1      -9.905  11.558  66.066  1.00  0.00    -0.255 C  
HETATM   11  O   UNK A   1      -9.550  15.702  65.710  1.00  0.00    -0.332 OA 
HETATM   12  O   UNK A   1     -12.014  14.107  64.965  1.00  0.00    -0.370 OA 
HETATM   13  O   UNK A   1     -11.138  12.587  63.555  1.00  0.00    -0.444 OA 
ENDROOT
BRANCH   7  14
HETATM   14  C   UNK A   1      -9.341  15.996  68.104  1.00  0.00    -0.200 C  
HETATM   15  C   UNK A   1      -9.464  17.494  67.783  1.00  0.00    -0.269 C  
BRANCH  14  16
HETATM   16  N   UNK A   1      -7.995  15.667  68.635  1.00  0.00    -0.142 NA 
HETATM   17  H   UNK A   1      -8.056  14.944  69.352  1.00  0.00     0.000 HD 
BRANCH  16  18
HETATM   18  C   UNK A   0      -7.014  15.280  67.574  1.00  0.00    -0.196 C  
BRANCH  18  19
HETATM   19  C   UNK A   0      -5.986  16.392  67.365  1.00  0.00    -0.193 C  
BRANCH  19  20
HETATM   20  C   UNK A   0      -5.746  17.280  68.595  1.00  0.00    -0.152 C  
BRANCH  20  21
HETATM   21  C   UNK A   0      -6.003  18.707  68.177  1.00  0.00    -0.200 A  
HETATM   22  C   UNK A   0      -5.651  19.767  69.024  1.00  0.00    -0.239 A  
HETATM   23  C   UNK A   0      -6.425  18.985  66.869  1.00  0.00    -0.195 A  
HETATM   24  C   UNK A   0      -5.670  21.079  68.555  1.00  0.00    -0.375 A  
HETATM   25  C   UNK A   0      -6.446  20.298  66.404  1.00  0.00    -0.244 A  
HETATM   26  C   UNK A   0      -6.053  21.341  67.239  1.00  0.00    -0.420 A  
ENDBRANCH  20  21
ENDBRANCH  19  20
ENDBRANCH  18  19
BRANCH  18  27
HETATM   27  C   UNK A   0      -6.324  13.958  67.964  1.00  0.00    -0.142 C  
HETATM   28  O   UNK A   0      -5.710  13.753  69.001  1.00  0.00    -0.072 OA 
BRANCH  27  29
HETATM   29  O   UNK A   0      -6.513  13.042  66.965  1.00  0.00    -0.165 OA 
BRANCH  29  30
HETATM   30  C   UNK A   0      -5.702  11.858  67.029  1.00  0.00    -0.139 C  
HETATM   31  C   UNK A   0      -6.502  10.631  66.630  1.00  0.00    -0.100 C  
ENDBRANCH  29  30
ENDBRANCH  27  29
ENDBRANCH  18  27
ENDBRANCH  16  18
ENDBRANCH  14  16
ENDBRANCH   7  14
TORSDOF 9
ENDMDL
MODEL      163
REMARK 921   NORMALIZED FREE ENERGY PREDICTED BY IDOCK:   -4.36 KCAL/MOL
REMARK 922        TOTAL FREE ENERGY PREDICTED BY IDOCK:   -8.28 KCAL/MOL
REMARK 923 INTER-LIGAND FREE ENERGY PREDICTED BY IDOCK:   -6.78 KCAL/MOL
REMARK 924 INTRA-LIGAND FREE ENERGY PREDICTED BY IDOCK:   -1.50 KCAL/MOL
REMARK 927      BINDING AFFINITY PREDICTED BY RF-SCORE:    0.00 PKD
ROOT
HETATM    1  C   UNK A   1      -6.923  11.827  68.215  1.00  0.00    -0.075 C  
HETATM    2  C   UNK A   1      -6.155  11.852  66.879  1.00  0.00    -0.120 C  
HETATM    3  C   UNK A   1      -6.218  10.432  66.331  1.00  0.00    -0.087 C  
HETATM    4  C   UNK A   1      -6.586   9.582  67.534  1.00  0.00    -0.063 C  
HETATM    5  C   UNK A   1      -7.583  10.441  68.306  1.00  0.00    -0.095 C  
HETATM    6  N   UNK A   1      -8.917  10.635  67.718  1.00  0.00    -0.139 N  
HETATM    7  C   UNK A   1      -9.954   9.703  67.674  1.00  0.00    -0.174 C  
HETATM    8  C   UNK A   1      -9.293  12.077  67.752  1.00  0.00    -0.190 C  
HETATM    9  C   UNK A   1      -9.723  12.746  66.431  1.00  0.00    -0.261 C  
HETATM   10  C   UNK A   1      -8.070  12.819  68.304  1.00  0.00    -0.154 C  
HETATM   11  O   UNK A   1     -11.083  10.092  67.350  1.00  0.00    -0.283 OA 
HETATM   12  O   UNK A   1      -9.707  11.916  65.362  1.00  0.00    -0.239 OA 
HETATM   13  O   UNK A   1     -10.012  13.925  66.332  1.00  0.00    -0.280 OA 
ENDROOT
BRANCH   7  14
HETATM   14  C   UNK A   1      -9.704   8.196  67.956  1.00  0.00    -0.161 C  
HETATM   15  C   UNK A   1     -10.778   7.354  67.247  1.00  0.00    -0.379 C  
BRANCH  14  16
HETATM   16  N   UNK A   1      -9.706   7.951  69.419  1.00  0.00    -0.168 NA 
HETATM   17  H   UNK A   1      -9.203   8.690  69.909  1.00  0.00     0.000 HD 
BRANCH  16  18
HETATM   18  C   UNK A   0     -11.076   7.771  69.991  1.00  0.00    -0.175 C  
BRANCH  18  19
HETATM   19  C   UNK A   0     -11.250   6.350  70.527  1.00  0.00    -0.414 C  
BRANCH  19  20
HETATM   20  C   UNK A   0      -9.959   5.701  71.048  1.00  0.00    -0.248 C  
BRANCH  20  21
HETATM   21  C   UNK A   0      -9.824   4.360  70.369  1.00  0.00    -0.286 A  
HETATM   22  C   UNK A   0      -9.708   4.281  68.975  1.00  0.00    -0.209 A  
HETATM   23  C   UNK A   0      -9.632   3.204  71.141  1.00  0.00    -0.230 A  
HETATM   24  C   UNK A   0      -9.352   3.079  68.365  1.00  0.00    -0.248 A  
HETATM   25  C   UNK A   0      -9.280   2.003  70.528  1.00  0.00    -0.180 A  
HETATM   26  C   UNK A   0      -9.123   1.945  69.145  1.00  0.00    -0.173 A  
ENDBRANCH  20  21
ENDBRANCH  19  20
ENDBRANCH  18  19
BRANCH  18  27
HETATM   27  C   UNK A   0     -11.314   8.812  71.103  1.00  0.00    -0.285 C  
HETATM   28  O   UNK A   0     -10.527   9.094  71.996  1.00  0.00    -0.322 OA 
BRANCH  27  29
HETATM   29  O   UNK A   0     -12.546   9.381  70.930  1.00  0.00    -0.249 OA 
BRANCH  29  30
HETATM   30  C   UNK A   0     -12.686  10.740  71.373  1.00  0.00    -0.439 C  
HETATM   31  C   UNK A   0     -12.138  11.707  70.339  1.00  0.00    -0.462 C  
ENDBRANCH  29  30
ENDBRANCH  27  29
ENDBRANCH  18  27
ENDBRANCH  16  18
ENDBRANCH  14  16
ENDBRANCH   7  14
TORSDOF 9
ENDMDL
MODEL      164
REMARK 921   NORMALIZED FREE ENERGY PREDICTED BY IDOCK:   -4.33 KCAL/MOL
REMARK 922        TOTAL FREE ENERGY PREDICTED BY IDOCK:   -8.24 KCAL/MOL
REMARK 923 INTER-LIGAND FREE ENERGY PREDICTED BY IDOCK:   -9.07 KCAL/MOL
REMARK 924 INTRA-LIGAND FREE ENERGY PREDICTED BY IDOCK:    0.83 KCAL/MOL
REMARK 927      BINDING AFFINITY PREDICTED BY RF-SCORE:    0.00 PKD
ROOT
HETATM    1  C   UNK A   1      -9.294  10.546  64.814  1.00  0.00    -0.285 C  
HETATM    2  C   UNK A   1     -10.130   9.597  65.695  1.00  0.00    -0.231 C  
HETATM    3  C   UNK A   1     -10.132  10.209  67.089  1.00  0.00    -0.260 C  
HETATM    4  C   UNK A   1      -8.965  11.181  67.074  1.00  0.00    -0.156 C  
HETATM    5  C   UNK A   1      -9.004  11.788  65.674  1.00  0.00     0.047 C  
HETATM    6  N   UNK A   1     -10.104  12.712  65.360  1.00  0.00    -0.324 N  
HETATM    7  C   UNK A   1     -10.236  14.031  65.793  1.00  0.00    -0.328 C  
HETATM    8  C   UNK A   1     -10.722  12.356  64.051  1.00  0.00    -0.404 C  
HETATM    9  C   UNK A   1     -12.246  12.128  64.006  1.00  0.00    -0.446 C  
HETATM   10  C   UNK A   1     -10.019  11.074  63.587  1.00  0.00    -0.415 C  
HETATM   11  O   UNK A   1     -11.097  14.743  65.261  1.00  0.00    -0.332 OA 
HETATM   12  O   UNK A   1     -12.863  12.283  65.202  1.00  0.00    -0.522 OA 
HETATM   13  O   UNK A   1     -12.852  11.794  63.004  1.00  0.00    -0.457 OA 
ENDROOT
BRANCH   7  14
HETATM   14  C   UNK A   1      -9.377  14.592  66.960  1.00  0.00    -0.232 C  
HETATM   15  C   UNK A   1      -9.714  13.837  68.256  1.00  0.00    -0.231 C  
BRANCH  14  16
HETATM   16  N   UNK A   1      -9.618  16.049  67.107  1.00  0.00    -0.217 NA 
HETATM   17  H   UNK A   1     -10.604  16.268  66.967  1.00  0.00     0.000 HD 
BRANCH  16  18
HETATM   18  C   UNK A   0      -9.131  16.605  68.407  1.00  0.00    -0.226 C  
BRANCH  18  19
HETATM   19  C   UNK A   0      -9.881  15.967  69.577  1.00  0.00    -0.268 C  
BRANCH  19  20
HETATM   20  C   UNK A   0     -11.187  16.678  69.962  1.00  0.00    -0.020 C  
BRANCH  20  21
HETATM   21  C   UNK A   0     -11.784  15.923  71.125  1.00  0.00    -0.490 A  
HETATM   22  C   UNK A   0     -11.731  16.458  72.418  1.00  0.00    -0.459 A  
HETATM   23  C   UNK A   0     -12.553  14.773  70.888  1.00  0.00    -0.401 A  
HETATM   24  C   UNK A   0     -12.476  15.885  73.448  1.00  0.00    -0.655 A  
HETATM   25  C   UNK A   0     -13.294  14.201  71.920  1.00  0.00    -0.476 A  
HETATM   26  C   UNK A   0     -13.269  14.767  73.193  1.00  0.00    -0.543 A  
ENDBRANCH  20  21
ENDBRANCH  19  20
ENDBRANCH  18  19
BRANCH  18  27
HETATM   27  C   UNK A   0      -7.612  16.372  68.535  1.00  0.00    -0.188 C  
HETATM   28  O   UNK A   0      -6.779  16.617  67.675  1.00  0.00    -0.123 OA 
BRANCH  27  29
HETATM   29  O   UNK A   0      -7.340  15.851  69.771  1.00  0.00    -0.147 OA 
BRANCH  29  30
HETATM   30  C   UNK A   0      -6.392  14.774  69.811  1.00  0.00    -0.152 C  
HETATM   31  C   UNK A   0      -5.182  15.146  70.650  1.00  0.00    -0.132 C  
ENDBRANCH  29  30
ENDBRANCH  27  29
ENDBRANCH  18  27
ENDBRANCH  16  18
ENDBRANCH  14  16
ENDBRANCH   7  14
TORSDOF 9
ENDMDL
MODEL      165
REMARK 921   NORMALIZED FREE ENERGY PREDICTED BY IDOCK:   -4.33 KCAL/MOL
REMARK 922        TOTAL FREE ENERGY PREDICTED BY IDOCK:   -8.24 KCAL/MOL
REMARK 923 INTER-LIGAND FREE ENERGY PREDICTED BY IDOCK:   -7.80 KCAL/MOL
REMARK 924 INTRA-LIGAND FREE ENERGY PREDICTED BY IDOCK:   -0.43 KCAL/MOL
REMARK 927      BINDING AFFINITY PREDICTED BY RF-SCORE:    0.00 PKD
ROOT
HETATM    1  C   UNK A   1      -8.118   8.922  69.068  1.00  0.00    -0.115 C  
HETATM    2  C   UNK A   1      -7.582   9.874  70.155  1.00  0.00    -0.185 C  
HETATM    3  C   UNK A   1      -7.314  11.201  69.457  1.00  0.00    -0.023 C  
HETATM    4  C   UNK A   1      -7.256  10.845  67.982  1.00  0.00    -0.086 C  
HETATM    5  C   UNK A   1      -8.339   9.783  67.813  1.00  0.00    -0.114 C  
HETATM    6  N   UNK A   1      -9.742  10.215  67.911  1.00  0.00    -0.145 N  
HETATM    7  C   UNK A   1     -10.467  10.921  66.952  1.00  0.00    -0.249 C  
HETATM    8  C   UNK A   1     -10.503   9.303  68.812  1.00  0.00    -0.210 C  
HETATM    9  C   UNK A   1     -11.283   9.928  69.985  1.00  0.00    -0.276 C  
HETATM   10  C   UNK A   1      -9.476   8.313  69.375  1.00  0.00    -0.159 C  
HETATM   11  O   UNK A   1     -11.693  11.011  67.089  1.00  0.00    -0.456 OA 
HETATM   12  O   UNK A   1     -11.181  11.276  70.061  1.00  0.00    -0.238 OA 
HETATM   13  O   UNK A   1     -11.905   9.278  70.807  1.00  0.00    -0.281 OA 
ENDROOT
BRANCH   7  14
HETATM   14  C   UNK A   1      -9.764  11.641  65.768  1.00  0.00    -0.236 C  
HETATM   15  C   UNK A   1      -8.978  10.615  64.935  1.00  0.00    -0.218 C  
BRANCH  14  16
HETATM   16  N   UNK A   1      -8.873  12.709  66.286  1.00  0.00    -0.428 NA 
HETATM   17  H   UNK A   1      -8.294  13.089  65.539  1.00  0.00     0.000 HD 
BRANCH  16  18
HETATM   18  C   UNK A   0      -9.606  13.802  66.998  1.00  0.00    -0.251 C  
BRANCH  18  19
HETATM   19  C   UNK A   0      -8.651  14.589  67.895  1.00  0.00    -0.161 C  
BRANCH  19  20
HETATM   20  C   UNK A   0      -9.338  15.396  69.007  1.00  0.00    -0.232 C  
BRANCH  20  21
HETATM   21  C   UNK A   0      -9.352  16.841  68.571  1.00  0.00    -0.246 A  
HETATM   22  C   UNK A   0      -8.153  17.504  68.279  1.00  0.00    -0.268 A  
HETATM   23  C   UNK A   0     -10.572  17.470  68.281  1.00  0.00    -0.354 A  
HETATM   24  C   UNK A   0      -8.171  18.752  67.659  1.00  0.00    -0.282 A  
HETATM   25  C   UNK A   0     -10.587  18.719  67.664  1.00  0.00    -0.481 A  
HETATM   26  C   UNK A   0      -9.390  19.351  67.338  1.00  0.00    -0.388 A  
ENDBRANCH  20  21
ENDBRANCH  19  20
ENDBRANCH  18  19
BRANCH  18  27
HETATM   27  C   UNK A   0     -10.284  14.727  65.969  1.00  0.00    -0.304 C  
HETATM   28  O   UNK A   0      -9.719  15.317  65.059  1.00  0.00    -0.155 OA 
BRANCH  27  29
HETATM   29  O   UNK A   0     -11.626  14.780  66.228  1.00  0.00    -0.358 OA 
BRANCH  29  30
HETATM   30  C   UNK A   0     -12.456  13.892  65.463  1.00  0.00    -0.511 C  
HETATM   31  C   UNK A   0     -12.163  14.019  63.979  1.00  0.00    -0.395 C  
ENDBRANCH  29  30
ENDBRANCH  27  29
ENDBRANCH  18  27
ENDBRANCH  16  18
ENDBRANCH  14  16
ENDBRANCH   7  14
TORSDOF 9
ENDMDL
MODEL      166
REMARK 921   NORMALIZED FREE ENERGY PREDICTED BY IDOCK:   -4.32 KCAL/MOL
REMARK 922        TOTAL FREE ENERGY PREDICTED BY IDOCK:   -8.23 KCAL/MOL
REMARK 923 INTER-LIGAND FREE ENERGY PREDICTED BY IDOCK:   -6.70 KCAL/MOL
REMARK 924 INTRA-LIGAND FREE ENERGY PREDICTED BY IDOCK:   -1.52 KCAL/MOL
REMARK 927      BINDING AFFINITY PREDICTED BY RF-SCORE:    0.00 PKD
ROOT
HETATM    1  C   UNK A   1      -8.660  16.639  67.803  1.00  0.00    -0.194 C  
HETATM    2  C   UNK A   1      -9.552  17.869  67.546  1.00  0.00    -0.269 C  
HETATM    3  C   UNK A   1     -10.383  17.537  66.313  1.00  0.00    -0.335 C  
HETATM    4  C   UNK A   1      -9.638  16.386  65.658  1.00  0.00    -0.111 C  
HETATM    5  C   UNK A   1      -9.142  15.547  66.833  1.00  0.00    -0.241 C  
HETATM    6  N   UNK A   1     -10.143  14.793  67.605  1.00  0.00    -0.227 N  
HETATM    7  C   UNK A   1     -10.792  13.622  67.212  1.00  0.00    -0.284 C  
HETATM    8  C   UNK A   1      -9.937  15.005  69.066  1.00  0.00    -0.246 C  
HETATM    9  C   UNK A   1     -11.136  15.490  69.904  1.00  0.00    -0.310 C  
HETATM   10  C   UNK A   1      -8.803  16.031  69.187  1.00  0.00    -0.245 C  
HETATM   11  O   UNK A   1     -11.432  12.991  68.060  1.00  0.00    -0.269 OA 
HETATM   12  O   UNK A   1     -12.272  15.672  69.189  1.00  0.00    -0.298 OA 
HETATM   13  O   UNK A   1     -11.075  15.735  71.095  1.00  0.00    -0.339 OA 
ENDROOT
BRANCH   7  14
HETATM   14  C   UNK A   1     -10.777  13.143  65.734  1.00  0.00    -0.279 C  
HETATM   15  C   UNK A   1     -12.142  12.531  65.378  1.00  0.00    -0.494 C  
BRANCH  14  16
HETATM   16  N   UNK A   1      -9.680  12.166  65.532  1.00  0.00    -0.343 NA 
HETATM   17  H   UNK A   1      -8.895  12.372  66.149  1.00  0.00     0.000 HD 
BRANCH  16  18
HETATM   18  C   UNK A   0     -10.114  10.742  65.685  1.00  0.00    -0.267 C  
BRANCH  18  19
HETATM   19  C   UNK A   0      -9.465   9.867  64.612  1.00  0.00    -0.343 C  
BRANCH  19  20
HETATM   20  C   UNK A   0      -7.981  10.168  64.354  1.00  0.00    -0.153 C  
BRANCH  20  21
HETATM   21  C   UNK A   0      -7.237   8.856  64.420  1.00  0.00    -0.094 A  
HETATM   22  C   UNK A   0      -7.044   8.213  65.650  1.00  0.00    -0.067 A  
HETATM   23  C   UNK A   0      -6.898   8.187  63.235  1.00  0.00    -0.084 A  
HETATM   24  C   UNK A   0      -6.570   6.904  65.693  1.00  0.00    -0.051 A  
HETATM   25  C   UNK A   0      -6.421   6.879  63.281  1.00  0.00    -0.043 A  
HETATM   26  C   UNK A   0      -6.274   6.233  64.506  1.00  0.00    -0.030 A  
ENDBRANCH  20  21
ENDBRANCH  19  20
ENDBRANCH  18  19
BRANCH  18  27
HETATM   27  C   UNK A   0      -9.755  10.239  67.097  1.00  0.00    -0.173 C  
HETATM   28  O   UNK A   0      -8.693  10.427  67.672  1.00  0.00    -0.119 OA 
BRANCH  27  29
HETATM   29  O   UNK A   0     -10.821   9.553  67.613  1.00  0.00    -0.279 OA 
BRANCH  29  30
HETATM   30  C   UNK A   0     -10.510   8.368  68.362  1.00  0.00    -0.164 C  
HETATM   31  C   UNK A   0     -10.446   7.153  67.454  1.00  0.00    -0.354 C  
ENDBRANCH  29  30
ENDBRANCH  27  29
ENDBRANCH  18  27
ENDBRANCH  16  18
ENDBRANCH  14  16
ENDBRANCH   7  14
TORSDOF 9
ENDMDL
MODEL      167
REMARK 921   NORMALIZED FREE ENERGY PREDICTED BY IDOCK:   -4.32 KCAL/MOL
REMARK 922        TOTAL FREE ENERGY PREDICTED BY IDOCK:   -8.23 KCAL/MOL
REMARK 923 INTER-LIGAND FREE ENERGY PREDICTED BY IDOCK:   -7.33 KCAL/MOL
REMARK 924 INTRA-LIGAND FREE ENERGY PREDICTED BY IDOCK:   -0.90 KCAL/MOL
REMARK 927      BINDING AFFINITY PREDICTED BY RF-SCORE:    0.00 PKD
ROOT
HETATM    1  C   UNK A   1      -9.017  10.335  65.622  1.00  0.00    -0.198 C  
HETATM    2  C   UNK A   1      -9.305  11.678  66.322  1.00  0.00    -0.228 C  
HETATM    3  C   UNK A   1     -10.386  11.389  67.356  1.00  0.00    -0.232 C  
HETATM    4  C   UNK A   1     -10.989  10.068  66.911  1.00  0.00    -0.070 C  
HETATM    5  C   UNK A   1      -9.793   9.264  66.408  1.00  0.00    -0.277 C  
HETATM    6  N   UNK A   1      -8.828   8.777  67.406  1.00  0.00    -0.133 N  
HETATM    7  C   UNK A   1      -9.006   7.712  68.289  1.00  0.00    -0.127 C  
HETATM    8  C   UNK A   1      -7.435   9.080  66.971  1.00  0.00    -0.087 C  
HETATM    9  C   UNK A   1      -6.522   9.849  67.947  1.00  0.00    -0.059 C  
HETATM   10  C   UNK A   1      -7.565   9.893  65.676  1.00  0.00    -0.119 C  
HETATM   11  O   UNK A   1      -8.022   7.286  68.904  1.00  0.00    -0.118 OA 
HETATM   12  O   UNK A   1      -7.114  10.167  69.123  1.00  0.00    -0.062 OA 
HETATM   13  O   UNK A   1      -5.382  10.187  67.685  1.00  0.00    -0.038 OA 
ENDROOT
BRANCH   7  14
HETATM   14  C   UNK A   1     -10.412   7.104  68.555  1.00  0.00    -0.204 C  
HETATM   15  C   UNK A   1     -11.042   6.661  67.225  1.00  0.00    -0.418 C  
BRANCH  14  16
HETATM   16  N   UNK A   1     -11.265   8.098  69.251  1.00  0.00    -0.412 NA 
HETATM   17  H   UNK A   1     -12.242   7.805  69.240  1.00  0.00     0.000 HD 
BRANCH  16  18
HETATM   18  C   UNK A   0     -10.818   8.394  70.647  1.00  0.00    -0.231 C  
BRANCH  18  19
HETATM   19  C   UNK A   0     -11.313   9.772  71.087  1.00  0.00    -0.459 C  
BRANCH  19  20
HETATM   20  C   UNK A   0     -12.446  10.349  70.225  1.00  0.00    -0.296 C  
BRANCH  20  21
HETATM   21  C   UNK A   0     -12.733  11.741  70.732  1.00  0.00    -0.256 A  
HETATM   22  C   UNK A   0     -13.410  11.928  71.944  1.00  0.00    -0.405 A  
HETATM   23  C   UNK A   0     -12.164  12.849  70.085  1.00  0.00    -0.336 A  
HETATM   24  C   UNK A   0     -13.472  13.192  72.528  1.00  0.00    -0.579 A  
HETATM   25  C   UNK A   0     -12.231  14.112  70.670  1.00  0.00    -0.432 A  
HETATM   26  C   UNK A   0     -12.869  14.280  71.897  1.00  0.00    -0.429 A  
ENDBRANCH  20  21
ENDBRANCH  19  20
ENDBRANCH  18  19
BRANCH  18  27
HETATM   27  C   UNK A   0     -11.329   7.296  71.601  1.00  0.00    -0.254 C  
HETATM   28  O   UNK A   0     -12.486   6.907  71.685  1.00  0.00    -0.350 OA 
BRANCH  27  29
HETATM   29  O   UNK A   0     -10.280   6.815  72.336  1.00  0.00    -0.178 OA 
BRANCH  29  30
HETATM   30  C   UNK A   0      -9.742   5.550  71.921  1.00  0.00    -0.162 C  
HETATM   31  C   UNK A   0      -9.875   4.515  73.024  1.00  0.00    -0.176 C  
ENDBRANCH  29  30
ENDBRANCH  27  29
ENDBRANCH  18  27
ENDBRANCH  16  18
ENDBRANCH  14  16
ENDBRANCH   7  14
TORSDOF 9
ENDMDL
MODEL      168
REMARK 921   NORMALIZED FREE ENERGY PREDICTED BY IDOCK:   -4.29 KCAL/MOL
REMARK 922        TOTAL FREE ENERGY PREDICTED BY IDOCK:   -8.18 KCAL/MOL
REMARK 923 INTER-LIGAND FREE ENERGY PREDICTED BY IDOCK:   -6.53 KCAL/MOL
REMARK 924 INTRA-LIGAND FREE ENERGY PREDICTED BY IDOCK:   -1.66 KCAL/MOL
REMARK 927      BINDING AFFINITY PREDICTED BY RF-SCORE:    0.00 PKD
ROOT
HETATM    1  C   UNK A   1      -7.007   7.696  65.866  1.00  0.00    -0.061 C  
HETATM    2  C   UNK A   1      -5.690   7.219  66.510  1.00  0.00    -0.031 C  
HETATM    3  C   UNK A   1      -5.848   7.443  68.008  1.00  0.00    -0.031 C  
HETATM    4  C   UNK A   1      -6.997   8.430  68.120  1.00  0.00    -0.081 C  
HETATM    5  C   UNK A   1      -7.970   7.995  67.028  1.00  0.00    -0.108 C  
HETATM    6  N   UNK A   1      -8.701   6.734  67.227  1.00  0.00    -0.119 N  
HETATM    7  C   UNK A   1      -9.777   6.519  68.089  1.00  0.00    -0.126 C  
HETATM    8  C   UNK A   1      -8.631   5.895  65.997  1.00  0.00    -0.142 C  
HETATM    9  C   UNK A   1      -8.121   4.447  66.135  1.00  0.00    -0.102 C  
HETATM   10  C   UNK A   1      -7.716   6.649  65.024  1.00  0.00    -0.103 C  
HETATM   11  O   UNK A   1     -10.423   5.470  67.975  1.00  0.00    -0.204 OA 
HETATM   12  O   UNK A   1      -7.786   4.097  67.399  1.00  0.00    -0.082 OA 
HETATM   13  O   UNK A   1      -7.983   3.685  65.195  1.00  0.00    -0.088 OA 
ENDROOT
BRANCH   7  14
HETATM   14  C   UNK A   1     -10.130   7.530  69.215  1.00  0.00    -0.188 C  
HETATM   15  C   UNK A   1     -11.071   6.861  70.230  1.00  0.00    -0.342 C  
BRANCH  14  16
HETATM   16  N   UNK A   1     -10.747   8.744  68.626  1.00  0.00    -0.411 NA 
HETATM   17  H   UNK A   1     -11.764   8.691  68.675  1.00  0.00     0.000 HD 
BRANCH  16  18
HETATM   18  C   UNK A   0     -10.253  10.018  69.234  1.00  0.00    -0.214 C  
BRANCH  18  19
HETATM   19  C   UNK A   0      -9.953  11.048  68.146  1.00  0.00    -0.190 C  
BRANCH  19  20
HETATM   20  C   UNK A   0     -10.515  10.697  66.761  1.00  0.00    -0.303 C  
BRANCH  20  21
HETATM   21  C   UNK A   0     -11.004  11.981  66.135  1.00  0.00    -0.343 A  
HETATM   22  C   UNK A   0     -12.282  12.472  66.432  1.00  0.00    -0.100 A  
HETATM   23  C   UNK A   0     -10.116  12.779  65.398  1.00  0.00    -0.274 A  
HETATM   24  C   UNK A   0     -12.648  13.760  66.047  1.00  0.00    -0.458 A  
HETATM   25  C   UNK A   0     -10.486  14.065  65.011  1.00  0.00    -0.440 A  
HETATM   26  C   UNK A   0     -11.743  14.561  65.350  1.00  0.00    -0.354 A  
ENDBRANCH  20  21
ENDBRANCH  19  20
ENDBRANCH  18  19
BRANCH  18  27
HETATM   27  C   UNK A   0     -11.298  10.557  70.230  1.00  0.00    -0.327 C  
HETATM   28  O   UNK A   0     -11.468  10.155  71.373  1.00  0.00    -0.327 OA 
BRANCH  27  29
HETATM   29  O   UNK A   0     -12.004  11.568  69.637  1.00  0.00    -0.310 OA 
BRANCH  29  30
HETATM   30  C   UNK A   0     -12.250  12.730  70.444  1.00  0.00    -0.293 C  
HETATM   31  C   UNK A   0     -11.674  13.975  69.794  1.00  0.00    -0.375 C  
ENDBRANCH  29  30
ENDBRANCH  27  29
ENDBRANCH  18  27
ENDBRANCH  16  18
ENDBRANCH  14  16
ENDBRANCH   7  14
TORSDOF 9
ENDMDL
MODEL      169
REMARK 921   NORMALIZED FREE ENERGY PREDICTED BY IDOCK:   -4.28 KCAL/MOL
REMARK 922        TOTAL FREE ENERGY PREDICTED BY IDOCK:   -8.16 KCAL/MOL
REMARK 923 INTER-LIGAND FREE ENERGY PREDICTED BY IDOCK:   -6.89 KCAL/MOL
REMARK 924 INTRA-LIGAND FREE ENERGY PREDICTED BY IDOCK:   -1.28 KCAL/MOL
REMARK 927      BINDING AFFINITY PREDICTED BY RF-SCORE:    0.00 PKD
ROOT
HETATM    1  C   UNK A   1      -7.767   6.582  68.321  1.00  0.00    -0.105 C  
HETATM    2  C   UNK A   1      -6.628   6.113  69.247  1.00  0.00    -0.047 C  
HETATM    3  C   UNK A   1      -6.769   6.922  70.530  1.00  0.00    -0.053 C  
HETATM    4  C   UNK A   1      -7.641   8.101  70.137  1.00  0.00    -0.077 C  
HETATM    5  C   UNK A   1      -8.660   7.504  69.169  1.00  0.00    -0.136 C  
HETATM    6  N   UNK A   1      -9.685   6.606  69.724  1.00  0.00    -0.159 N  
HETATM    7  C   UNK A   1     -10.805   6.977  70.468  1.00  0.00    -0.251 C  
HETATM    8  C   UNK A   1      -9.788   5.368  68.901  1.00  0.00    -0.166 C  
HETATM    9  C   UNK A   1      -9.656   4.009  69.617  1.00  0.00    -0.200 C  
HETATM   10  C   UNK A   1      -8.687   5.474  67.838  1.00  0.00    -0.106 C  
HETATM   11  O   UNK A   1     -11.686   6.132  70.666  1.00  0.00    -0.284 OA 
HETATM   12  O   UNK A   1      -9.454   4.106  70.952  1.00  0.00    -0.135 OA 
HETATM   13  O   UNK A   1      -9.683   2.936  69.042  1.00  0.00    -0.061 OA 
ENDROOT
BRANCH   7  14
HETATM   14  C   UNK A   1     -10.930   8.392  71.098  1.00  0.00    -0.244 C  
HETATM   15  C   UNK A   1     -11.479   8.271  72.529  1.00  0.00    -0.454 C  
BRANCH  14  16
HETATM   16  N   UNK A   1     -11.805   9.243  70.255  1.00  0.00    -0.469 NA 
HETATM   17  H   UNK A   1     -12.674   9.461  70.742  1.00  0.00     0.000 HD 
BRANCH  16  18
HETATM   18  C   UNK A   0     -11.138  10.492  69.775  1.00  0.00    -0.295 C  
BRANCH  18  19
HETATM   19  C   UNK A   0     -11.019  10.484  68.251  1.00  0.00    -0.314 C  
BRANCH  19  20
HETATM   20  C   UNK A   0      -9.638  10.890  67.716  1.00  0.00    -0.176 C  
BRANCH  20  21
HETATM   21  C   UNK A   0      -9.715  12.348  67.332  1.00  0.00    -0.193 A  
HETATM   22  C   UNK A   0      -8.667  13.221  67.655  1.00  0.00    -0.195 A  
HETATM   23  C   UNK A   0     -10.748  12.795  66.495  1.00  0.00    -0.277 A  
HETATM   24  C   UNK A   0      -8.624  14.502  67.107  1.00  0.00    -0.242 A  
HETATM   25  C   UNK A   0     -10.704  14.078  65.952  1.00  0.00    -0.293 A  
HETATM   26  C   UNK A   0      -9.635  14.922  66.243  1.00  0.00    -0.334 A  
ENDBRANCH  20  21
ENDBRANCH  19  20
ENDBRANCH  18  19
BRANCH  18  27
HETATM   27  C   UNK A   0     -11.931  11.723  70.260  1.00  0.00    -0.343 C  
HETATM   28  O   UNK A   0     -12.082  12.764  69.636  1.00  0.00    -0.289 OA 
BRANCH  27  29
HETATM   29  O   UNK A   0     -12.450  11.463  71.499  1.00  0.00    -0.297 OA 
BRANCH  29  30
HETATM   30  C   UNK A   0     -13.646  12.177  71.848  1.00  0.00    -0.077 C  
HETATM   31  C   UNK A   0     -13.313  13.515  72.484  1.00  0.00    -0.617 C  
ENDBRANCH  29  30
ENDBRANCH  27  29
ENDBRANCH  18  27
ENDBRANCH  16  18
ENDBRANCH  14  16
ENDBRANCH   7  14
TORSDOF 9
ENDMDL
MODEL      170
REMARK 921   NORMALIZED FREE ENERGY PREDICTED BY IDOCK:   -4.27 KCAL/MOL
REMARK 922        TOTAL FREE ENERGY PREDICTED BY IDOCK:   -8.14 KCAL/MOL
REMARK 923 INTER-LIGAND FREE ENERGY PREDICTED BY IDOCK:   -6.46 KCAL/MOL
REMARK 924 INTRA-LIGAND FREE ENERGY PREDICTED BY IDOCK:   -1.68 KCAL/MOL
REMARK 927      BINDING AFFINITY PREDICTED BY RF-SCORE:    0.00 PKD
ROOT
HETATM    1  C   UNK A   1     -10.787   8.526  71.279  1.00  0.00    -0.312 C  
HETATM    2  C   UNK A   1     -11.985   8.108  72.155  1.00  0.00    -0.413 C  
HETATM    3  C   UNK A   1     -12.447   6.759  71.621  1.00  0.00    -0.398 C  
HETATM    4  C   UNK A   1     -11.838   6.676  70.232  1.00  0.00    -0.378 C  
HETATM    5  C   UNK A   1     -10.460   7.312  70.392  1.00  0.00    -0.220 C  
HETATM    6  N   UNK A   1      -9.447   6.567  71.155  1.00  0.00    -0.167 N  
HETATM    7  C   UNK A   1      -8.736   5.446  70.727  1.00  0.00    -0.132 C  
HETATM    8  C   UNK A   1      -8.784   7.461  72.147  1.00  0.00    -0.116 C  
HETATM    9  C   UNK A   1      -8.763   7.017  73.623  1.00  0.00    -0.144 C  
HETATM   10  C   UNK A   1      -9.509   8.810  72.049  1.00  0.00    -0.336 C  
HETATM   11  O   UNK A   1      -7.764   5.074  71.395  1.00  0.00    -0.093 OA 
HETATM   12  O   UNK A   1      -9.368   5.827  73.850  1.00  0.00    -0.132 OA 
HETATM   13  O   UNK A   1      -8.286   7.684  74.524  1.00  0.00    -0.207 OA 
ENDROOT
BRANCH   7  14
HETATM   14  C   UNK A   1      -9.178   4.632  69.480  1.00  0.00    -0.122 C  
HETATM   15  C   UNK A   1      -9.238   3.137  69.836  1.00  0.00    -0.222 C  
BRANCH  14  16
HETATM   16  N   UNK A   1      -8.241   4.881  68.357  1.00  0.00    -0.085 NA 
HETATM   17  H   UNK A   1      -7.696   4.044  68.149  1.00  0.00     0.000 HD 
BRANCH  16  18
HETATM   18  C   UNK A   0      -8.912   5.396  67.124  1.00  0.00    -0.112 C  
BRANCH  18  19
HETATM   19  C   UNK A   0      -9.040   6.918  67.182  1.00  0.00    -0.137 C  
BRANCH  19  20
HETATM   20  C   UNK A   0     -10.449   7.452  66.881  1.00  0.00    -0.379 C  
BRANCH  20  21
HETATM   21  C   UNK A   0     -10.325   8.937  66.638  1.00  0.00    -0.294 A  
HETATM   22  C   UNK A   0     -10.904   9.851  67.529  1.00  0.00    -0.307 A  
HETATM   23  C   UNK A   0      -9.477   9.409  65.625  1.00  0.00    -0.328 A  
HETATM   24  C   UNK A   0     -10.600  11.208  67.441  1.00  0.00    -0.272 A  
HETATM   25  C   UNK A   0      -9.178  10.767  65.538  1.00  0.00    -0.230 A  
HETATM   26  C   UNK A   0      -9.724  11.662  66.455  1.00  0.00    -0.236 A  
ENDBRANCH  20  21
ENDBRANCH  19  20
ENDBRANCH  18  19
BRANCH  18  27
HETATM   27  C   UNK A   0      -8.116   4.958  65.878  1.00  0.00    -0.108 C  
HETATM   28  O   UNK A   0      -6.928   4.668  65.857  1.00  0.00    -0.060 OA 
BRANCH  27  29
HETATM   29  O   UNK A   0      -8.952   4.936  64.796  1.00  0.00    -0.154 OA 
BRANCH  29  30
HETATM   30  C   UNK A   0      -9.711   3.732  64.604  1.00  0.00    -0.183 C  
HETATM   31  C   UNK A   0     -10.647   3.863  63.416  1.00  0.00    -0.186 C  
ENDBRANCH  29  30
ENDBRANCH  27  29
ENDBRANCH  18  27
ENDBRANCH  16  18
ENDBRANCH  14  16
ENDBRANCH   7  14
TORSDOF 9
ENDMDL
MODEL      171
REMARK 921   NORMALIZED FREE ENERGY PREDICTED BY IDOCK:   -4.25 KCAL/MOL
REMARK 922        TOTAL FREE ENERGY PREDICTED BY IDOCK:   -8.12 KCAL/MOL
REMARK 923 INTER-LIGAND FREE ENERGY PREDICTED BY IDOCK:   -6.53 KCAL/MOL
REMARK 924 INTRA-LIGAND FREE ENERGY PREDICTED BY IDOCK:   -1.59 KCAL/MOL
REMARK 927      BINDING AFFINITY PREDICTED BY RF-SCORE:    0.00 PKD
ROOT
HETATM    1  C   UNK A   1      -9.648   7.787  72.024  1.00  0.00    -0.217 C  
HETATM    2  C   UNK A   1     -10.888   6.970  72.437  1.00  0.00    -0.272 C  
HETATM    3  C   UNK A   1     -12.090   7.868  72.178  1.00  0.00    -0.371 C  
HETATM    4  C   UNK A   1     -11.501   9.265  72.083  1.00  0.00    -0.126 C  
HETATM    5  C   UNK A   1     -10.179   9.062  71.347  1.00  0.00    -0.329 C  
HETATM    6  N   UNK A   1     -10.239   8.716  69.918  1.00  0.00    -0.198 N  
HETATM    7  C   UNK A   1     -10.544   9.575  68.863  1.00  0.00    -0.216 C  
HETATM    8  C   UNK A   1      -9.337   7.566  69.626  1.00  0.00    -0.153 C  
HETATM    9  C   UNK A   1      -9.936   6.338  68.912  1.00  0.00    -0.153 C  
HETATM   10  C   UNK A   1      -8.769   7.120  70.980  1.00  0.00    -0.141 C  
HETATM   11  O   UNK A   1     -10.332   9.188  67.707  1.00  0.00    -0.217 OA 
HETATM   12  O   UNK A   1     -11.254   6.454  68.626  1.00  0.00    -0.329 OA 
HETATM   13  O   UNK A   1      -9.305   5.327  68.660  1.00  0.00    -0.113 OA 
ENDROOT
BRANCH   7  14
HETATM   14  C   UNK A   1     -11.198  10.963  69.109  1.00  0.00    -0.256 C  
HETATM   15  C   UNK A   1     -12.589  10.773  69.735  1.00  0.00    -0.126 C  
BRANCH  14  16
HETATM   16  N   UNK A   1     -11.280  11.714  67.832  1.00  0.00    -0.247 NA 
HETATM   17  H   UNK A   1     -12.208  11.623  67.419  1.00  0.00     0.000 HD 
BRANCH  16  18
HETATM   18  C   UNK A   0     -10.897  13.154  67.962  1.00  0.00    -0.242 C  
BRANCH  18  19
HETATM   19  C   UNK A   0      -9.383  13.292  68.123  1.00  0.00    -0.220 C  
BRANCH  19  20
HETATM   20  C   UNK A   0      -8.563  12.732  66.951  1.00  0.00    -0.140 C  
BRANCH  20  21
HETATM   21  C   UNK A   0      -7.695  11.625  67.499  1.00  0.00    -0.136 A  
HETATM   22  C   UNK A   0      -7.515  11.485  68.881  1.00  0.00    -0.106 A  
HETATM   23  C   UNK A   0      -7.216  10.626  66.639  1.00  0.00    -0.128 A  
HETATM   24  C   UNK A   0      -6.913  10.340  69.400  1.00  0.00    -0.083 A  
HETATM   25  C   UNK A   0      -6.611   9.484  67.161  1.00  0.00    -0.071 A  
HETATM   26  C   UNK A   0      -6.476   9.333  68.539  1.00  0.00    -0.053 A  
ENDBRANCH  20  21
ENDBRANCH  19  20
ENDBRANCH  18  19
BRANCH  18  27
HETATM   27  C   UNK A   0     -11.394  13.937  66.730  1.00  0.00    -0.333 C  
HETATM   28  O   UNK A   0     -11.306  15.146  66.570  1.00  0.00    -0.324 OA 
BRANCH  27  29
HETATM   29  O   UNK A   0     -11.945  13.061  65.834  1.00  0.00    -0.392 OA 
BRANCH  29  30
HETATM   30  C   UNK A   0     -11.444  13.130  64.490  1.00  0.00    -0.353 C  
HETATM   31  C   UNK A   0     -11.456  11.760  63.835  1.00  0.00    -0.481 C  
ENDBRANCH  29  30
ENDBRANCH  27  29
ENDBRANCH  18  27
ENDBRANCH  16  18
ENDBRANCH  14  16
ENDBRANCH   7  14
TORSDOF 9
ENDMDL
MODEL      172
REMARK 921   NORMALIZED FREE ENERGY PREDICTED BY IDOCK:   -4.24 KCAL/MOL
REMARK 922        TOTAL FREE ENERGY PREDICTED BY IDOCK:   -8.11 KCAL/MOL
REMARK 923 INTER-LIGAND FREE ENERGY PREDICTED BY IDOCK:   -7.11 KCAL/MOL
REMARK 924 INTRA-LIGAND FREE ENERGY PREDICTED BY IDOCK:   -1.00 KCAL/MOL
REMARK 927      BINDING AFFINITY PREDICTED BY RF-SCORE:    0.00 PKD
ROOT
HETATM    1  C   UNK A   1     -10.904   8.412  69.711  1.00  0.00    -0.184 C  
HETATM    2  C   UNK A   1     -10.528   7.175  68.872  1.00  0.00    -0.218 C  
HETATM    3  C   UNK A   1     -10.093   7.704  67.512  1.00  0.00    -0.264 C  
HETATM    4  C   UNK A   1     -10.658   9.113  67.459  1.00  0.00    -0.317 C  
HETATM    5  C   UNK A   1     -10.483   9.638  68.881  1.00  0.00    -0.215 C  
HETATM    6  N   UNK A   1      -9.116   9.933  69.338  1.00  0.00    -0.192 N  
HETATM    7  C   UNK A   1      -8.333  11.029  68.977  1.00  0.00    -0.085 C  
HETATM    8  C   UNK A   1      -8.879   9.335  70.683  1.00  0.00    -0.237 C  
HETATM    9  C   UNK A   1      -7.657   8.413  70.861  1.00  0.00    -0.079 C  
HETATM   10  C   UNK A   1     -10.148   8.542  71.022  1.00  0.00    -0.257 C  
HETATM   11  O   UNK A   1      -7.299  11.252  69.618  1.00  0.00    -0.051 OA 
HETATM   12  O   UNK A   1      -6.920   8.250  69.738  1.00  0.00    -0.046 OA 
HETATM   13  O   UNK A   1      -7.388   7.839  71.901  1.00  0.00    -0.063 OA 
ENDROOT
BRANCH   7  14
HETATM   14  C   UNK A   1      -8.699  11.923  67.759  1.00  0.00    -0.158 C  
HETATM   15  C   UNK A   1      -7.416  12.338  67.022  1.00  0.00    -0.063 C  
BRANCH  14  16
HETATM   16  N   UNK A   1      -9.466  13.108  68.217  1.00  0.00    -0.231 NA 
HETATM   17  H   UNK A   1      -8.840  13.820  68.592  1.00  0.00     0.000 HD 
BRANCH  16  18
HETATM   18  C   UNK A   0     -10.354  13.686  67.161  1.00  0.00    -0.250 C  
BRANCH  18  19
HETATM   19  C   UNK A   0      -9.537  14.514  66.170  1.00  0.00    -0.325 C  
BRANCH  19  20
HETATM   20  C   UNK A   0      -9.727  16.033  66.297  1.00  0.00    -0.332 C  
BRANCH  20  21
HETATM   21  C   UNK A   0      -8.604  16.556  67.159  1.00  0.00    -0.208 A  
HETATM   22  C   UNK A   0      -7.293  16.097  66.970  1.00  0.00    -0.266 A  
HETATM   23  C   UNK A   0      -8.835  17.634  68.027  1.00  0.00    -0.257 A  
HETATM   24  C   UNK A   0      -6.226  16.738  67.595  1.00  0.00    -0.173 A  
HETATM   25  C   UNK A   0      -7.765  18.270  68.653  1.00  0.00    -0.318 A  
HETATM   26  C   UNK A   0      -6.462  17.834  68.424  1.00  0.00    -0.199 A  
ENDBRANCH  20  21
ENDBRANCH  19  20
ENDBRANCH  18  19
BRANCH  18  27
HETATM   27  C   UNK A   0     -11.109  12.552  66.440  1.00  0.00    -0.290 C  
HETATM   28  O   UNK A   0     -12.071  11.940  66.885  1.00  0.00    -0.599 OA 
BRANCH  27  29
HETATM   29  O   UNK A   0     -10.538  12.340  65.215  1.00  0.00    -0.270 OA 
BRANCH  29  30
HETATM   30  C   UNK A   0     -11.405  11.829  64.191  1.00  0.00    -0.352 C  
HETATM   31  C   UNK A   0     -12.029  12.960  63.393  1.00  0.00    -0.612 C  
ENDBRANCH  29  30
ENDBRANCH  27  29
ENDBRANCH  18  27
ENDBRANCH  16  18
ENDBRANCH  14  16
ENDBRANCH   7  14
TORSDOF 9
ENDMDL
MODEL      173
REMARK 921   NORMALIZED FREE ENERGY PREDICTED BY IDOCK:   -4.22 KCAL/MOL
REMARK 922        TOTAL FREE ENERGY PREDICTED BY IDOCK:   -8.07 KCAL/MOL
REMARK 923 INTER-LIGAND FREE ENERGY PREDICTED BY IDOCK:   -6.36 KCAL/MOL
REMARK 924 INTRA-LIGAND FREE ENERGY PREDICTED BY IDOCK:   -1.71 KCAL/MOL
REMARK 927      BINDING AFFINITY PREDICTED BY RF-SCORE:    0.00 PKD
ROOT
HETATM    1  C   UNK A   1     -11.789  11.458  67.943  1.00  0.00    -0.239 C  
HETATM    2  C   UNK A   1     -11.915  12.803  68.685  1.00  0.00    -0.272 C  
HETATM    3  C   UNK A   1     -11.701  12.491  70.161  1.00  0.00    -0.255 C  
HETATM    4  C   UNK A   1     -11.923  10.992  70.264  1.00  0.00    -0.452 C  
HETATM    5  C   UNK A   1     -11.304  10.435  68.985  1.00  0.00    -0.219 C  
HETATM    6  N   UNK A   1      -9.838  10.465  68.867  1.00  0.00    -0.191 N  
HETATM    7  C   UNK A   1      -8.931   9.627  69.515  1.00  0.00    -0.194 C  
HETATM    8  C   UNK A   1      -9.436  11.013  67.540  1.00  0.00    -0.163 C  
HETATM    9  C   UNK A   1      -8.452  12.199  67.513  1.00  0.00    -0.169 C  
HETATM   10  C   UNK A   1     -10.738  11.437  66.847  1.00  0.00    -0.308 C  
HETATM   11  O   UNK A   1      -7.753   9.630  69.139  1.00  0.00    -0.079 OA 
HETATM   12  O   UNK A   1      -8.057  12.616  68.739  1.00  0.00    -0.043 OA 
HETATM   13  O   UNK A   1      -8.087  12.753  66.492  1.00  0.00     0.145 OA 
ENDROOT
BRANCH   7  14
HETATM   14  C   UNK A   1      -9.356   8.752  70.727  1.00  0.00    -0.208 C  
HETATM   15  C   UNK A   1      -8.266   8.809  71.810  1.00  0.00    -0.144 C  
BRANCH  14  16
HETATM   16  N   UNK A   1      -9.601   7.359  70.281  1.00  0.00    -0.166 NA 
HETATM   17  H   UNK A   1      -9.280   6.693  70.984  1.00  0.00     0.000 HD 
BRANCH  16  18
HETATM   18  C   UNK A   0     -11.026   7.094  69.912  1.00  0.00    -0.253 C  
BRANCH  18  19
HETATM   19  C   UNK A   0     -11.101   6.142  68.718  1.00  0.00    -0.398 C  
BRANCH  19  20
HETATM   20  C   UNK A   0     -11.260   6.836  67.357  1.00  0.00    -0.262 C  
BRANCH  20  21
HETATM   21  C   UNK A   0      -9.958   6.668  66.612  1.00  0.00    -0.203 A  
HETATM   22  C   UNK A   0      -9.607   5.425  66.069  1.00  0.00    -0.149 A  
HETATM   23  C   UNK A   0      -9.182   7.796  66.302  1.00  0.00    -0.217 A  
HETATM   24  C   UNK A   0      -8.531   5.318  65.190  1.00  0.00    -0.149 A  
HETATM   25  C   UNK A   0      -8.105   7.685  65.426  1.00  0.00    -0.128 A  
HETATM   26  C   UNK A   0      -7.791   6.453  64.857  1.00  0.00    -0.113 A  
ENDBRANCH  20  21
ENDBRANCH  19  20
ENDBRANCH  18  19
BRANCH  18  27
HETATM   27  C   UNK A   0     -11.777   6.513  71.126  1.00  0.00    -0.335 C  
HETATM   28  O   UNK A   0     -12.893   6.845  71.500  1.00  0.00    -0.374 OA 
BRANCH  27  29
HETATM   29  O   UNK A   0     -11.000   5.557  71.720  1.00  0.00    -0.240 OA 
BRANCH  29  30
HETATM   30  C   UNK A   0     -11.353   5.196  73.064  1.00  0.00    -0.309 C  
HETATM   31  C   UNK A   0     -10.523   5.972  74.071  1.00  0.00    -0.272 C  
ENDBRANCH  29  30
ENDBRANCH  27  29
ENDBRANCH  18  27
ENDBRANCH  16  18
ENDBRANCH  14  16
ENDBRANCH   7  14
TORSDOF 9
ENDMDL
MODEL      174
REMARK 921   NORMALIZED FREE ENERGY PREDICTED BY IDOCK:   -4.22 KCAL/MOL
REMARK 922        TOTAL FREE ENERGY PREDICTED BY IDOCK:   -8.07 KCAL/MOL
REMARK 923 INTER-LIGAND FREE ENERGY PREDICTED BY IDOCK:   -6.81 KCAL/MOL
REMARK 924 INTRA-LIGAND FREE ENERGY PREDICTED BY IDOCK:   -1.26 KCAL/MOL
REMARK 927      BINDING AFFINITY PREDICTED BY RF-SCORE:    0.00 PKD
ROOT
HETATM    1  C   UNK A   1      -8.332   6.312  66.647  1.00  0.00    -0.112 C  
HETATM    2  C   UNK A   1      -6.947   6.190  67.313  1.00  0.00    -0.069 C  
HETATM    3  C   UNK A   1      -6.670   7.542  67.959  1.00  0.00    -0.059 C  
HETATM    4  C   UNK A   1      -7.637   8.491  67.272  1.00  0.00    -0.097 C  
HETATM    5  C   UNK A   1      -8.908   7.666  67.097  1.00  0.00    -0.125 C  
HETATM    6  N   UNK A   1      -9.686   7.345  68.304  1.00  0.00    -0.150 N  
HETATM    7  C   UNK A   1     -10.506   8.214  69.024  1.00  0.00    -0.198 C  
HETATM    8  C   UNK A   1     -10.039   5.897  68.323  1.00  0.00    -0.166 C  
HETATM    9  C   UNK A   1      -9.665   5.076  69.572  1.00  0.00    -0.189 C  
HETATM   10  C   UNK A   1      -9.347   5.278  67.101  1.00  0.00    -0.124 C  
HETATM   11  O   UNK A   1     -11.264   7.737  69.877  1.00  0.00    -0.190 OA 
HETATM   12  O   UNK A   1      -9.039   5.792  70.537  1.00  0.00    -0.143 OA 
HETATM   13  O   UNK A   1      -9.866   3.880  69.682  1.00  0.00    -0.194 OA 
ENDROOT
BRANCH   7  14
HETATM   14  C   UNK A   1     -10.434   9.753  68.823  1.00  0.00    -0.218 C  
HETATM   15  C   UNK A   1     -10.206  10.439  70.180  1.00  0.00    -0.050 C  
BRANCH  14  16
HETATM   16  N   UNK A   1     -11.679  10.235  68.177  1.00  0.00    -0.714 NA 
HETATM   17  H   UNK A   1     -12.370  10.499  68.879  1.00  0.00     0.000 HD 
BRANCH  16  18
HETATM   18  C   UNK A   0     -11.454  11.352  67.208  1.00  0.00    -0.224 C  
BRANCH  18  19
HETATM   19  C   UNK A   0     -11.599  12.703  67.908  1.00  0.00    -0.401 C  
BRANCH  19  20
HETATM   20  C   UNK A   0     -11.783  13.897  66.959  1.00  0.00    -0.426 C  
BRANCH  20  21
HETATM   21  C   UNK A   0     -10.880  15.004  67.448  1.00  0.00    -0.305 A  
HETATM   22  C   UNK A   0     -11.016  16.304  66.943  1.00  0.00    -0.059 A  
HETATM   23  C   UNK A   0     -10.028  14.777  68.539  1.00  0.00    -0.228 A  
HETATM   24  C   UNK A   0     -10.353  17.368  67.551  1.00  0.00    -0.351 A  
HETATM   25  C   UNK A   0      -9.364  15.843  69.142  1.00  0.00    -0.252 A  
HETATM   26  C   UNK A   0      -9.540  17.138  68.660  1.00  0.00    -0.281 A  
ENDBRANCH  20  21
ENDBRANCH  19  20
ENDBRANCH  18  19
BRANCH  18  27
HETATM   27  C   UNK A   0     -10.058  11.210  66.568  1.00  0.00    -0.223 C  
HETATM   28  O   UNK A   0      -9.048  11.801  66.923  1.00  0.00    -0.180 OA 
BRANCH  27  29
HETATM   29  O   UNK A   0     -10.125  10.309  65.541  1.00  0.00    -0.286 OA 
BRANCH  29  30
HETATM   30  C   UNK A   0      -9.666  10.771  64.261  1.00  0.00    -0.302 C  
HETATM   31  C   UNK A   0     -10.649  11.757  63.655  1.00  0.00    -0.496 C  
ENDBRANCH  29  30
ENDBRANCH  27  29
ENDBRANCH  18  27
ENDBRANCH  16  18
ENDBRANCH  14  16
ENDBRANCH   7  14
TORSDOF 9
ENDMDL
MODEL      175
REMARK 921   NORMALIZED FREE ENERGY PREDICTED BY IDOCK:   -4.21 KCAL/MOL
REMARK 922        TOTAL FREE ENERGY PREDICTED BY IDOCK:   -8.06 KCAL/MOL
REMARK 923 INTER-LIGAND FREE ENERGY PREDICTED BY IDOCK:   -6.31 KCAL/MOL
REMARK 924 INTRA-LIGAND FREE ENERGY PREDICTED BY IDOCK:   -1.75 KCAL/MOL
REMARK 927      BINDING AFFINITY PREDICTED BY RF-SCORE:    0.00 PKD
ROOT
HETATM    1  C   UNK A   1      -8.054  13.443  67.208  1.00  0.00    -0.147 C  
HETATM    2  C   UNK A   1      -7.467  12.110  66.704  1.00  0.00     0.175 C  
HETATM    3  C   UNK A   1      -7.975  11.038  67.659  1.00  0.00    -0.115 C  
HETATM    4  C   UNK A   1      -8.420  11.810  68.888  1.00  0.00     0.093 C  
HETATM    5  C   UNK A   1      -9.050  13.080  68.323  1.00  0.00    -0.179 C  
HETATM    6  N   UNK A   1     -10.340  12.950  67.627  1.00  0.00    -0.216 N  
HETATM    7  C   UNK A   1     -11.589  12.748  68.215  1.00  0.00    -0.334 C  
HETATM    8  C   UNK A   1     -10.305  13.682  66.329  1.00  0.00    -0.293 C  
HETATM    9  C   UNK A   1     -10.686  12.909  65.051  1.00  0.00    -0.305 C  
HETATM   10  C   UNK A   1      -8.870  14.205  66.179  1.00  0.00     0.302 C  
HETATM   11  O   UNK A   1     -12.599  12.887  67.515  1.00  0.00     0.050 OA 
HETATM   12  O   UNK A   1     -11.019  11.615  65.267  1.00  0.00    -0.298 OA 
HETATM   13  O   UNK A   1     -10.653  13.392  63.933  1.00  0.00    -0.233 OA 
ENDROOT
BRANCH   7  14
HETATM   14  C   UNK A   1     -11.727  12.294  69.695  1.00  0.00    -0.316 C  
HETATM   15  C   UNK A   1     -12.104  10.805  69.743  1.00  0.00    -0.389 C  
BRANCH  14  16
HETATM   16  N   UNK A   1     -12.740  13.130  70.385  1.00  0.00    -0.087 NA 
HETATM   17  H   UNK A   1     -13.366  12.549  70.943  1.00  0.00     0.000 HD 
BRANCH  16  18
HETATM   18  C   UNK A   0     -12.145  14.220  71.219  1.00  0.00    -0.316 C  
BRANCH  18  19
HETATM   19  C   UNK A   0     -11.579  15.326  70.327  1.00  0.00    -0.332 C  
BRANCH  19  20
HETATM   20  C   UNK A   0     -10.050  15.310  70.182  1.00  0.00    -0.116 C  
BRANCH  20  21
HETATM   21  C   UNK A   0      -9.676  16.430  69.241  1.00  0.00    -0.221 A  
HETATM   22  C   UNK A   0      -8.331  16.776  69.053  1.00  0.00    -0.163 A  
HETATM   23  C   UNK A   0     -10.655  17.004  68.417  1.00  0.00    -0.375 A  
HETATM   24  C   UNK A   0      -7.965  17.641  68.023  1.00  0.00    -0.241 A  
HETATM   25  C   UNK A   0     -10.286  17.871  67.391  1.00  0.00    -0.363 A  
HETATM   26  C   UNK A   0      -8.943  18.175  67.183  1.00  0.00    -0.256 A  
ENDBRANCH  20  21
ENDBRANCH  19  20
ENDBRANCH  18  19
BRANCH  18  27
HETATM   27  C   UNK A   0     -13.212  14.780  72.180  1.00  0.00    -0.361 C  
HETATM   28  O   UNK A   0     -14.249  15.337  71.847  1.00  0.00    -0.501 OA 
BRANCH  27  29
HETATM   29  O   UNK A   0     -12.821  14.547  73.470  1.00  0.00    -0.491 OA 
BRANCH  29  30
HETATM   30  C   UNK A   0     -11.691  15.301  73.936  1.00  0.00    -0.002 C  
HETATM   31  C   UNK A   0     -12.130  16.636  74.512  1.00  0.00    -0.282 C  
ENDBRANCH  29  30
ENDBRANCH  27  29
ENDBRANCH  18  27
ENDBRANCH  16  18
ENDBRANCH  14  16
ENDBRANCH   7  14
TORSDOF 9
ENDMDL
MODEL      176
REMARK 921   NORMALIZED FREE ENERGY PREDICTED BY IDOCK:   -4.20 KCAL/MOL
REMARK 922        TOTAL FREE ENERGY PREDICTED BY IDOCK:   -8.04 KCAL/MOL
REMARK 923 INTER-LIGAND FREE ENERGY PREDICTED BY IDOCK:   -7.19 KCAL/MOL
REMARK 924 INTRA-LIGAND FREE ENERGY PREDICTED BY IDOCK:   -0.85 KCAL/MOL
REMARK 927      BINDING AFFINITY PREDICTED BY RF-SCORE:    0.00 PKD
ROOT
HETATM    1  C   UNK A   1      -8.204  11.753  67.461  1.00  0.00    -0.152 C  
HETATM    2  C   UNK A   1      -8.633  11.107  66.129  1.00  0.00    -0.172 C  
HETATM    3  C   UNK A   1      -8.834   9.626  66.424  1.00  0.00    -0.168 C  
HETATM    4  C   UNK A   1      -8.091   9.400  67.729  1.00  0.00    -0.107 C  
HETATM    5  C   UNK A   1      -8.364  10.665  68.538  1.00  0.00    -0.130 C  
HETATM    6  N   UNK A   1      -9.727  10.865  69.055  1.00  0.00    -0.304 N  
HETATM    7  C   UNK A   1     -10.315  10.206  70.134  1.00  0.00    -0.224 C  
HETATM    8  C   UNK A   1     -10.195  12.249  68.760  1.00  0.00    -0.102 C  
HETATM    9  C   UNK A   1     -11.537  12.418  68.020  1.00  0.00    -0.347 C  
HETATM   10  C   UNK A   1      -9.086  12.900  67.922  1.00  0.00    -0.201 C  
HETATM   11  O   UNK A   1     -11.381  10.645  70.582  1.00  0.00    -0.316 OA 
HETATM   12  O   UNK A   1     -12.152  11.250  67.717  1.00  0.00    -0.631 OA 
HETATM   13  O   UNK A   1     -11.998  13.496  67.691  1.00  0.00    -0.354 OA 
ENDROOT
BRANCH   7  14
HETATM   14  C   UNK A   1      -9.698   8.910  70.729  1.00  0.00    -0.227 C  
HETATM   15  C   UNK A   1      -8.259   9.192  71.191  1.00  0.00    -0.142 C  
BRANCH  14  16
HETATM   16  N   UNK A   1      -9.737   7.824  69.720  1.00  0.00    -0.175 NA 
HETATM   17  H   UNK A   1      -9.126   7.054  69.994  1.00  0.00     0.000 HD 
BRANCH  16  18
HETATM   18  C   UNK A   0     -11.118   7.328  69.432  1.00  0.00    -0.068 C  
BRANCH  18  19
HETATM   19  C   UNK A   0     -11.069   6.135  68.477  1.00  0.00    -0.352 C  
BRANCH  19  20
HETATM   20  C   UNK A   0     -10.895   6.507  66.997  1.00  0.00    -0.465 C  
BRANCH  20  21
HETATM   21  C   UNK A   0      -9.818   5.613  66.432  1.00  0.00    -0.184 A  
HETATM   22  C   UNK A   0      -9.940   4.219  66.514  1.00  0.00    -0.214 A  
HETATM   23  C   UNK A   0      -8.783   6.168  65.665  1.00  0.00    -0.133 A  
HETATM   24  C   UNK A   0      -9.075   3.394  65.797  1.00  0.00    -0.152 A  
HETATM   25  C   UNK A   0      -7.918   5.340  64.952  1.00  0.00    -0.105 A  
HETATM   26  C   UNK A   0      -8.075   3.957  65.004  1.00  0.00    -0.093 A  
ENDBRANCH  20  21
ENDBRANCH  19  20
ENDBRANCH  18  19
BRANCH  18  27
HETATM   27  C   UNK A   0     -11.819   6.949  70.751  1.00  0.00    -0.377 C  
HETATM   28  O   UNK A   0     -12.820   7.485  71.206  1.00  0.00    -0.334 OA 
BRANCH  27  29
HETATM   29  O   UNK A   0     -11.148   5.909  71.334  1.00  0.00    -0.276 OA 
BRANCH  29  30
HETATM   30  C   UNK A   0     -10.949   5.997  72.753  1.00  0.00    -0.264 C  
HETATM   31  C   UNK A   0     -11.286   4.681  73.432  1.00  0.00    -0.423 C  
ENDBRANCH  29  30
ENDBRANCH  27  29
ENDBRANCH  18  27
ENDBRANCH  16  18
ENDBRANCH  14  16
ENDBRANCH   7  14
TORSDOF 9
ENDMDL
MODEL      177
REMARK 921   NORMALIZED FREE ENERGY PREDICTED BY IDOCK:   -4.18 KCAL/MOL
REMARK 922        TOTAL FREE ENERGY PREDICTED BY IDOCK:   -8.02 KCAL/MOL
REMARK 923 INTER-LIGAND FREE ENERGY PREDICTED BY IDOCK:   -6.29 KCAL/MOL
REMARK 924 INTRA-LIGAND FREE ENERGY PREDICTED BY IDOCK:   -1.73 KCAL/MOL
REMARK 927      BINDING AFFINITY PREDICTED BY RF-SCORE:    0.00 PKD
ROOT
HETATM    1  C   UNK A   1      -8.708   6.370  69.928  1.00  0.00    -0.142 C  
HETATM    2  C   UNK A   1      -8.161   6.475  71.365  1.00  0.00    -0.120 C  
HETATM    3  C   UNK A   1      -7.226   7.677  71.374  1.00  0.00    -0.066 C  
HETATM    4  C   UNK A   1      -6.914   7.920  69.908  1.00  0.00    -0.050 C  
HETATM    5  C   UNK A   1      -8.232   7.636  69.194  1.00  0.00    -0.130 C  
HETATM    6  N   UNK A   1      -9.331   8.597  69.379  1.00  0.00    -0.150 N  
HETATM    7  C   UNK A   1      -9.440   9.861  68.801  1.00  0.00    -0.157 C  
HETATM    8  C   UNK A   1     -10.597   7.880  69.705  1.00  0.00    -0.234 C  
HETATM    9  C   UNK A   1     -11.362   8.301  70.975  1.00  0.00    -0.269 C  
HETATM   10  C   UNK A   1     -10.223   6.397  69.824  1.00  0.00    -0.226 C  
HETATM   11  O   UNK A   1     -10.525  10.451  68.875  1.00  0.00    -0.187 OA 
HETATM   12  O   UNK A   1     -10.773   9.305  71.667  1.00  0.00    -0.354 OA 
HETATM   13  O   UNK A   1     -12.382   7.761  71.361  1.00  0.00    -0.312 OA 
ENDROOT
BRANCH   7  14
HETATM   14  C   UNK A   1      -8.222  10.557  68.132  1.00  0.00    -0.114 C  
HETATM   15  C   UNK A   1      -8.262  12.064  68.432  1.00  0.00    -0.151 C  
BRANCH  14  16
HETATM   16  N   UNK A   1      -8.234  10.298  66.672  1.00  0.00    -0.123 NA 
HETATM   17  H   UNK A   1      -7.332   9.935  66.362  1.00  0.00     0.000 HD 
BRANCH  16  18
HETATM   18  C   UNK A   0      -9.346   9.398  66.235  1.00  0.00    -0.198 C  
BRANCH  18  19
HETATM   19  C   UNK A   0     -10.263  10.121  65.249  1.00  0.00    -0.261 C  
BRANCH  19  20
HETATM   20  C   UNK A   0      -9.719  11.462  64.735  1.00  0.00    -0.280 C  
BRANCH  20  21
HETATM   21  C   UNK A   0     -10.454  12.557  65.469  1.00  0.00    -0.305 A  
HETATM   22  C   UNK A   0     -11.588  12.258  66.235  1.00  0.00    -0.446 A  
HETATM   23  C   UNK A   0      -9.901  13.845  65.534  1.00  0.00    -0.213 A  
HETATM   24  C   UNK A   0     -12.129  13.213  67.094  1.00  0.00    -0.343 A  
HETATM   25  C   UNK A   0     -10.447  14.799  66.391  1.00  0.00    -0.294 A  
HETATM   26  C   UNK A   0     -11.547  14.478  67.182  1.00  0.00    -0.406 A  
ENDBRANCH  20  21
ENDBRANCH  19  20
ENDBRANCH  18  19
BRANCH  18  27
HETATM   27  C   UNK A   0      -8.761   8.118  65.605  1.00  0.00    -0.145 C  
HETATM   28  O   UNK A   0      -7.880   8.079  64.757  1.00  0.00    -0.116 OA 
BRANCH  27  29
HETATM   29  O   UNK A   0      -9.377   7.026  66.152  1.00  0.00    -0.138 OA 
BRANCH  29  30
HETATM   30  C   UNK A   0      -8.743   5.759  65.924  1.00  0.00    -0.149 C  
HETATM   31  C   UNK A   0      -9.769   4.641  65.859  1.00  0.00    -0.208 C  
ENDBRANCH  29  30
ENDBRANCH  27  29
ENDBRANCH  18  27
ENDBRANCH  16  18
ENDBRANCH  14  16
ENDBRANCH   7  14
TORSDOF 9
ENDMDL
MODEL      178
REMARK 921   NORMALIZED FREE ENERGY PREDICTED BY IDOCK:   -4.17 KCAL/MOL
REMARK 922        TOTAL FREE ENERGY PREDICTED BY IDOCK:   -8.00 KCAL/MOL
REMARK 923 INTER-LIGAND FREE ENERGY PREDICTED BY IDOCK:   -7.67 KCAL/MOL
REMARK 924 INTRA-LIGAND FREE ENERGY PREDICTED BY IDOCK:   -0.33 KCAL/MOL
REMARK 927      BINDING AFFINITY PREDICTED BY RF-SCORE:    0.00 PKD
ROOT
HETATM    1  C   UNK A   1      -6.953   5.305  67.916  1.00  0.00    -0.065 C  
HETATM    2  C   UNK A   1      -6.186   5.603  69.220  1.00  0.00    -0.029 C  
HETATM    3  C   UNK A   1      -6.508   7.049  69.576  1.00  0.00    -0.043 C  
HETATM    4  C   UNK A   1      -7.034   7.646  68.283  1.00  0.00    -0.072 C  
HETATM    5  C   UNK A   1      -7.859   6.522  67.662  1.00  0.00    -0.110 C  
HETATM    6  N   UNK A   1      -9.131   6.169  68.312  1.00  0.00    -0.114 N  
HETATM    7  C   UNK A   1     -10.322   6.893  68.264  1.00  0.00    -0.193 C  
HETATM    8  C   UNK A   1      -9.234   4.692  68.481  1.00  0.00    -0.129 C  
HETATM    9  C   UNK A   1      -9.524   4.142  69.891  1.00  0.00    -0.195 C  
HETATM   10  C   UNK A   1      -7.897   4.118  67.995  1.00  0.00    -0.078 C  
HETATM   11  O   UNK A   1     -11.357   6.352  68.671  1.00  0.00    -0.313 OA 
HETATM   12  O   UNK A   1      -9.657   5.098  70.840  1.00  0.00    -0.158 OA 
HETATM   13  O   UNK A   1      -9.589   2.955  70.155  1.00  0.00    -0.152 OA 
ENDROOT
BRANCH   7  14
HETATM   14  C   UNK A   1     -10.357   8.368  67.777  1.00  0.00    -0.235 C  
HETATM   15  C   UNK A   1      -9.649   8.477  66.416  1.00  0.00    -0.314 C  
BRANCH  14  16
HETATM   16  N   UNK A   1      -9.720   9.248  68.787  1.00  0.00    -0.154 NA 
HETATM   17  H   UNK A   1      -8.792   9.538  68.480  1.00  0.00     0.000 HD 
BRANCH  16  18
HETATM   18  C   UNK A   0     -10.553  10.435  69.152  1.00  0.00    -0.228 C  
BRANCH  18  19
HETATM   19  C   UNK A   0     -11.514  10.784  68.016  1.00  0.00    -0.333 C  
BRANCH  19  20
HETATM   20  C   UNK A   0     -11.710  12.290  67.784  1.00  0.00    -0.403 C  
BRANCH  20  21
HETATM   21  C   UNK A   0     -11.593  12.535  66.299  1.00  0.00    -0.449 A  
HETATM   22  C   UNK A   0     -10.911  11.623  65.483  1.00  0.00    -0.327 A  
HETATM   23  C   UNK A   0     -12.319  13.578  65.706  1.00  0.00    -0.516 A  
HETATM   24  C   UNK A   0     -10.997  11.720  64.095  1.00  0.00    -0.437 A  
HETATM   25  C   UNK A   0     -12.401  13.674  64.318  1.00  0.00    -0.388 A  
HETATM   26  C   UNK A   0     -11.756  12.737  63.515  1.00  0.00    -0.597 A  
ENDBRANCH  20  21
ENDBRANCH  19  20
ENDBRANCH  18  19
BRANCH  18  27
HETATM   27  C   UNK A   0     -11.323  10.148  70.456  1.00  0.00    -0.338 C  
HETATM   28  O   UNK A   0     -12.259  10.805  70.891  1.00  0.00    -0.325 OA 
BRANCH  27  29
HETATM   29  O   UNK A   0     -10.799   9.033  71.051  1.00  0.00    -0.233 OA 
BRANCH  29  30
HETATM   30  C   UNK A   0     -11.524   8.514  72.177  1.00  0.00    -0.376 C  
HETATM   31  C   UNK A   0     -12.453   7.391  71.754  1.00  0.00    -0.367 C  
ENDBRANCH  29  30
ENDBRANCH  27  29
ENDBRANCH  18  27
ENDBRANCH  16  18
ENDBRANCH  14  16
ENDBRANCH   7  14
TORSDOF 9
ENDMDL
MODEL      179
REMARK 921   NORMALIZED FREE ENERGY PREDICTED BY IDOCK:   -4.16 KCAL/MOL
REMARK 922        TOTAL FREE ENERGY PREDICTED BY IDOCK:   -7.99 KCAL/MOL
REMARK 923 INTER-LIGAND FREE ENERGY PREDICTED BY IDOCK:   -7.28 KCAL/MOL
REMARK 924 INTRA-LIGAND FREE ENERGY PREDICTED BY IDOCK:   -0.71 KCAL/MOL
REMARK 927      BINDING AFFINITY PREDICTED BY RF-SCORE:    0.00 PKD
ROOT
HETATM    1  C   UNK A   1      -9.561   8.987  65.751  1.00  0.00    -0.287 C  
HETATM    2  C   UNK A   1      -8.084   9.319  66.040  1.00  0.00    -0.110 C  
HETATM    3  C   UNK A   1      -7.938  10.819  65.820  1.00  0.00    -0.122 C  
HETATM    4  C   UNK A   1      -9.156  11.197  64.993  1.00  0.00    -0.138 C  
HETATM    5  C   UNK A   1     -10.277  10.336  65.568  1.00  0.00    -0.238 C  
HETATM    6  N   UNK A   1     -10.773  10.668  66.912  1.00  0.00    -0.255 N  
HETATM    7  C   UNK A   1     -11.596  11.740  67.258  1.00  0.00    -0.269 C  
HETATM    8  C   UNK A   1     -10.863   9.438  67.750  1.00  0.00    -0.159 C  
HETATM    9  C   UNK A   1     -10.148   9.437  69.115  1.00  0.00    -0.195 C  
HETATM   10  C   UNK A   1     -10.291   8.302  66.893  1.00  0.00    -0.391 C  
HETATM   11  O   UNK A   1     -12.107  11.752  68.384  1.00  0.00    -0.490 OA 
HETATM   12  O   UNK A   1      -9.501  10.591  69.401  1.00  0.00    -0.203 OA 
HETATM   13  O   UNK A   1     -10.119   8.476  69.863  1.00  0.00    -0.187 OA 
ENDROOT
BRANCH   7  14
HETATM   14  C   UNK A   1     -11.825  12.933  66.289  1.00  0.00    -0.416 C  
HETATM   15  C   UNK A   1     -12.319  12.406  64.932  1.00  0.00    -0.475 C  
BRANCH  14  16
HETATM   16  N   UNK A   1     -10.570  13.710  66.141  1.00  0.00    -0.287 NA 
HETATM   17  H   UNK A   1     -10.389  13.920  65.159  1.00  0.00     0.000 HD 
BRANCH  16  18
HETATM   18  C   UNK A   0     -10.541  14.958  66.964  1.00  0.00    -0.289 C  
BRANCH  18  19
HETATM   19  C   UNK A   0      -9.698  14.750  68.222  1.00  0.00    -0.218 C  
BRANCH  19  20
HETATM   20  C   UNK A   0      -8.659  13.624  68.116  1.00  0.00    -0.176 C  
BRANCH  20  21
HETATM   21  C   UNK A   0      -7.501  13.995  69.010  1.00  0.00    -0.060 A  
HETATM   22  C   UNK A   0      -6.420  13.117  69.170  1.00  0.00    -0.107 A  
HETATM   23  C   UNK A   0      -7.416  15.292  69.538  1.00  0.00    -0.214 A  
HETATM   24  C   UNK A   0      -5.253  13.545  69.801  1.00  0.00    -0.087 A  
HETATM   25  C   UNK A   0      -6.249  15.715  70.172  1.00  0.00    -0.084 A  
HETATM   26  C   UNK A   0      -5.164  14.850  70.287  1.00  0.00    -0.112 A  
ENDBRANCH  20  21
ENDBRANCH  19  20
ENDBRANCH  18  19
BRANCH  18  27
HETATM   27  C   UNK A   0      -9.991  16.124  66.119  1.00  0.00    -0.335 C  
HETATM   28  O   UNK A   0     -10.303  16.377  64.964  1.00  0.00    -0.615 OA 
BRANCH  27  29
HETATM   29  O   UNK A   0      -9.100  16.841  66.870  1.00  0.00    -0.213 OA 
BRANCH  29  30
HETATM   30  C   UNK A   0      -7.723  16.759  66.471  1.00  0.00    -0.299 C  
HETATM   31  C   UNK A   0      -7.013  18.082  66.695  1.00  0.00    -0.245 C  
ENDBRANCH  29  30
ENDBRANCH  27  29
ENDBRANCH  18  27
ENDBRANCH  16  18
ENDBRANCH  14  16
ENDBRANCH   7  14
TORSDOF 9
ENDMDL
MODEL      180
REMARK 921   NORMALIZED FREE ENERGY PREDICTED BY IDOCK:   -4.13 KCAL/MOL
REMARK 922        TOTAL FREE ENERGY PREDICTED BY IDOCK:   -7.93 KCAL/MOL
REMARK 923 INTER-LIGAND FREE ENERGY PREDICTED BY IDOCK:   -7.11 KCAL/MOL
REMARK 924 INTRA-LIGAND FREE ENERGY PREDICTED BY IDOCK:   -0.83 KCAL/MOL
REMARK 927      BINDING AFFINITY PREDICTED BY RF-SCORE:    0.00 PKD
ROOT
HETATM    1  C   UNK A   1      -6.471   6.372  69.507  1.00  0.00    -0.043 C  
HETATM    2  C   UNK A   1      -5.589   7.630  69.377  1.00  0.00    -0.023 C  
HETATM    3  C   UNK A   1      -6.422   8.652  68.616  1.00  0.00    -0.054 C  
HETATM    4  C   UNK A   1      -7.513   7.829  67.953  1.00  0.00    -0.104 C  
HETATM    5  C   UNK A   1      -7.866   6.771  68.995  1.00  0.00    -0.111 C  
HETATM    6  N   UNK A   1      -8.583   7.212  70.201  1.00  0.00    -0.139 N  
HETATM    7  C   UNK A   1      -9.930   7.562  70.291  1.00  0.00    -0.192 C  
HETATM    8  C   UNK A   1      -7.939   6.648  71.422  1.00  0.00    -0.107 C  
HETATM    9  C   UNK A   1      -7.522   7.625  72.539  1.00  0.00    -0.080 C  
HETATM   10  C   UNK A   1      -6.692   5.899  70.933  1.00  0.00    -0.057 C  
HETATM   11  O   UNK A   1     -10.431   7.692  71.414  1.00  0.00    -0.208 OA 
HETATM   12  O   UNK A   1      -7.800   8.923  72.270  1.00  0.00    -0.361 OA 
HETATM   13  O   UNK A   1      -6.953   7.284  73.560  1.00  0.00    -0.068 OA 
ENDROOT
BRANCH   7  14
HETATM   14  C   UNK A   1     -10.780   7.851  69.023  1.00  0.00    -0.096 C  
HETATM   15  C   UNK A   1     -10.891   6.573  68.176  1.00  0.00    -0.370 C  
BRANCH  14  16
HETATM   16  N   UNK A   1     -10.169   8.959  68.249  1.00  0.00    -0.195 NA 
HETATM   17  H   UNK A   1     -10.662   9.097  67.367  1.00  0.00     0.000 HD 
BRANCH  16  18
HETATM   18  C   UNK A   0     -10.081  10.242  69.013  1.00  0.00    -0.213 C  
BRANCH  18  19
HETATM   19  C   UNK A   0      -9.390  11.317  68.175  1.00  0.00    -0.181 C  
BRANCH  19  20
HETATM   20  C   UNK A   0      -9.091  10.904  66.726  1.00  0.00    -0.164 C  
BRANCH  20  21
HETATM   21  C   UNK A   0     -10.025  11.684  65.834  1.00  0.00    -0.264 A  
HETATM   22  C   UNK A   0     -10.399  12.992  66.170  1.00  0.00    -0.285 A  
HETATM   23  C   UNK A   0     -10.378  11.171  64.576  1.00  0.00    -0.400 A  
HETATM   24  C   UNK A   0     -11.066  13.793  65.246  1.00  0.00    -0.315 A  
HETATM   25  C   UNK A   0     -11.048  11.974  63.656  1.00  0.00    -0.525 A  
HETATM   26  C   UNK A   0     -11.376  13.287  63.983  1.00  0.00    -0.403 A  
ENDBRANCH  20  21
ENDBRANCH  19  20
ENDBRANCH  18  19
BRANCH  18  27
HETATM   27  C   UNK A   0     -11.494  10.694  69.433  1.00  0.00    -0.286 C  
HETATM   28  O   UNK A   0     -12.399  11.002  68.671  1.00  0.00    -0.539 OA 
BRANCH  27  29
HETATM   29  O   UNK A   0     -11.579  10.689  70.799  1.00  0.00    -0.333 OA 
BRANCH  29  30
HETATM   30  C   UNK A   0     -12.904  10.731  71.351  1.00  0.00    -0.452 C  
HETATM   31  C   UNK A   0     -13.215   9.455  72.113  1.00  0.00    -0.541 C  
ENDBRANCH  29  30
ENDBRANCH  27  29
ENDBRANCH  18  27
ENDBRANCH  16  18
ENDBRANCH  14  16
ENDBRANCH   7  14
TORSDOF 9
ENDMDL
MODEL      181
REMARK 921   NORMALIZED FREE ENERGY PREDICTED BY IDOCK:   -4.13 KCAL/MOL
REMARK 922        TOTAL FREE ENERGY PREDICTED BY IDOCK:   -7.93 KCAL/MOL
REMARK 923 INTER-LIGAND FREE ENERGY PREDICTED BY IDOCK:   -6.13 KCAL/MOL
REMARK 924 INTRA-LIGAND FREE ENERGY PREDICTED BY IDOCK:   -1.80 KCAL/MOL
REMARK 927      BINDING AFFINITY PREDICTED BY RF-SCORE:    0.00 PKD
ROOT
HETATM    1  C   UNK A   1     -11.388   6.134  71.275  1.00  0.00    -0.335 C  
HETATM    2  C   UNK A   1     -10.419   6.424  72.438  1.00  0.00    -0.222 C  
HETATM    3  C   UNK A   1      -9.057   6.666  71.800  1.00  0.00    -0.144 C  
HETATM    4  C   UNK A   1      -9.182   6.068  70.409  1.00  0.00    -0.167 C  
HETATM    5  C   UNK A   1     -10.605   6.415  69.981  1.00  0.00    -0.236 C  
HETATM    6  N   UNK A   1     -10.903   7.824  69.677  1.00  0.00    -0.361 N  
HETATM    7  C   UNK A   1     -10.527   8.528  68.533  1.00  0.00    -0.167 C  
HETATM    8  C   UNK A   1     -12.158   8.247  70.361  1.00  0.00     0.275 C  
HETATM    9  C   UNK A   1     -12.108   9.502  71.255  1.00  0.00    -0.360 C  
HETATM   10  C   UNK A   1     -12.597   7.051  71.215  1.00  0.00    -0.418 C  
HETATM   11  O   UNK A   1     -11.044   9.632  68.325  1.00  0.00    -0.168 OA 
HETATM   12  O   UNK A   1     -10.890  10.090  71.314  1.00  0.00    -0.205 OA 
HETATM   13  O   UNK A   1     -13.059   9.917  71.893  1.00  0.00    -0.404 OA 
ENDROOT
BRANCH   7  14
HETATM   14  C   UNK A   1      -9.436   7.987  67.568  1.00  0.00    -0.146 C  
HETATM   15  C   UNK A   1      -8.093   8.669  67.875  1.00  0.00    -0.108 C  
BRANCH  14  16
HETATM   16  N   UNK A   1      -9.849   8.218  66.162  1.00  0.00    -0.463 NA 
HETATM   17  H   UNK A   1     -10.739   8.714  66.124  1.00  0.00     0.000 HD 
BRANCH  16  18
HETATM   18  C   UNK A   0      -8.814   8.924  65.345  1.00  0.00    -0.193 C  
BRANCH  18  19
HETATM   19  C   UNK A   0      -8.246   7.989  64.277  1.00  0.00    -0.070 C  
BRANCH  19  20
HETATM   20  C   UNK A   0      -7.118   7.069  64.768  1.00  0.00    -0.060 C  
BRANCH  20  21
HETATM   21  C   UNK A   0      -7.749   5.756  65.166  1.00  0.00    -0.095 A  
HETATM   22  C   UNK A   0      -7.448   5.173  66.404  1.00  0.00    -0.087 A  
HETATM   23  C   UNK A   0      -8.775   5.210  64.381  1.00  0.00    -0.088 A  
HETATM   24  C   UNK A   0      -8.194   4.094  66.874  1.00  0.00    -0.101 A  
HETATM   25  C   UNK A   0      -9.517   4.129  64.852  1.00  0.00    -0.171 A  
HETATM   26  C   UNK A   0      -9.239   3.583  66.103  1.00  0.00    -0.173 A  
ENDBRANCH  20  21
ENDBRANCH  19  20
ENDBRANCH  18  19
BRANCH  18  27
HETATM   27  C   UNK A   0      -9.429  10.183  64.703  1.00  0.00    -0.297 C  
HETATM   28  O   UNK A   0      -9.456  10.433  63.507  1.00  0.00    -0.270 OA 
BRANCH  27  29
HETATM   29  O   UNK A   0      -9.951  10.979  65.686  1.00  0.00    -0.225 OA 
BRANCH  29  30
HETATM   30  C   UNK A   0     -11.015  11.859  65.292  1.00  0.00    -0.302 C  
HETATM   31  C   UNK A   0     -10.481  13.242  64.961  1.00  0.00    -0.367 C  
ENDBRANCH  29  30
ENDBRANCH  27  29
ENDBRANCH  18  27
ENDBRANCH  16  18
ENDBRANCH  14  16
ENDBRANCH   7  14
TORSDOF 9
ENDMDL
MODEL      182
REMARK 921   NORMALIZED FREE ENERGY PREDICTED BY IDOCK:   -4.12 KCAL/MOL
REMARK 922        TOTAL FREE ENERGY PREDICTED BY IDOCK:   -7.92 KCAL/MOL
REMARK 923 INTER-LIGAND FREE ENERGY PREDICTED BY IDOCK:   -6.16 KCAL/MOL
REMARK 924 INTRA-LIGAND FREE ENERGY PREDICTED BY IDOCK:   -1.76 KCAL/MOL
REMARK 927      BINDING AFFINITY PREDICTED BY RF-SCORE:    0.00 PKD
ROOT
HETATM    1  C   UNK A   1     -10.812  13.993  66.514  1.00  0.00    -0.300 C  
HETATM    2  C   UNK A   1     -12.259  13.856  66.001  1.00  0.00    -0.495 C  
HETATM    3  C   UNK A   1     -12.301  12.560  65.202  1.00  0.00    -0.496 C  
HETATM    4  C   UNK A   1     -10.843  12.258  64.898  1.00  0.00    -0.342 C  
HETATM    5  C   UNK A   1     -10.105  12.671  66.169  1.00  0.00    -0.257 C  
HETATM    6  N   UNK A   1     -10.290  11.838  67.367  1.00  0.00    -0.202 N  
HETATM    7  C   UNK A   1      -9.730  10.582  67.606  1.00  0.00    -0.165 C  
HETATM    8  C   UNK A   1     -10.585  12.693  68.552  1.00  0.00    -0.243 C  
HETATM    9  C   UNK A   1     -11.850  12.380  69.375  1.00  0.00    -0.304 C  
HETATM   10  C   UNK A   1     -10.685  14.129  68.021  1.00  0.00    -0.248 C  
HETATM   11  O   UNK A   1      -9.798  10.115  68.749  1.00  0.00    -0.162 OA 
HETATM   12  O   UNK A   1     -12.567  11.331  68.909  1.00  0.00    -0.327 OA 
HETATM   13  O   UNK A   1     -12.212  13.035  70.336  1.00  0.00    -0.351 OA 
ENDROOT
BRANCH   7  14
HETATM   14  C   UNK A   1      -9.092   9.747  66.462  1.00  0.00    -0.153 C  
HETATM   15  C   UNK A   1      -9.669   8.322  66.482  1.00  0.00    -0.323 C  
BRANCH  14  16
HETATM   16  N   UNK A   1      -7.616   9.733  66.613  1.00  0.00    -0.098 NA 
HETATM   17  H   UNK A   1      -7.164  10.080  65.767  1.00  0.00     0.000 HD 
BRANCH  16  18
HETATM   18  C   UNK A   0      -7.133  10.477  67.816  1.00  0.00    -0.083 C  
BRANCH  18  19
HETATM   19  C   UNK A   0      -6.093   9.652  68.574  1.00  0.00    -0.043 C  
BRANCH  19  20
HETATM   20  C   UNK A   0      -6.413   8.153  68.670  1.00  0.00    -0.053 C  
BRANCH  20  21
HETATM   21  C   UNK A   0      -7.381   7.973  69.815  1.00  0.00    -0.074 A  
HETATM   22  C   UNK A   0      -8.432   7.051  69.714  1.00  0.00    -0.137 A  
HETATM   23  C   UNK A   0      -7.125   8.591  71.047  1.00  0.00    -0.068 A  
HETATM   24  C   UNK A   0      -9.181   6.713  70.840  1.00  0.00    -0.157 A  
HETATM   25  C   UNK A   0      -7.878   8.254  72.170  1.00  0.00    -0.170 A  
HETATM   26  C   UNK A   0      -8.892   7.304  72.070  1.00  0.00    -0.138 A  
ENDBRANCH  20  21
ENDBRANCH  19  20
ENDBRANCH  18  19
BRANCH  18  27
HETATM   27  C   UNK A   0      -6.549  11.838  67.385  1.00  0.00    -0.118 C  
HETATM   28  O   UNK A   0      -5.625  12.000  66.601  1.00  0.00    -0.298 OA 
BRANCH  27  29
HETATM   29  O   UNK A   0      -7.235  12.840  68.014  1.00  0.00    -0.091 OA 
BRANCH  29  30
HETATM   30  C   UNK A   0      -6.954  14.177  67.570  1.00  0.00    -0.152 C  
HETATM   31  C   UNK A   0      -7.006  15.156  68.729  1.00  0.00    -0.111 C  
ENDBRANCH  29  30
ENDBRANCH  27  29
ENDBRANCH  18  27
ENDBRANCH  16  18
ENDBRANCH  14  16
ENDBRANCH   7  14
TORSDOF 9
ENDMDL
MODEL      183
REMARK 921   NORMALIZED FREE ENERGY PREDICTED BY IDOCK:   -4.11 KCAL/MOL
REMARK 922        TOTAL FREE ENERGY PREDICTED BY IDOCK:   -7.90 KCAL/MOL
REMARK 923 INTER-LIGAND FREE ENERGY PREDICTED BY IDOCK:   -7.43 KCAL/MOL
REMARK 924 INTRA-LIGAND FREE ENERGY PREDICTED BY IDOCK:   -0.47 KCAL/MOL
REMARK 927      BINDING AFFINITY PREDICTED BY RF-SCORE:    0.00 PKD
ROOT
HETATM    1  C   UNK A   1      -8.662   5.958  66.941  1.00  0.00    -0.111 C  
HETATM    2  C   UNK A   1     -10.069   5.718  66.359  1.00  0.00    -0.182 C  
HETATM    3  C   UNK A   1     -11.034   6.472  67.266  1.00  0.00    -0.475 C  
HETATM    4  C   UNK A   1     -10.243   6.709  68.541  1.00  0.00    -0.185 C  
HETATM    5  C   UNK A   1      -8.829   7.010  68.051  1.00  0.00    -0.124 C  
HETATM    6  N   UNK A   1      -8.601   8.294  67.370  1.00  0.00    -0.124 N  
HETATM    7  C   UNK A   1      -8.521   9.553  67.966  1.00  0.00    -0.119 C  
HETATM    8  C   UNK A   1      -7.831   8.083  66.111  1.00  0.00    -0.093 C  
HETATM    9  C   UNK A   1      -8.417   8.646  64.801  1.00  0.00    -0.149 C  
HETATM   10  C   UNK A   1      -7.669   6.565  65.966  1.00  0.00    -0.093 C  
HETATM   11  O   UNK A   1      -8.101  10.500  67.290  1.00  0.00    -0.114 OA 
HETATM   12  O   UNK A   1      -9.600   9.287  64.955  1.00  0.00    -0.117 OA 
HETATM   13  O   UNK A   1      -7.898   8.499  63.709  1.00  0.00    -0.135 OA 
ENDROOT
BRANCH   7  14
HETATM   14  C   UNK A   1      -9.006   9.794  69.423  1.00  0.00    -0.190 C  
HETATM   15  C   UNK A   1      -8.212   8.896  70.385  1.00  0.00    -0.146 C  
BRANCH  14  16
HETATM   16  N   UNK A   1     -10.463   9.530  69.518  1.00  0.00    -0.210 NA 
HETATM   17  H   UNK A   1     -10.638   8.558  69.769  1.00  0.00     0.000 HD 
BRANCH  16  18
HETATM   18  C   UNK A   0     -11.176  10.455  70.453  1.00  0.00    -0.321 C  
BRANCH  18  19
HETATM   19  C   UNK A   0     -11.898  11.553  69.672  1.00  0.00    -0.421 C  
BRANCH  19  20
HETATM   20  C   UNK A   0     -11.518  11.635  68.186  1.00  0.00    -0.382 C  
BRANCH  20  21
HETATM   21  C   UNK A   0     -11.437  13.098  67.823  1.00  0.00    -0.352 A  
HETATM   22  C   UNK A   0     -11.768  14.081  68.765  1.00  0.00    -0.388 A  
HETATM   23  C   UNK A   0     -10.857  13.482  66.604  1.00  0.00    -0.283 A  
HETATM   24  C   UNK A   0     -11.476  15.421  68.517  1.00  0.00    -0.360 A  
HETATM   25  C   UNK A   0     -10.570  14.823  66.358  1.00  0.00    -0.300 A  
HETATM   26  C   UNK A   0     -10.862  15.788  67.319  1.00  0.00    -0.298 A  
ENDBRANCH  20  21
ENDBRANCH  19  20
ENDBRANCH  18  19
BRANCH  18  27
HETATM   27  C   UNK A   0     -12.166   9.654  71.321  1.00  0.00    -0.363 C  
HETATM   28  O   UNK A   0     -13.003  10.132  72.074  1.00  0.00    -0.424 OA 
BRANCH  27  29
HETATM   29  O   UNK A   0     -11.969   8.317  71.109  1.00  0.00    -0.286 OA 
BRANCH  29  30
HETATM   30  C   UNK A   0     -11.839   7.501  72.284  1.00  0.00    -0.289 C  
HETATM   31  C   UNK A   0     -10.455   7.640  72.892  1.00  0.00    -0.394 C  
ENDBRANCH  29  30
ENDBRANCH  27  29
ENDBRANCH  18  27
ENDBRANCH  16  18
ENDBRANCH  14  16
ENDBRANCH   7  14
TORSDOF 9
ENDMDL
MODEL      184
REMARK 921   NORMALIZED FREE ENERGY PREDICTED BY IDOCK:   -4.10 KCAL/MOL
REMARK 922        TOTAL FREE ENERGY PREDICTED BY IDOCK:   -7.88 KCAL/MOL
REMARK 923 INTER-LIGAND FREE ENERGY PREDICTED BY IDOCK:   -6.75 KCAL/MOL
REMARK 924 INTRA-LIGAND FREE ENERGY PREDICTED BY IDOCK:   -1.13 KCAL/MOL
REMARK 927      BINDING AFFINITY PREDICTED BY RF-SCORE:    0.00 PKD
ROOT
HETATM    1  C   UNK A   1      -8.840  16.113  67.666  1.00  0.00    -0.191 C  
HETATM    2  C   UNK A   1      -9.643  17.257  67.015  1.00  0.00    -0.262 C  
HETATM    3  C   UNK A   1     -10.409  16.628  65.858  1.00  0.00    -0.355 C  
HETATM    4  C   UNK A   1      -9.689  15.316  65.601  1.00  0.00    -0.360 C  
HETATM    5  C   UNK A   1      -9.319  14.815  66.994  1.00  0.00    -0.233 C  
HETATM    6  N   UNK A   1     -10.408  14.339  67.861  1.00  0.00    -0.231 N  
HETATM    7  C   UNK A   1     -11.095  13.129  67.751  1.00  0.00    -0.262 C  
HETATM    8  C   UNK A   1     -10.286  14.936  69.221  1.00  0.00    -0.234 C  
HETATM    9  C   UNK A   1     -11.508  15.676  69.800  1.00  0.00    -0.342 C  
HETATM   10  C   UNK A   1      -9.107  15.915  69.148  1.00  0.00    -0.255 C  
HETATM   11  O   UNK A   1     -11.824  12.779  68.687  1.00  0.00    -0.304 OA 
HETATM   12  O   UNK A   1     -12.583  15.696  68.976  1.00  0.00     0.050 OA 
HETATM   13  O   UNK A   1     -11.511  16.237  70.881  1.00  0.00    -0.406 OA 
ENDROOT
BRANCH   7  14
HETATM   14  C   UNK A   1     -11.011  12.262  66.465  1.00  0.00    -0.279 C  
HETATM   15  C   UNK A   1     -12.036  12.767  65.437  1.00  0.00    -0.512 C  
BRANCH  14  16
HETATM   16  N   UNK A   1     -11.244  10.836  66.803  1.00  0.00    -0.218 NA 
HETATM   17  H   UNK A   1     -11.435  10.292  65.962  1.00  0.00     0.000 HD 
BRANCH  16  18
HETATM   18  C   UNK A   0     -10.132  10.222  67.591  1.00  0.00    -0.191 C  
BRANCH  18  19
HETATM   19  C   UNK A   0     -10.683   9.494  68.818  1.00  0.00    -0.218 C  
BRANCH  19  20
HETATM   20  C   UNK A   0      -9.615   9.034  69.821  1.00  0.00    -0.182 C  
BRANCH  20  21
HETATM   21  C   UNK A   0      -9.567   7.526  69.766  1.00  0.00    -0.163 A  
HETATM   22  C   UNK A   0     -10.618   6.805  69.183  1.00  0.00    -0.261 A  
HETATM   23  C   UNK A   0      -8.392   6.853  70.132  1.00  0.00    -0.135 A  
HETATM   24  C   UNK A   0     -10.476   5.443  68.921  1.00  0.00    -0.238 A  
HETATM   25  C   UNK A   0      -8.255   5.491  69.872  1.00  0.00    -0.105 A  
HETATM   26  C   UNK A   0      -9.288   4.791  69.252  1.00  0.00    -0.196 A  
ENDBRANCH  20  21
ENDBRANCH  19  20
ENDBRANCH  18  19
BRANCH  18  27
HETATM   27  C   UNK A   0      -9.331   9.257  66.693  1.00  0.00    -0.170 C  
HETATM   28  O   UNK A   0      -9.807   8.378  65.989  1.00  0.00    -0.182 OA 
BRANCH  27  29
HETATM   29  O   UNK A   0      -7.998   9.546  66.802  1.00  0.00    -0.107 OA 
BRANCH  29  30
HETATM   30  C   UNK A   0      -7.384  10.152  65.654  1.00  0.00    -0.144 C  
HETATM   31  C   UNK A   0      -6.442   9.181  64.965  1.00  0.00    -0.066 C  
ENDBRANCH  29  30
ENDBRANCH  27  29
ENDBRANCH  18  27
ENDBRANCH  16  18
ENDBRANCH  14  16
ENDBRANCH   7  14
TORSDOF 9
ENDMDL
MODEL      185
REMARK 921   NORMALIZED FREE ENERGY PREDICTED BY IDOCK:   -4.07 KCAL/MOL
REMARK 922        TOTAL FREE ENERGY PREDICTED BY IDOCK:   -7.85 KCAL/MOL
REMARK 923 INTER-LIGAND FREE ENERGY PREDICTED BY IDOCK:   -8.27 KCAL/MOL
REMARK 924 INTRA-LIGAND FREE ENERGY PREDICTED BY IDOCK:    0.42 KCAL/MOL
REMARK 927      BINDING AFFINITY PREDICTED BY RF-SCORE:    0.00 PKD
ROOT
HETATM    1  C   UNK A   1      -9.989   9.432  65.301  1.00  0.00     0.079 C  
HETATM    2  C   UNK A   1      -9.381  10.028  64.016  1.00  0.00    -0.324 C  
HETATM    3  C   UNK A   1      -9.551  11.537  64.130  1.00  0.00    -0.178 C  
HETATM    4  C   UNK A   1     -10.621  11.715  65.194  1.00  0.00    -0.343 C  
HETATM    5  C   UNK A   1     -10.312  10.625  66.217  1.00  0.00    -0.234 C  
HETATM    6  N   UNK A   1      -9.106  10.785  67.044  1.00  0.00    -0.144 N  
HETATM    7  C   UNK A   1      -8.940  11.659  68.119  1.00  0.00    -0.182 C  
HETATM    8  C   UNK A   1      -8.319   9.519  67.062  1.00  0.00    -0.124 C  
HETATM    9  C   UNK A   1      -6.830   9.585  66.667  1.00  0.00    -0.084 C  
HETATM   10  C   UNK A   1      -9.040   8.561  66.106  1.00  0.00    -0.245 C  
HETATM   11  O   UNK A   1      -7.952  11.514  68.848  1.00  0.00    -0.131 OA 
HETATM   12  O   UNK A   1      -6.400  10.827  66.340  1.00  0.00    -0.100 OA 
HETATM   13  O   UNK A   1      -6.102   8.611  66.607  1.00  0.00    -0.055 OA 
ENDROOT
BRANCH   7  14
HETATM   14  C   UNK A   1      -9.925  12.834  68.370  1.00  0.00    -0.210 C  
HETATM   15  C   UNK A   1     -11.356  12.388  68.027  1.00  0.00    -0.340 C  
BRANCH  14  16
HETATM   16  N   UNK A   1      -9.520  14.012  67.565  1.00  0.00    -0.215 NA 
HETATM   17  H   UNK A   1      -9.337  13.743  66.598  1.00  0.00     0.000 HD 
BRANCH  16  18
HETATM   18  C   UNK A   0     -10.500  15.140  67.625  1.00  0.00    -0.253 C  
BRANCH  18  19
HETATM   19  C   UNK A   0     -10.868  15.452  69.076  1.00  0.00    -0.244 C  
BRANCH  19  20
HETATM   20  C   UNK A   0     -12.363  15.709  69.314  1.00  0.00    -0.063 C  
BRANCH  20  21
HETATM   21  C   UNK A   0     -12.652  15.379  70.759  1.00  0.00    -0.497 A  
HETATM   22  C   UNK A   0     -13.257  14.162  71.100  1.00  0.00    -0.369 A  
HETATM   23  C   UNK A   0     -12.150  16.205  71.776  1.00  0.00    -0.517 A  
HETATM   24  C   UNK A   0     -13.314  13.753  72.431  1.00  0.00    -0.635 A  
HETATM   25  C   UNK A   0     -12.212  15.795  73.106  1.00  0.00    -0.605 A  
HETATM   26  C   UNK A   0     -12.776  14.563  73.431  1.00  0.00    -0.428 A  
ENDBRANCH  20  21
ENDBRANCH  19  20
ENDBRANCH  18  19
BRANCH  18  27
HETATM   27  C   UNK A   0      -9.906  16.381  66.929  1.00  0.00    -0.261 C  
HETATM   28  O   UNK A   0      -9.613  16.463  65.745  1.00  0.00    -0.452 OA 
BRANCH  27  29
HETATM   29  O   UNK A   0      -9.763  17.386  67.847  1.00  0.00    -0.259 OA 
BRANCH  29  30
HETATM   30  C   UNK A   0      -9.405  18.675  67.327  1.00  0.00    -0.287 C  
HETATM   31  C   UNK A   0     -10.611  19.370  66.720  1.00  0.00    -0.574 C  
ENDBRANCH  29  30
ENDBRANCH  27  29
ENDBRANCH  18  27
ENDBRANCH  16  18
ENDBRANCH  14  16
ENDBRANCH   7  14
TORSDOF 9
ENDMDL
MODEL      186
REMARK 921   NORMALIZED FREE ENERGY PREDICTED BY IDOCK:   -4.06 KCAL/MOL
REMARK 922        TOTAL FREE ENERGY PREDICTED BY IDOCK:   -7.83 KCAL/MOL
REMARK 923 INTER-LIGAND FREE ENERGY PREDICTED BY IDOCK:   -6.33 KCAL/MOL
REMARK 924 INTRA-LIGAND FREE ENERGY PREDICTED BY IDOCK:   -1.50 KCAL/MOL
REMARK 927      BINDING AFFINITY PREDICTED BY RF-SCORE:    0.00 PKD
ROOT
HETATM    1  C   UNK A   1     -10.727   7.596  70.996  1.00  0.00    -0.239 C  
HETATM    2  C   UNK A   1      -9.873   8.170  72.143  1.00  0.00    -0.313 C  
HETATM    3  C   UNK A   1      -8.887   9.132  71.493  1.00  0.00    -0.045 C  
HETATM    4  C   UNK A   1      -8.889   8.738  70.026  1.00  0.00    -0.149 C  
HETATM    5  C   UNK A   1     -10.347   8.393  69.736  1.00  0.00    -0.216 C  
HETATM    6  N   UNK A   1     -11.317   9.499  69.701  1.00  0.00    -0.429 N  
HETATM    7  C   UNK A   1     -11.473  10.440  68.683  1.00  0.00    -0.172 C  
HETATM    8  C   UNK A   1     -12.522   9.157  70.508  1.00  0.00     0.232 C  
HETATM    9  C   UNK A   1     -12.963  10.145  71.607  1.00  0.00    -0.456 C  
HETATM   10  C   UNK A   1     -12.224   7.800  71.157  1.00  0.00    -0.289 C  
HETATM   11  O   UNK A   1     -12.476  11.164  68.699  1.00  0.00    -0.463 OA 
HETATM   12  O   UNK A   1     -12.176  11.242  71.711  1.00  0.00    -0.011 OA 
HETATM   13  O   UNK A   1     -13.905   9.951  72.353  1.00  0.00    -0.280 OA 
ENDROOT
BRANCH   7  14
HETATM   14  C   UNK A   1     -10.391  10.637  67.585  1.00  0.00    -0.209 C  
HETATM   15  C   UNK A   1     -10.599  11.995  66.895  1.00  0.00    -0.260 C  
BRANCH  14  16
HETATM   16  N   UNK A   1     -10.455   9.521  66.610  1.00  0.00    -0.208 NA 
HETATM   17  H   UNK A   1     -10.965   9.802  65.773  1.00  0.00     0.000 HD 
BRANCH  16  18
HETATM   18  C   UNK A   0      -9.113   8.966  66.252  1.00  0.00    -0.190 C  
BRANCH  18  19
HETATM   19  C   UNK A   0      -9.112   7.443  66.384  1.00  0.00    -0.196 C  
BRANCH  19  20
HETATM   20  C   UNK A   0     -10.441   6.842  66.866  1.00  0.00    -0.349 C  
BRANCH  20  21
HETATM   21  C   UNK A   0     -10.167   5.415  67.276  1.00  0.00    -0.258 A  
HETATM   22  C   UNK A   0      -9.925   4.434  66.306  1.00  0.00    -0.255 A  
HETATM   23  C   UNK A   0      -9.974   5.104  68.630  1.00  0.00    -0.227 A  
HETATM   24  C   UNK A   0      -9.447   3.179  66.678  1.00  0.00    -0.080 A  
HETATM   25  C   UNK A   0      -9.499   3.847  68.999  1.00  0.00    -0.240 A  
HETATM   26  C   UNK A   0      -9.219   2.893  68.024  1.00  0.00    -0.248 A  
ENDBRANCH  20  21
ENDBRANCH  19  20
ENDBRANCH  18  19
BRANCH  18  27
HETATM   27  C   UNK A   0      -8.740   9.394  64.819  1.00  0.00    -0.197 C  
HETATM   28  O   UNK A   0      -9.505   9.878  63.997  1.00  0.00    -0.277 OA 
BRANCH  27  29
HETATM   29  O   UNK A   0      -7.409   9.155  64.611  1.00  0.00    -0.096 OA 
BRANCH  29  30
HETATM   30  C   UNK A   0      -6.779   9.929  63.578  1.00  0.00    -0.124 C  
HETATM   31  C   UNK A   0      -6.237   9.030  62.481  1.00  0.00    -0.094 C  
ENDBRANCH  29  30
ENDBRANCH  27  29
ENDBRANCH  18  27
ENDBRANCH  16  18
ENDBRANCH  14  16
ENDBRANCH   7  14
TORSDOF 9
ENDMDL
MODEL      187
REMARK 921   NORMALIZED FREE ENERGY PREDICTED BY IDOCK:   -4.06 KCAL/MOL
REMARK 922        TOTAL FREE ENERGY PREDICTED BY IDOCK:   -7.83 KCAL/MOL
REMARK 923 INTER-LIGAND FREE ENERGY PREDICTED BY IDOCK:   -7.22 KCAL/MOL
REMARK 924 INTRA-LIGAND FREE ENERGY PREDICTED BY IDOCK:   -0.60 KCAL/MOL
REMARK 927      BINDING AFFINITY PREDICTED BY RF-SCORE:    0.00 PKD
ROOT
HETATM    1  C   UNK A   1     -10.137   4.475  68.151  1.00  0.00    -0.031 C  
HETATM    2  C   UNK A   1      -9.636   4.130  66.735  1.00  0.00    -0.229 C  
HETATM    3  C   UNK A   1      -9.373   5.463  66.046  1.00  0.00    -0.167 C  
HETATM    4  C   UNK A   1     -10.143   6.474  66.877  1.00  0.00    -0.253 C  
HETATM    5  C   UNK A   1      -9.957   5.994  68.314  1.00  0.00    -0.147 C  
HETATM    6  N   UNK A   1      -8.622   6.139  68.915  1.00  0.00    -0.120 N  
HETATM    7  C   UNK A   1      -8.035   7.319  69.372  1.00  0.00    -0.125 C  
HETATM    8  C   UNK A   1      -8.213   4.868  69.580  1.00  0.00    -0.084 C  
HETATM    9  C   UNK A   1      -6.858   4.247  69.184  1.00  0.00    -0.046 C  
HETATM   10  C   UNK A   1      -9.326   3.857  69.277  1.00  0.00    -0.242 C  
HETATM   11  O   UNK A   1      -7.006   7.240  70.054  1.00  0.00    -0.058 OA 
HETATM   12  O   UNK A   1      -6.179   4.953  68.250  1.00  0.00    -0.032 OA 
HETATM   13  O   UNK A   1      -6.441   3.194  69.630  1.00  0.00    -0.031 OA 
ENDROOT
BRANCH   7  14
HETATM   14  C   UNK A   1      -8.607   8.712  68.988  1.00  0.00    -0.129 C  
HETATM   15  C   UNK A   1      -7.818   9.811  69.718  1.00  0.00    -0.159 C  
BRANCH  14  16
HETATM   16  N   UNK A   1     -10.051   8.773  69.324  1.00  0.00    -0.198 NA 
HETATM   17  H   UNK A   1     -10.266   8.156  70.107  1.00  0.00     0.000 HD 
BRANCH  16  18
HETATM   18  C   UNK A   0     -10.543  10.160  69.591  1.00  0.00    -0.257 C  
BRANCH  18  19
HETATM   19  C   UNK A   0     -11.413  10.651  68.433  1.00  0.00    -0.330 C  
BRANCH  19  20
HETATM   20  C   UNK A   0     -10.727  10.616  67.059  1.00  0.00    -0.317 C  
BRANCH  20  21
HETATM   21  C   UNK A   0     -11.205  11.822  66.288  1.00  0.00    -0.370 A  
HETATM   22  C   UNK A   0     -11.139  11.839  64.888  1.00  0.00    -0.345 A  
HETATM   23  C   UNK A   0     -11.883  12.853  66.956  1.00  0.00    -0.437 A  
HETATM   24  C   UNK A   0     -11.785  12.840  64.165  1.00  0.00    -0.465 A  
HETATM   25  C   UNK A   0     -12.525  13.854  66.230  1.00  0.00    -0.454 A  
HETATM   26  C   UNK A   0     -12.491  13.838  64.838  1.00  0.00    -0.420 A  
ENDBRANCH  20  21
ENDBRANCH  19  20
ENDBRANCH  18  19
BRANCH  18  27
HETATM   27  C   UNK A   0     -11.326  10.186  70.918  1.00  0.00    -0.340 C  
HETATM   28  O   UNK A   0     -12.368  10.793  71.119  1.00  0.00    -0.356 OA 
BRANCH  27  29
HETATM   29  O   UNK A   0     -10.674   9.414  71.840  1.00  0.00    -0.280 OA 
BRANCH  29  30
HETATM   30  C   UNK A   0     -11.430   8.338  72.415  1.00  0.00    -0.394 C  
HETATM   31  C   UNK A   0     -10.588   7.550  73.404  1.00  0.00    -0.409 C  
ENDBRANCH  29  30
ENDBRANCH  27  29
ENDBRANCH  18  27
ENDBRANCH  16  18
ENDBRANCH  14  16
ENDBRANCH   7  14
TORSDOF 9
ENDMDL
MODEL      188
REMARK 921   NORMALIZED FREE ENERGY PREDICTED BY IDOCK:   -4.04 KCAL/MOL
REMARK 922        TOTAL FREE ENERGY PREDICTED BY IDOCK:   -7.80 KCAL/MOL
REMARK 923 INTER-LIGAND FREE ENERGY PREDICTED BY IDOCK:   -7.51 KCAL/MOL
REMARK 924 INTRA-LIGAND FREE ENERGY PREDICTED BY IDOCK:   -0.29 KCAL/MOL
REMARK 927      BINDING AFFINITY PREDICTED BY RF-SCORE:    0.00 PKD
ROOT
HETATM    1  C   UNK A   1      -9.701   6.764  69.153  1.00  0.00    -0.147 C  
HETATM    2  C   UNK A   1      -8.475   6.824  70.085  1.00  0.00    -0.139 C  
HETATM    3  C   UNK A   1      -7.964   8.257  70.016  1.00  0.00    -0.104 C  
HETATM    4  C   UNK A   1      -8.587   8.817  68.749  1.00  0.00    -0.137 C  
HETATM    5  C   UNK A   1      -9.988   8.213  68.725  1.00  0.00    -0.189 C  
HETATM    6  N   UNK A   1     -10.959   8.699  69.719  1.00  0.00    -0.377 N  
HETATM    7  C   UNK A   1     -11.628   9.923  69.704  1.00  0.00    -0.039 C  
HETATM    8  C   UNK A   1     -11.646   7.550  70.375  1.00  0.00    -0.149 C  
HETATM    9  C   UNK A   1     -11.630   7.480  71.915  1.00  0.00    -0.275 C  
HETATM   10  C   UNK A   1     -10.980   6.286  69.818  1.00  0.00    -0.444 C  
HETATM   11  O   UNK A   1     -12.574  10.086  70.483  1.00  0.00    -0.244 OA 
HETATM   12  O   UNK A   1     -10.972   8.504  72.508  1.00  0.00    -0.353 OA 
HETATM   13  O   UNK A   1     -12.122   6.570  72.557  1.00  0.00    -0.157 OA 
ENDROOT
BRANCH   7  14
HETATM   14  C   UNK A   1     -11.168  11.089  68.786  1.00  0.00    -0.266 C  
HETATM   15  C   UNK A   1     -11.154  10.617  67.323  1.00  0.00    -0.313 C  
BRANCH  14  16
HETATM   16  N   UNK A   1      -9.829  11.566  69.211  1.00  0.00    -0.403 NA 
HETATM   17  H   UNK A   1      -9.206  10.779  69.391  1.00  0.00     0.000 HD 
BRANCH  16  18
HETATM   18  C   UNK A   0      -9.206  12.526  68.248  1.00  0.00    -0.186 C  
BRANCH  18  19
HETATM   19  C   UNK A   0      -9.551  13.966  68.629  1.00  0.00    -0.142 C  
BRANCH  19  20
HETATM   20  C   UNK A   0     -11.011  14.363  68.367  1.00  0.00    -0.261 C  
BRANCH  20  21
HETATM   21  C   UNK A   0     -11.631  14.704  69.700  1.00  0.00    -0.349 A  
HETATM   22  C   UNK A   0     -12.398  13.754  70.388  1.00  0.00    -0.423 A  
HETATM   23  C   UNK A   0     -11.291  15.906  70.340  1.00  0.00    -0.399 A  
HETATM   24  C   UNK A   0     -12.775  13.978  71.711  1.00  0.00    -0.406 A  
HETATM   25  C   UNK A   0     -11.672  16.128  71.662  1.00  0.00    -0.558 A  
HETATM   26  C   UNK A   0     -12.397  15.159  72.351  1.00  0.00    -0.447 A  
ENDBRANCH  20  21
ENDBRANCH  19  20
ENDBRANCH  18  19
BRANCH  18  27
HETATM   27  C   UNK A   0      -7.679  12.315  68.220  1.00  0.00    -0.143 C  
HETATM   28  O   UNK A   0      -6.951  12.240  69.200  1.00  0.00    -0.098 OA 
BRANCH  27  29
HETATM   29  O   UNK A   0      -7.263  12.216  66.920  1.00  0.00    -0.107 OA 
BRANCH  29  30
HETATM   30  C   UNK A   0      -7.377  10.919  66.315  1.00  0.00    -0.127 C  
HETATM   31  C   UNK A   0      -6.115  10.566  65.546  1.00  0.00    -0.127 C  
ENDBRANCH  29  30
ENDBRANCH  27  29
ENDBRANCH  18  27
ENDBRANCH  16  18
ENDBRANCH  14  16
ENDBRANCH   7  14
TORSDOF 9
ENDMDL
MODEL      189
REMARK 921   NORMALIZED FREE ENERGY PREDICTED BY IDOCK:   -4.03 KCAL/MOL
REMARK 922        TOTAL FREE ENERGY PREDICTED BY IDOCK:   -7.78 KCAL/MOL
REMARK 923 INTER-LIGAND FREE ENERGY PREDICTED BY IDOCK:   -6.94 KCAL/MOL
REMARK 924 INTRA-LIGAND FREE ENERGY PREDICTED BY IDOCK:   -0.84 KCAL/MOL
REMARK 927      BINDING AFFINITY PREDICTED BY RF-SCORE:    0.00 PKD
ROOT
HETATM    1  C   UNK A   1      -8.724   8.373  67.780  1.00  0.00    -0.137 C  
HETATM    2  C   UNK A   1      -7.499   8.384  68.715  1.00  0.00    -0.092 C  
HETATM    3  C   UNK A   1      -7.448   9.778  69.326  1.00  0.00    -0.090 C  
HETATM    4  C   UNK A   1      -8.315  10.622  68.409  1.00  0.00    -0.127 C  
HETATM    5  C   UNK A   1      -9.468   9.696  68.030  1.00  0.00    -0.132 C  
HETATM    6  N   UNK A   1     -10.452   9.368  69.074  1.00  0.00    -0.213 N  
HETATM    7  C   UNK A   1     -11.456  10.201  69.567  1.00  0.00    -0.168 C  
HETATM    8  C   UNK A   1     -10.705   7.899  69.103  1.00  0.00    -0.117 C  
HETATM    9  C   UNK A   1     -10.538   7.161  70.447  1.00  0.00    -0.224 C  
HETATM   10  C   UNK A   1      -9.740   7.284  68.081  1.00  0.00    -0.155 C  
HETATM   11  O   UNK A   1     -12.338   9.704  70.277  1.00  0.00    -0.037 OA 
HETATM   12  O   UNK A   1     -10.170   7.962  71.474  1.00  0.00    -0.186 OA 
HETATM   13  O   UNK A   1     -10.679   5.959  70.581  1.00  0.00    -0.251 OA 
ENDROOT
BRANCH   7  14
HETATM   14  C   UNK A   1     -11.446  11.731  69.298  1.00  0.00    -0.306 C  
HETATM   15  C   UNK A   1     -12.182  12.458  70.436  1.00  0.00    -0.370 C  
BRANCH  14  16
HETATM   16  N   UNK A   1     -12.071  12.015  67.984  1.00  0.00    -0.478 NA 
HETATM   17  H   UNK A   1     -12.870  12.640  68.091  1.00  0.00     0.000 HD 
BRANCH  16  18
HETATM   18  C   UNK A   0     -11.111  12.553  66.971  1.00  0.00    -0.281 C  
BRANCH  18  19
HETATM   19  C   UNK A   0     -11.369  11.923  65.602  1.00  0.00    -0.339 C  
BRANCH  19  20
HETATM   20  C   UNK A   0     -10.507  12.491  64.465  1.00  0.00    -0.366 C  
BRANCH  20  21
HETATM   21  C   UNK A   0      -9.574  11.392  64.015  1.00  0.00    -0.224 A  
HETATM   22  C   UNK A   0      -8.678  10.809  64.921  1.00  0.00    -0.135 A  
HETATM   23  C   UNK A   0      -9.727  10.826  62.741  1.00  0.00    -0.297 A  
HETATM   24  C   UNK A   0      -7.986   9.649  64.579  1.00  0.00    -0.140 A  
HETATM   25  C   UNK A   0      -9.031   9.668  62.401  1.00  0.00    -0.282 A  
HETATM   26  C   UNK A   0      -8.176   9.071  63.324  1.00  0.00    -0.181 A  
ENDBRANCH  20  21
ENDBRANCH  19  20
ENDBRANCH  18  19
BRANCH  18  27
HETATM   27  C   UNK A   0     -11.235  14.088  66.902  1.00  0.00    -0.313 C  
HETATM   28  O   UNK A   0     -12.024  14.769  67.542  1.00  0.00    -0.352 OA 
BRANCH  27  29
HETATM   29  O   UNK A   0     -10.314  14.574  66.014  1.00  0.00    -0.285 OA 
BRANCH  29  30
HETATM   30  C   UNK A   0     -10.467  15.948  65.629  1.00  0.00    -0.392 C  
HETATM   31  C   UNK A   0     -11.451  16.084  64.481  1.00  0.00    -0.274 C  
ENDBRANCH  29  30
ENDBRANCH  27  29
ENDBRANCH  18  27
ENDBRANCH  16  18
ENDBRANCH  14  16
ENDBRANCH   7  14
TORSDOF 9
ENDMDL
MODEL      190
REMARK 921   NORMALIZED FREE ENERGY PREDICTED BY IDOCK:   -4.03 KCAL/MOL
REMARK 922        TOTAL FREE ENERGY PREDICTED BY IDOCK:   -7.78 KCAL/MOL
REMARK 923 INTER-LIGAND FREE ENERGY PREDICTED BY IDOCK:   -6.85 KCAL/MOL
REMARK 924 INTRA-LIGAND FREE ENERGY PREDICTED BY IDOCK:   -0.93 KCAL/MOL
REMARK 927      BINDING AFFINITY PREDICTED BY RF-SCORE:    0.00 PKD
ROOT
HETATM    1  C   UNK A   1      -9.637  15.543  69.501  1.00  0.00    -0.278 C  
HETATM    2  C   UNK A   1     -10.221  16.695  68.661  1.00  0.00    -0.284 C  
HETATM    3  C   UNK A   1     -10.587  16.089  67.312  1.00  0.00    -0.313 C  
HETATM    4  C   UNK A   1      -9.802  14.790  67.259  1.00  0.00    -0.230 C  
HETATM    5  C   UNK A   1      -9.867  14.258  68.688  1.00  0.00    -0.228 C  
HETATM    6  N   UNK A   1     -11.161  13.750  69.170  1.00  0.00    -0.298 N  
HETATM    7  C   UNK A   1     -11.761  12.538  68.830  1.00  0.00    -0.322 C  
HETATM    8  C   UNK A   1     -11.470  14.315  70.515  1.00  0.00    -0.093 C  
HETATM    9  C   UNK A   1     -12.822  15.029  70.708  1.00  0.00    -0.392 C  
HETATM   10  C   UNK A   1     -10.341  15.306  70.826  1.00  0.00     0.198 C  
HETATM   11  O   UNK A   1     -12.735  12.158  69.491  1.00  0.00     0.279 OA 
HETATM   12  O   UNK A   1     -13.594  15.060  69.596  1.00  0.00     1.018 OA 
HETATM   13  O   UNK A   1     -13.164  15.563  71.748  1.00  0.00    -0.424 OA 
ENDROOT
BRANCH   7  14
HETATM   14  C   UNK A   1     -11.275  11.704  67.613  1.00  0.00    -0.281 C  
HETATM   15  C   UNK A   1     -11.958  12.214  66.334  1.00  0.00    -0.201 C  
BRANCH  14  16
HETATM   16  N   UNK A   1     -11.563  10.266  67.841  1.00  0.00    -0.670 NA 
HETATM   17  H   UNK A   1     -12.190   9.906  67.122  1.00  0.00     0.000 HD 
BRANCH  16  18
HETATM   18  C   UNK A   0     -10.333   9.422  67.943  1.00  0.00    -0.225 C  
BRANCH  18  19
HETATM   19  C   UNK A   0     -10.163   8.893  69.367  1.00  0.00    -0.210 C  
BRANCH  19  20
HETATM   20  C   UNK A   0     -10.740   9.806  70.460  1.00  0.00    -0.381 C  
BRANCH  20  21
HETATM   21  C   UNK A   0     -11.889   9.067  71.102  1.00  0.00    -0.362 A  
HETATM   22  C   UNK A   0     -12.921   9.774  71.734  1.00  0.00    -0.536 A  
HETATM   23  C   UNK A   0     -12.021   7.683  70.912  1.00  0.00    -0.252 A  
HETATM   24  C   UNK A   0     -14.089   9.119  72.121  1.00  0.00    -0.416 A  
HETATM   25  C   UNK A   0     -13.189   7.031  71.303  1.00  0.00    -0.304 A  
HETATM   26  C   UNK A   0     -14.227   7.751  71.890  1.00  0.00    -0.502 A  
ENDBRANCH  20  21
ENDBRANCH  19  20
ENDBRANCH  18  19
BRANCH  18  27
HETATM   27  C   UNK A   0     -10.416   8.261  66.931  1.00  0.00    -0.295 C  
HETATM   28  O   UNK A   0     -11.211   7.333  66.974  1.00  0.00    -0.221 OA 
BRANCH  27  29
HETATM   29  O   UNK A   0      -9.460   8.435  65.968  1.00  0.00    -0.209 OA 
BRANCH  29  30
HETATM   30  C   UNK A   0      -9.569   9.627  65.174  1.00  0.00    -0.254 C  
HETATM   31  C   UNK A   0      -8.266   9.921  64.453  1.00  0.00    -0.164 C  
ENDBRANCH  29  30
ENDBRANCH  27  29
ENDBRANCH  18  27
ENDBRANCH  16  18
ENDBRANCH  14  16
ENDBRANCH   7  14
TORSDOF 9
ENDMDL
MODEL      191
REMARK 921   NORMALIZED FREE ENERGY PREDICTED BY IDOCK:   -4.01 KCAL/MOL
REMARK 922        TOTAL FREE ENERGY PREDICTED BY IDOCK:   -7.76 KCAL/MOL
REMARK 923 INTER-LIGAND FREE ENERGY PREDICTED BY IDOCK:   -7.18 KCAL/MOL
REMARK 924 INTRA-LIGAND FREE ENERGY PREDICTED BY IDOCK:   -0.57 KCAL/MOL
REMARK 927      BINDING AFFINITY PREDICTED BY RF-SCORE:    0.00 PKD
ROOT
HETATM    1  C   UNK A   1      -5.822   8.483  65.901  1.00  0.00    -0.047 C  
HETATM    2  C   UNK A   1      -5.193   9.429  66.942  1.00  0.00    -0.035 C  
HETATM    3  C   UNK A   1      -5.859  10.783  66.738  1.00  0.00    -0.075 C  
HETATM    4  C   UNK A   1      -6.467  10.696  65.349  1.00  0.00    -0.034 C  
HETATM    5  C   UNK A   1      -6.981   9.262  65.256  1.00  0.00    -0.089 C  
HETATM    6  N   UNK A   1      -8.155   8.903  66.067  1.00  0.00    -0.109 N  
HETATM    7  C   UNK A   1      -9.481   9.256  65.818  1.00  0.00    -0.262 C  
HETATM    8  C   UNK A   1      -7.911   7.624  66.793  1.00  0.00    -0.107 C  
HETATM    9  C   UNK A   1      -8.111   7.609  68.322  1.00  0.00    -0.124 C  
HETATM   10  C   UNK A   1      -6.460   7.234  66.483  1.00  0.00    -0.052 C  
HETATM   11  O   UNK A   1     -10.372   8.690  66.463  1.00  0.00    -0.282 OA 
HETATM   12  O   UNK A   1      -8.499   8.799  68.840  1.00  0.00    -0.128 OA 
HETATM   13  O   UNK A   1      -7.902   6.635  69.022  1.00  0.00    -0.107 OA 
ENDROOT
BRANCH   7  14
HETATM   14  C   UNK A   1      -9.847  10.377  64.807  1.00  0.00    -0.340 C  
HETATM   15  C   UNK A   1      -9.355   9.986  63.404  1.00  0.00    -0.300 C  
BRANCH  14  16
HETATM   16  N   UNK A   1      -9.255  11.664  65.247  1.00  0.00    -0.408 NA 
HETATM   17  H   UNK A   1      -9.398  12.387  64.542  1.00  0.00     0.000 HD 
BRANCH  16  18
HETATM   18  C   UNK A   0      -9.749  12.122  66.583  1.00  0.00    -0.219 C  
BRANCH  18  19
HETATM   19  C   UNK A   0      -9.130  13.471  66.949  1.00  0.00    -0.246 C  
BRANCH  19  20
HETATM   20  C   UNK A   0      -9.792  14.175  68.142  1.00  0.00    -0.229 C  
BRANCH  20  21
HETATM   21  C   UNK A   0      -9.798  15.655  67.845  1.00  0.00    -0.217 A  
HETATM   22  C   UNK A   0      -9.637  16.113  66.530  1.00  0.00    -0.285 A  
HETATM   23  C   UNK A   0     -10.146  16.567  68.852  1.00  0.00    -0.266 A  
HETATM   24  C   UNK A   0      -9.871  17.451  66.218  1.00  0.00    -0.291 A  
HETATM   25  C   UNK A   0     -10.376  17.904  68.537  1.00  0.00    -0.365 A  
HETATM   26  C   UNK A   0     -10.257  18.341  67.220  1.00  0.00    -0.387 A  
ENDBRANCH  20  21
ENDBRANCH  19  20
ENDBRANCH  18  19
BRANCH  18  27
HETATM   27  C   UNK A   0     -11.288  12.210  66.564  1.00  0.00    -0.350 C  
HETATM   28  O   UNK A   0     -12.035  11.816  67.448  1.00  0.00    -0.617 OA 
BRANCH  27  29
HETATM   29  O   UNK A   0     -11.690  12.809  65.402  1.00  0.00    -0.346 OA 
BRANCH  29  30
HETATM   30  C   UNK A   0     -12.567  13.937  65.539  1.00  0.00    -0.526 C  
HETATM   31  C   UNK A   0     -12.259  14.995  64.494  1.00  0.00    -0.344 C  
ENDBRANCH  29  30
ENDBRANCH  27  29
ENDBRANCH  18  27
ENDBRANCH  16  18
ENDBRANCH  14  16
ENDBRANCH   7  14
TORSDOF 9
ENDMDL
MODEL      192
REMARK 921   NORMALIZED FREE ENERGY PREDICTED BY IDOCK:   -4.01 KCAL/MOL
REMARK 922        TOTAL FREE ENERGY PREDICTED BY IDOCK:   -7.75 KCAL/MOL
REMARK 923 INTER-LIGAND FREE ENERGY PREDICTED BY IDOCK:   -6.15 KCAL/MOL
REMARK 924 INTRA-LIGAND FREE ENERGY PREDICTED BY IDOCK:   -1.61 KCAL/MOL
REMARK 927      BINDING AFFINITY PREDICTED BY RF-SCORE:    0.00 PKD
ROOT
HETATM    1  C   UNK A   1      -9.156  11.304  68.208  1.00  0.00    -0.173 C  
HETATM    2  C   UNK A   1      -8.380  12.634  68.281  1.00  0.00    -0.165 C  
HETATM    3  C   UNK A   1      -7.298  12.549  67.212  1.00  0.00    -0.113 C  
HETATM    4  C   UNK A   1      -7.191  11.066  66.904  1.00  0.00    -0.133 C  
HETATM    5  C   UNK A   1      -8.632  10.568  66.964  1.00  0.00    -0.127 C  
HETATM    6  N   UNK A   1      -9.544  10.983  65.886  1.00  0.00    -0.208 N  
HETATM    7  C   UNK A   1      -9.568  10.496  64.579  1.00  0.00    -0.302 C  
HETATM    8  C   UNK A   1     -10.829  11.477  66.457  1.00  0.00    -0.288 C  
HETATM    9  C   UNK A   1     -11.318  12.877  66.036  1.00  0.00    -0.317 C  
HETATM   10  C   UNK A   1     -10.650  11.455  67.980  1.00  0.00    -0.224 C  
HETATM   11  O   UNK A   1     -10.535  10.781  63.862  1.00  0.00    -0.338 OA 
HETATM   12  O   UNK A   1     -10.495  13.512  65.169  1.00  0.00    -0.327 OA 
HETATM   13  O   UNK A   1     -12.330  13.399  66.468  1.00  0.00    -0.376 OA 
ENDROOT
BRANCH   7  14
HETATM   14  C   UNK A   1      -8.386   9.671  63.998  1.00  0.00    -0.171 C  
HETATM   15  C   UNK A   1      -7.991  10.236  62.624  1.00  0.00    -0.162 C  
BRANCH  14  16
HETATM   16  N   UNK A   1      -8.770   8.241  63.902  1.00  0.00    -0.378 NA 
HETATM   17  H   UNK A   1      -8.650   7.898  62.949  1.00  0.00     0.000 HD 
BRANCH  16  18
HETATM   18  C   UNK A   0      -8.047   7.365  64.875  1.00  0.00    -0.114 C  
BRANCH  18  19
HETATM   19  C   UNK A   0      -8.893   7.148  66.130  1.00  0.00    -0.171 C  
BRANCH  19  20
HETATM   20  C   UNK A   0      -8.083   6.934  67.417  1.00  0.00    -0.115 C  
BRANCH  20  21
HETATM   21  C   UNK A   0      -9.070   6.727  68.541  1.00  0.00    -0.129 A  
HETATM   22  C   UNK A   0     -10.448   6.752  68.286  1.00  0.00    -0.243 A  
HETATM   23  C   UNK A   0      -8.613   6.329  69.806  1.00  0.00    -0.137 A  
HETATM   24  C   UNK A   0     -11.352   6.335  69.262  1.00  0.00    -0.411 A  
HETATM   25  C   UNK A   0      -9.519   5.916  70.780  1.00  0.00    -0.192 A  
HETATM   26  C   UNK A   0     -10.884   5.902  70.503  1.00  0.00    -0.366 A  
ENDBRANCH  20  21
ENDBRANCH  19  20
ENDBRANCH  18  19
BRANCH  18  27
HETATM   27  C   UNK A   0      -7.702   6.020  64.205  1.00  0.00    -0.105 C  
HETATM   28  O   UNK A   0      -6.584   5.660  63.864  1.00  0.00    -0.035 OA 
BRANCH  27  29
HETATM   29  O   UNK A   0      -8.846   5.284  64.058  1.00  0.00    -0.069 OA 
BRANCH  29  30
HETATM   30  C   UNK A   0      -8.756   3.894  64.408  1.00  0.00    -0.120 C  
HETATM   31  C   UNK A   0      -9.804   3.080  63.671  1.00  0.00    -0.138 C  
ENDBRANCH  29  30
ENDBRANCH  27  29
ENDBRANCH  18  27
ENDBRANCH  16  18
ENDBRANCH  14  16
ENDBRANCH   7  14
TORSDOF 9
ENDMDL
MODEL      193
REMARK 921   NORMALIZED FREE ENERGY PREDICTED BY IDOCK:   -4.00 KCAL/MOL
REMARK 922        TOTAL FREE ENERGY PREDICTED BY IDOCK:   -7.73 KCAL/MOL
REMARK 923 INTER-LIGAND FREE ENERGY PREDICTED BY IDOCK:   -5.90 KCAL/MOL
REMARK 924 INTRA-LIGAND FREE ENERGY PREDICTED BY IDOCK:   -1.83 KCAL/MOL
REMARK 927      BINDING AFFINITY PREDICTED BY RF-SCORE:    0.00 PKD
ROOT
HETATM    1  C   UNK A   1      -9.160   7.305  66.496  1.00  0.00    -0.186 C  
HETATM    2  C   UNK A   1      -9.878   8.639  66.214  1.00  0.00    -0.320 C  
HETATM    3  C   UNK A   1     -10.366   9.148  67.565  1.00  0.00    -0.324 C  
HETATM    4  C   UNK A   1     -10.333   7.923  68.462  1.00  0.00    -0.229 C  
HETATM    5  C   UNK A   1      -9.074   7.177  68.027  1.00  0.00    -0.132 C  
HETATM    6  N   UNK A   1      -7.773   7.775  68.368  1.00  0.00    -0.116 N  
HETATM    7  C   UNK A   1      -7.168   7.796  69.625  1.00  0.00    -0.075 C  
HETATM    8  C   UNK A   1      -6.878   7.780  67.176  1.00  0.00    -0.069 C  
HETATM    9  C   UNK A   1      -6.244   9.120  66.753  1.00  0.00    -0.065 C  
HETATM   10  C   UNK A   1      -7.722   7.245  66.012  1.00  0.00    -0.095 C  
HETATM   11  O   UNK A   1      -5.981   8.134  69.701  1.00  0.00    -0.029 OA 
HETATM   12  O   UNK A   1      -6.587  10.167  67.540  1.00  0.00    -0.066 OA 
HETATM   13  O   UNK A   1      -5.531   9.252  65.775  1.00  0.00    -0.040 OA 
ENDROOT
BRANCH   7  14
HETATM   14  C   UNK A   1      -7.968   7.472  70.917  1.00  0.00    -0.096 C  
HETATM   15  C   UNK A   1      -7.329   8.197  72.113  1.00  0.00    -0.117 C  
BRANCH  14  16
HETATM   16  N   UNK A   1      -8.003   6.005  71.132  1.00  0.00    -0.114 NA 
HETATM   17  H   UNK A   1      -7.096   5.665  71.449  1.00  0.00     0.000 HD 
BRANCH  16  18
HETATM   18  C   UNK A   0      -9.089   5.566  72.063  1.00  0.00    -0.141 C  
BRANCH  18  19
HETATM   19  C   UNK A   0     -10.411   6.241  71.699  1.00  0.00    -0.258 C  
BRANCH  19  20
HETATM   20  C   UNK A   0     -11.086   6.991  72.857  1.00  0.00    -0.314 C  
BRANCH  20  21
HETATM   21  C   UNK A   0     -11.699   8.245  72.284  1.00  0.00    -0.453 A  
HETATM   22  C   UNK A   0     -10.896   9.193  71.635  1.00  0.00    -0.442 A  
HETATM   23  C   UNK A   0     -13.094   8.381  72.238  1.00  0.00    -0.316 A  
HETATM   24  C   UNK A   0     -11.478  10.229  70.907  1.00  0.00    -0.425 A  
HETATM   25  C   UNK A   0     -13.673   9.420  71.512  1.00  0.00    -0.363 A  
HETATM   26  C   UNK A   0     -12.868  10.331  70.834  1.00  0.00    -0.463 A  
ENDBRANCH  20  21
ENDBRANCH  19  20
ENDBRANCH  18  19
BRANCH  18  27
HETATM   27  C   UNK A   0      -9.223   4.031  72.016  1.00  0.00    -0.124 C  
HETATM   28  O   UNK A   0      -8.740   3.248  72.822  1.00  0.00    -0.083 OA 
BRANCH  27  29
HETATM   29  O   UNK A   0      -9.978   3.679  70.931  1.00  0.00    -0.149 OA 
BRANCH  29  30
HETATM   30  C   UNK A   0      -9.284   3.011  69.865  1.00  0.00    -0.154 C  
HETATM   31  C   UNK A   0      -9.472   1.507  69.954  1.00  0.00    -0.138 C  
ENDBRANCH  29  30
ENDBRANCH  27  29
ENDBRANCH  18  27
ENDBRANCH  16  18
ENDBRANCH  14  16
ENDBRANCH   7  14
TORSDOF 9
ENDMDL
MODEL      194
REMARK 921   NORMALIZED FREE ENERGY PREDICTED BY IDOCK:   -3.99 KCAL/MOL
REMARK 922        TOTAL FREE ENERGY PREDICTED BY IDOCK:   -7.72 KCAL/MOL
REMARK 923 INTER-LIGAND FREE ENERGY PREDICTED BY IDOCK:   -6.77 KCAL/MOL
REMARK 924 INTRA-LIGAND FREE ENERGY PREDICTED BY IDOCK:   -0.95 KCAL/MOL
REMARK 927      BINDING AFFINITY PREDICTED BY RF-SCORE:    0.00 PKD
ROOT
HETATM    1  C   UNK A   1      -8.302   7.106  66.665  1.00  0.00    -0.114 C  
HETATM    2  C   UNK A   1      -6.925   7.361  66.022  1.00  0.00    -0.061 C  
HETATM    3  C   UNK A   1      -7.049   8.680  65.270  1.00  0.00    -0.082 C  
HETATM    4  C   UNK A   1      -8.546   8.886  65.118  1.00  0.00    -0.208 C  
HETATM    5  C   UNK A   1      -9.127   8.385  66.438  1.00  0.00    -0.187 C  
HETATM    6  N   UNK A   1      -8.882   9.192  67.643  1.00  0.00    -0.120 N  
HETATM    7  C   UNK A   1      -9.500  10.397  67.980  1.00  0.00    -0.143 C  
HETATM    8  C   UNK A   1      -8.416   8.325  68.762  1.00  0.00    -0.125 C  
HETATM    9  C   UNK A   1      -7.100   8.702  69.471  1.00  0.00    -0.055 C  
HETATM   10  C   UNK A   1      -8.271   6.916  68.172  1.00  0.00    -0.119 C  
HETATM   11  O   UNK A   1      -9.352  10.834  69.128  1.00  0.00    -0.190 OA 
HETATM   12  O   UNK A   1      -6.505   9.813  68.977  1.00  0.00    -0.044 OA 
HETATM   13  O   UNK A   1      -6.603   8.046  70.369  1.00  0.00    -0.037 OA 
ENDROOT
BRANCH   7  14
HETATM   14  C   UNK A   1     -10.302  11.219  66.934  1.00  0.00    -0.234 C  
HETATM   15  C   UNK A   1      -9.406  12.323  66.349  1.00  0.00    -0.219 C  
BRANCH  14  16
HETATM   16  N   UNK A   1     -11.517  11.789  67.566  1.00  0.00    -0.404 NA 
HETATM   17  H   UNK A   1     -11.884  11.157  68.277  1.00  0.00     0.000 HD 
BRANCH  16  18
HETATM   18  C   UNK A   0     -11.307  13.158  68.131  1.00  0.00    -0.292 C  
BRANCH  18  19
HETATM   19  C   UNK A   0     -12.032  14.203  67.282  1.00  0.00    -0.449 C  
BRANCH  19  20
HETATM   20  C   UNK A   0     -11.153  14.889  66.226  1.00  0.00    -0.340 C  
BRANCH  20  21
HETATM   21  C   UNK A   0     -10.428  16.023  66.911  1.00  0.00    -0.306 A  
HETATM   22  C   UNK A   0     -11.096  16.830  67.841  1.00  0.00    -0.178 A  
HETATM   23  C   UNK A   0      -9.040  16.157  66.756  1.00  0.00    -0.257 A  
HETATM   24  C   UNK A   0     -10.382  17.720  68.642  1.00  0.00    -0.351 A  
HETATM   25  C   UNK A   0      -8.330  17.050  67.556  1.00  0.00    -0.199 A  
HETATM   26  C   UNK A   0      -8.996  17.817  68.509  1.00  0.00    -0.288 A  
ENDBRANCH  20  21
ENDBRANCH  19  20
ENDBRANCH  18  19
BRANCH  18  27
HETATM   27  C   UNK A   0     -11.799  13.198  69.591  1.00  0.00    -0.324 C  
HETATM   28  O   UNK A   0     -11.977  12.225  70.310  1.00  0.00    -0.344 OA 
BRANCH  27  29
HETATM   29  O   UNK A   0     -12.000  14.500  69.962  1.00  0.00    -0.291 OA 
BRANCH  29  30
HETATM   30  C   UNK A   0     -11.467  14.884  71.239  1.00  0.00    -0.271 C  
HETATM   31  C   UNK A   0     -12.407  15.838  71.955  1.00  0.00    -0.533 C  
ENDBRANCH  29  30
ENDBRANCH  27  29
ENDBRANCH  18  27
ENDBRANCH  16  18
ENDBRANCH  14  16
ENDBRANCH   7  14
TORSDOF 9
ENDMDL
MODEL      195
REMARK 921   NORMALIZED FREE ENERGY PREDICTED BY IDOCK:   -3.94 KCAL/MOL
REMARK 922        TOTAL FREE ENERGY PREDICTED BY IDOCK:   -7.64 KCAL/MOL
REMARK 923 INTER-LIGAND FREE ENERGY PREDICTED BY IDOCK:   -6.70 KCAL/MOL
REMARK 924 INTRA-LIGAND FREE ENERGY PREDICTED BY IDOCK:   -0.95 KCAL/MOL
REMARK 927      BINDING AFFINITY PREDICTED BY RF-SCORE:    0.00 PKD
ROOT
HETATM    1  C   UNK A   1     -12.280  13.631  64.499  1.00  0.00    -0.444 C  
HETATM    2  C   UNK A   1     -11.152  14.674  64.378  1.00  0.00    -0.153 C  
HETATM    3  C   UNK A   1     -10.566  14.824  65.775  1.00  0.00    -0.338 C  
HETATM    4  C   UNK A   1     -11.631  14.250  66.693  1.00  0.00    -0.397 C  
HETATM    5  C   UNK A   1     -12.182  13.054  65.922  1.00  0.00    -0.432 C  
HETATM    6  N   UNK A   1     -11.314  11.876  65.777  1.00  0.00    -0.324 N  
HETATM    7  C   UNK A   1     -11.012  10.935  66.761  1.00  0.00    -0.185 C  
HETATM    8  C   UNK A   1     -11.303  11.412  64.360  1.00  0.00    -0.141 C  
HETATM    9  C   UNK A   1      -9.938  11.247  63.662  1.00  0.00    -0.359 C  
HETATM   10  C   UNK A   1     -12.136  12.433  63.576  1.00  0.00    -0.651 C  
HETATM   11  O   UNK A   1     -10.453   9.885  66.422  1.00  0.00    -0.205 OA 
HETATM   12  O   UNK A   1      -8.877  11.553  64.446  1.00  0.00     0.181 OA 
HETATM   13  O   UNK A   1      -9.808  10.915  62.498  1.00  0.00    -0.186 OA 
ENDROOT
BRANCH   7  14
HETATM   14  C   UNK A   1     -11.301  11.209  68.263  1.00  0.00    -0.297 C  
HETATM   15  C   UNK A   1     -10.156  12.040  68.865  1.00  0.00    -0.033 C  
BRANCH  14  16
HETATM   16  N   UNK A   1     -11.472   9.925  68.986  1.00  0.00    -0.475 NA 
HETATM   17  H   UNK A   1     -12.136   9.323  68.499  1.00  0.00     0.000 HD 
BRANCH  16  18
HETATM   18  C   UNK A   0     -10.185   9.205  69.232  1.00  0.00    -0.210 C  
BRANCH  18  19
HETATM   19  C   UNK A   0      -9.726   9.409  70.676  1.00  0.00    -0.336 C  
BRANCH  19  20
HETATM   20  C   UNK A   0      -8.392   8.732  71.024  1.00  0.00    -0.208 C  
BRANCH  20  21
HETATM   21  C   UNK A   0      -7.331   9.350  70.147  1.00  0.00    -0.110 A  
HETATM   22  C   UNK A   0      -6.798   8.632  69.068  1.00  0.00    -0.056 A  
HETATM   23  C   UNK A   0      -7.007  10.707  70.296  1.00  0.00     0.027 A  
HETATM   24  C   UNK A   0      -5.997   9.272  68.123  1.00  0.00    -0.041 A  
HETATM   25  C   UNK A   0      -6.203  11.343  69.352  1.00  0.00    -0.091 A  
HETATM   26  C   UNK A   0      -5.714  10.632  68.259  1.00  0.00    -0.043 A  
ENDBRANCH  20  21
ENDBRANCH  19  20
ENDBRANCH  18  19
BRANCH  18  27
HETATM   27  C   UNK A   0     -10.361   7.706  68.918  1.00  0.00    -0.212 C  
HETATM   28  O   UNK A   0      -9.851   7.109  67.980  1.00  0.00    -0.133 OA 
BRANCH  27  29
HETATM   29  O   UNK A   0     -11.174   7.141  69.863  1.00  0.00    -0.260 OA 
BRANCH  29  30
HETATM   30  C   UNK A   0     -11.033   5.725  70.057  1.00  0.00    -0.311 C  
HETATM   31  C   UNK A   0     -10.142   5.427  71.250  1.00  0.00    -0.270 C  
ENDBRANCH  29  30
ENDBRANCH  27  29
ENDBRANCH  18  27
ENDBRANCH  16  18
ENDBRANCH  14  16
ENDBRANCH   7  14
TORSDOF 9
ENDMDL
MODEL      196
REMARK 921   NORMALIZED FREE ENERGY PREDICTED BY IDOCK:   -3.92 KCAL/MOL
REMARK 922        TOTAL FREE ENERGY PREDICTED BY IDOCK:   -7.61 KCAL/MOL
REMARK 923 INTER-LIGAND FREE ENERGY PREDICTED BY IDOCK:   -6.43 KCAL/MOL
REMARK 924 INTRA-LIGAND FREE ENERGY PREDICTED BY IDOCK:   -1.18 KCAL/MOL
REMARK 927      BINDING AFFINITY PREDICTED BY RF-SCORE:    0.00 PKD
ROOT
HETATM    1  C   UNK A   1      -7.909   6.587  72.424  1.00  0.00    -0.101 C  
HETATM    2  C   UNK A   1      -8.993   6.042  73.374  1.00  0.00    -0.129 C  
HETATM    3  C   UNK A   1     -10.029   7.151  73.510  1.00  0.00    -0.344 C  
HETATM    4  C   UNK A   1      -9.305   8.401  73.041  1.00  0.00    -0.249 C  
HETATM    5  C   UNK A   1      -8.447   7.919  71.874  1.00  0.00    -0.122 C  
HETATM    6  N   UNK A   1      -9.136   7.546  70.629  1.00  0.00    -0.155 N  
HETATM    7  C   UNK A   1      -9.693   8.415  69.690  1.00  0.00    -0.173 C  
HETATM    8  C   UNK A   1      -8.634   6.233  70.134  1.00  0.00    -0.134 C  
HETATM    9  C   UNK A   1      -9.666   5.124  69.847  1.00  0.00    -0.199 C  
HETATM   10  C   UNK A   1      -7.651   5.728  71.198  1.00  0.00    -0.099 C  
HETATM   11  O   UNK A   1     -10.033   7.957  68.593  1.00  0.00    -0.179 OA 
HETATM   12  O   UNK A   1     -10.948   5.487  70.088  1.00  0.00    -0.286 OA 
HETATM   13  O   UNK A   1      -9.369   4.001  69.480  1.00  0.00    -0.139 OA 
ENDROOT
BRANCH   7  14
HETATM   14  C   UNK A   1      -9.950   9.911  70.021  1.00  0.00    -0.254 C  
HETATM   15  C   UNK A   1     -11.449  10.221  69.870  1.00  0.00    -0.340 C  
BRANCH  14  16
HETATM   16  N   UNK A   1      -9.130  10.771  69.133  1.00  0.00    -0.335 NA 
HETATM   17  H   UNK A   1      -8.262  10.301  68.877  1.00  0.00     0.000 HD 
BRANCH  16  18
HETATM   18  C   UNK A   0      -9.861  11.235  67.913  1.00  0.00    -0.176 C  
BRANCH  18  19
HETATM   19  C   UNK A   0      -9.759  12.754  67.775  1.00  0.00    -0.207 C  
BRANCH  19  20
HETATM   20  C   UNK A   0     -10.851  13.391  66.902  1.00  0.00    -0.282 C  
BRANCH  20  21
HETATM   21  C   UNK A   0     -10.580  14.876  66.855  1.00  0.00    -0.300 A  
HETATM   22  C   UNK A   0     -10.448  15.533  65.625  1.00  0.00    -0.393 A  
HETATM   23  C   UNK A   0     -10.642  15.633  68.035  1.00  0.00    -0.271 A  
HETATM   24  C   UNK A   0     -10.431  16.925  65.568  1.00  0.00    -0.220 A  
HETATM   25  C   UNK A   0     -10.621  17.025  67.975  1.00  0.00    -0.373 A  
HETATM   26  C   UNK A   0     -10.534  17.669  66.744  1.00  0.00    -0.289 A  
ENDBRANCH  20  21
ENDBRANCH  19  20
ENDBRANCH  18  19
BRANCH  18  27
HETATM   27  C   UNK A   0      -9.291  10.530  66.667  1.00  0.00    -0.161 C  
HETATM   28  O   UNK A   0      -9.937  10.169  65.693  1.00  0.00    -0.257 OA 
BRANCH  27  29
HETATM   29  O   UNK A   0      -7.940  10.376  66.816  1.00  0.00    -0.112 OA 
BRANCH  29  30
HETATM   30  C   UNK A   0      -7.380   9.154  66.309  1.00  0.00    -0.092 C  
HETATM   31  C   UNK A   0      -5.879   9.109  66.535  1.00  0.00    -0.058 C  
ENDBRANCH  29  30
ENDBRANCH  27  29
ENDBRANCH  18  27
ENDBRANCH  16  18
ENDBRANCH  14  16
ENDBRANCH   7  14
TORSDOF 9
ENDMDL
MODEL      197
REMARK 921   NORMALIZED FREE ENERGY PREDICTED BY IDOCK:   -3.89 KCAL/MOL
REMARK 922        TOTAL FREE ENERGY PREDICTED BY IDOCK:   -7.57 KCAL/MOL
REMARK 923 INTER-LIGAND FREE ENERGY PREDICTED BY IDOCK:   -7.03 KCAL/MOL
REMARK 924 INTRA-LIGAND FREE ENERGY PREDICTED BY IDOCK:   -0.53 KCAL/MOL
REMARK 927      BINDING AFFINITY PREDICTED BY RF-SCORE:    0.00 PKD
ROOT
HETATM    1  C   UNK A   1     -11.943  14.381  66.867  1.00  0.00    -0.425 C  
HETATM    2  C   UNK A   1     -10.610  15.122  66.648  1.00  0.00    -0.304 C  
HETATM    3  C   UNK A   1      -9.616  14.497  67.619  1.00  0.00    -0.214 C  
HETATM    4  C   UNK A   1     -10.486  13.786  68.640  1.00  0.00    -0.245 C  
HETATM    5  C   UNK A   1     -11.634  13.209  67.816  1.00  0.00    -0.337 C  
HETATM    6  N   UNK A   1     -11.331  12.085  66.916  1.00  0.00    -0.326 N  
HETATM    7  C   UNK A   1     -11.103  10.759  67.285  1.00  0.00    -0.270 C  
HETATM    8  C   UNK A   1     -11.914  12.330  65.567  1.00  0.00    -0.321 C  
HETATM    9  C   UNK A   1     -10.977  12.242  64.346  1.00  0.00    -0.329 C  
HETATM   10  C   UNK A   1     -12.523  13.737  65.619  1.00  0.00    -0.541 C  
HETATM   11  O   UNK A   1     -11.087   9.896  66.399  1.00  0.00     0.183 OA 
HETATM   12  O   UNK A   1      -9.693  11.942  64.655  1.00  0.00    -0.212 OA 
HETATM   13  O   UNK A   1     -11.333  12.462  63.202  1.00  0.00    -0.386 OA 
ENDROOT
BRANCH   7  14
HETATM   14  C   UNK A   1     -10.808  10.365  68.759  1.00  0.00    -0.232 C  
HETATM   15  C   UNK A   1     -11.868  10.991  69.681  1.00  0.00    -0.414 C  
BRANCH  14  16
HETATM   16  N   UNK A   1      -9.441  10.803  69.133  1.00  0.00    -0.342 NA 
HETATM   17  H   UNK A   1      -9.470  11.424  69.942  1.00  0.00     0.000 HD 
BRANCH  16  18
HETATM   18  C   UNK A   0      -8.497   9.668  69.370  1.00  0.00    -0.156 C  
BRANCH  18  19
HETATM   19  C   UNK A   0      -8.090   9.024  68.044  1.00  0.00    -0.105 C  
BRANCH  19  20
HETATM   20  C   UNK A   0      -7.560   7.588  68.167  1.00  0.00    -0.114 C  
BRANCH  20  21
HETATM   21  C   UNK A   0      -8.501   6.694  67.398  1.00  0.00    -0.120 A  
HETATM   22  C   UNK A   0      -8.002   5.628  66.637  1.00  0.00    -0.101 A  
HETATM   23  C   UNK A   0      -9.886   6.813  67.587  1.00  0.00    -0.155 A  
HETATM   24  C   UNK A   0      -8.868   4.667  66.118  1.00  0.00    -0.118 A  
HETATM   25  C   UNK A   0     -10.750   5.852  67.064  1.00  0.00    -0.396 A  
HETATM   26  C   UNK A   0     -10.240   4.773  66.347  1.00  0.00    -0.308 A  
ENDBRANCH  20  21
ENDBRANCH  19  20
ENDBRANCH  18  19
BRANCH  18  27
HETATM   27  C   UNK A   0      -7.260  10.174  70.138  1.00  0.00    -0.154 C  
HETATM   28  O   UNK A   0      -6.994   9.924  71.306  1.00  0.00    -0.318 OA 
BRANCH  27  29
HETATM   29  O   UNK A   0      -6.497  10.944  69.304  1.00  0.00    -0.055 OA 
BRANCH  29  30
HETATM   30  C   UNK A   0      -5.895  12.109  69.889  1.00  0.00    -0.140 C  
HETATM   31  C   UNK A   0      -6.594  13.374  69.424  1.00  0.00    -0.075 C  
ENDBRANCH  29  30
ENDBRANCH  27  29
ENDBRANCH  18  27
ENDBRANCH  16  18
ENDBRANCH  14  16
ENDBRANCH   7  14
TORSDOF 9
ENDMDL
MODEL      198
REMARK 921   NORMALIZED FREE ENERGY PREDICTED BY IDOCK:   -3.88 KCAL/MOL
REMARK 922        TOTAL FREE ENERGY PREDICTED BY IDOCK:   -7.55 KCAL/MOL
REMARK 923 INTER-LIGAND FREE ENERGY PREDICTED BY IDOCK:   -5.47 KCAL/MOL
REMARK 924 INTRA-LIGAND FREE ENERGY PREDICTED BY IDOCK:   -2.07 KCAL/MOL
REMARK 927      BINDING AFFINITY PREDICTED BY RF-SCORE:    0.00 PKD
ROOT
HETATM    1  C   UNK A   1     -11.574   5.956  72.029  1.00  0.00    -0.289 C  
HETATM    2  C   UNK A   1     -10.654   6.336  73.207  1.00  0.00    -0.284 C  
HETATM    3  C   UNK A   1      -9.242   6.389  72.638  1.00  0.00    -0.138 C  
HETATM    4  C   UNK A   1      -9.333   5.613  71.335  1.00  0.00    -0.169 C  
HETATM    5  C   UNK A   1     -10.696   5.998  70.767  1.00  0.00    -0.276 C  
HETATM    6  N   UNK A   1     -10.861   7.368  70.256  1.00  0.00    -0.242 N  
HETATM    7  C   UNK A   1     -10.363   7.878  69.057  1.00  0.00    -0.214 C  
HETATM    8  C   UNK A   1     -12.116   7.971  70.788  1.00  0.00    -0.076 C  
HETATM    9  C   UNK A   1     -12.019   9.332  71.506  1.00  0.00    -0.368 C  
HETATM   10  C   UNK A   1     -12.700   6.940  71.763  1.00  0.00    -0.369 C  
HETATM   11  O   UNK A   1     -10.778   8.976  68.666  1.00  0.00    -0.188 OA 
HETATM   12  O   UNK A   1     -10.763   9.834  71.570  1.00  0.00    -0.218 OA 
HETATM   13  O   UNK A   1     -12.969   9.898  72.015  1.00  0.00    -0.413 OA 
ENDROOT
BRANCH   7  14
HETATM   14  C   UNK A   1      -9.265   7.131  68.251  1.00  0.00    -0.132 C  
HETATM   15  C   UNK A   1      -7.880   7.497  68.808  1.00  0.00    -0.121 C  
BRANCH  14  16
HETATM   16  N   UNK A   1      -9.375   7.475  66.812  1.00  0.00    -0.157 NA 
HETATM   17  H   UNK A   1      -9.485   8.481  66.689  1.00  0.00     0.000 HD 
BRANCH  16  18
HETATM   18  C   UNK A   0      -8.237   6.962  65.988  1.00  0.00    -0.125 C  
BRANCH  18  19
HETATM   19  C   UNK A   0      -8.660   5.717  65.208  1.00  0.00    -0.141 C  
BRANCH  19  20
HETATM   20  C   UNK A   0      -7.791   4.477  65.465  1.00  0.00    -0.094 C  
BRANCH  20  21
HETATM   21  C   UNK A   0      -8.055   4.028  66.882  1.00  0.00    -0.097 A  
HETATM   22  C   UNK A   0      -9.322   3.555  67.251  1.00  0.00    -0.239 A  
HETATM   23  C   UNK A   0      -6.989   3.911  67.786  1.00  0.00    -0.055 A  
HETATM   24  C   UNK A   0      -9.508   2.928  68.481  1.00  0.00    -0.200 A  
HETATM   25  C   UNK A   0      -7.179   3.286  69.017  1.00  0.00    -0.049 A  
HETATM   26  C   UNK A   0      -8.432   2.780  69.356  1.00  0.00    -0.100 A  
ENDBRANCH  20  21
ENDBRANCH  19  20
ENDBRANCH  18  19
BRANCH  18  27
HETATM   27  C   UNK A   0      -7.747   8.069  65.034  1.00  0.00    -0.112 C  
HETATM   28  O   UNK A   0      -6.616   8.169  64.579  1.00  0.00    -0.063 OA 
BRANCH  27  29
HETATM   29  O   UNK A   0      -8.782   8.922  64.766  1.00  0.00    -0.179 OA 
BRANCH  29  30
HETATM   30  C   UNK A   0      -8.492  10.325  64.871  1.00  0.00    -0.177 C  
HETATM   31  C   UNK A   0      -8.934  10.872  66.216  1.00  0.00    -0.188 C  
ENDBRANCH  29  30
ENDBRANCH  27  29
ENDBRANCH  18  27
ENDBRANCH  16  18
ENDBRANCH  14  16
ENDBRANCH   7  14
TORSDOF 9
ENDMDL
MODEL      199
REMARK 921   NORMALIZED FREE ENERGY PREDICTED BY IDOCK:   -3.86 KCAL/MOL
REMARK 922        TOTAL FREE ENERGY PREDICTED BY IDOCK:   -7.52 KCAL/MOL
REMARK 923 INTER-LIGAND FREE ENERGY PREDICTED BY IDOCK:   -5.91 KCAL/MOL
REMARK 924 INTRA-LIGAND FREE ENERGY PREDICTED BY IDOCK:   -1.62 KCAL/MOL
REMARK 927      BINDING AFFINITY PREDICTED BY RF-SCORE:    0.00 PKD
ROOT
HETATM    1  C   UNK A   1      -9.479   4.978  67.288  1.00  0.00    -0.149 C  
HETATM    2  C   UNK A   1     -10.737   5.502  66.567  1.00  0.00    -0.309 C  
HETATM    3  C   UNK A   1     -10.972   6.909  67.101  1.00  0.00    -0.427 C  
HETATM    4  C   UNK A   1     -10.168   6.961  68.388  1.00  0.00    -0.191 C  
HETATM    5  C   UNK A   1      -8.903   6.171  68.070  1.00  0.00    -0.111 C  
HETATM    6  N   UNK A   1      -7.933   6.777  67.144  1.00  0.00    -0.115 N  
HETATM    7  C   UNK A   1      -7.053   7.822  67.423  1.00  0.00    -0.086 C  
HETATM    8  C   UNK A   1      -7.516   5.787  66.110  1.00  0.00    -0.082 C  
HETATM    9  C   UNK A   1      -7.654   6.185  64.627  1.00  0.00    -0.093 C  
HETATM   10  C   UNK A   1      -8.360   4.531  66.363  1.00  0.00    -0.106 C  
HETATM   11  O   UNK A   1      -6.150   8.064  66.613  1.00  0.00    -0.047 OA 
HETATM   12  O   UNK A   1      -8.154   7.428  64.434  1.00  0.00    -0.134 OA 
HETATM   13  O   UNK A   1      -7.383   5.445  63.699  1.00  0.00    -0.048 OA 
ENDROOT
BRANCH   7  14
HETATM   14  C   UNK A   1      -7.226   8.715  68.683  1.00  0.00    -0.076 C  
HETATM   15  C   UNK A   1      -6.719  10.135  68.380  1.00  0.00    -0.054 C  
BRANCH  14  16
HETATM   16  N   UNK A   1      -6.498   8.116  69.828  1.00  0.00    -0.036 NA 
HETATM   17  H   UNK A   1      -5.517   8.395  69.819  1.00  0.00     0.000 HD 
BRANCH  16  18
HETATM   18  C   UNK A   0      -7.122   8.418  71.154  1.00  0.00    -0.066 C  
BRANCH  18  19
HETATM   19  C   UNK A   0      -8.560   8.903  70.970  1.00  0.00    -0.255 C  
BRANCH  19  20
HETATM   20  C   UNK A   0      -9.548   8.390  72.028  1.00  0.00    -0.344 C  
BRANCH  20  21
HETATM   21  C   UNK A   0     -10.913   8.922  71.665  1.00  0.00    -0.415 A  
HETATM   22  C   UNK A   0     -12.063   8.383  72.257  1.00  0.00    -0.456 A  
HETATM   23  C   UNK A   0     -11.024  10.075  70.873  1.00  0.00    -0.337 A  
HETATM   24  C   UNK A   0     -13.295   9.017  72.105  1.00  0.00    -0.510 A  
HETATM   25  C   UNK A   0     -12.258  10.703  70.721  1.00  0.00    -0.474 A  
HETATM   26  C   UNK A   0     -13.387  10.186  71.350  1.00  0.00    -0.413 A  
ENDBRANCH  20  21
ENDBRANCH  19  20
ENDBRANCH  18  19
BRANCH  18  27
HETATM   27  C   UNK A   0      -7.075   7.163  72.047  1.00  0.00    -0.071 C  
HETATM   28  O   UNK A   0      -6.628   7.114  73.185  1.00  0.00    -0.064 OA 
BRANCH  27  29
HETATM   29  O   UNK A   0      -7.621   6.107  71.369  1.00  0.00    -0.095 OA 
BRANCH  29  30
HETATM   30  C   UNK A   0      -8.344   5.151  72.159  1.00  0.00    -0.125 C  
HETATM   31  C   UNK A   0      -9.522   4.587  71.385  1.00  0.00    -0.219 C  
ENDBRANCH  29  30
ENDBRANCH  27  29
ENDBRANCH  18  27
ENDBRANCH  16  18
ENDBRANCH  14  16
ENDBRANCH   7  14
TORSDOF 9
ENDMDL
MODEL      200
REMARK 921   NORMALIZED FREE ENERGY PREDICTED BY IDOCK:   -3.84 KCAL/MOL
REMARK 922        TOTAL FREE ENERGY PREDICTED BY IDOCK:   -7.49 KCAL/MOL
REMARK 923 INTER-LIGAND FREE ENERGY PREDICTED BY IDOCK:   -6.86 KCAL/MOL
REMARK 924 INTRA-LIGAND FREE ENERGY PREDICTED BY IDOCK:   -0.62 KCAL/MOL
REMARK 927      BINDING AFFINITY PREDICTED BY RF-SCORE:    0.00 PKD
ROOT
HETATM    1  C   UNK A   1      -8.831   5.738  70.035  1.00  0.00    -0.139 C  
HETATM    2  C   UNK A   1      -7.696   6.013  71.040  1.00  0.00    -0.102 C  
HETATM    3  C   UNK A   1      -7.315   7.476  70.855  1.00  0.00    -0.068 C  
HETATM    4  C   UNK A   1      -7.883   7.843  69.495  1.00  0.00    -0.110 C  
HETATM    5  C   UNK A   1      -9.216   7.102  69.437  1.00  0.00    -0.148 C  
HETATM    6  N   UNK A   1     -10.304   7.583  70.302  1.00  0.00    -0.209 N  
HETATM    7  C   UNK A   1     -11.080   8.727  70.110  1.00  0.00    -0.202 C  
HETATM    8  C   UNK A   1     -10.933   6.443  71.026  1.00  0.00    -0.274 C  
HETATM    9  C   UNK A   1     -11.035   6.527  72.562  1.00  0.00    -0.248 C  
HETATM   10  C   UNK A   1     -10.110   5.202  70.655  1.00  0.00    -0.309 C  
HETATM   11  O   UNK A   1     -12.098   8.870  70.798  1.00  0.00    -0.234 OA 
HETATM   12  O   UNK A   1     -10.524   7.666  73.088  1.00  0.00    -0.327 OA 
HETATM   13  O   UNK A   1     -11.491   5.640  73.260  1.00  0.00    -0.197 OA 
ENDROOT
BRANCH   7  14
HETATM   14  C   UNK A   1     -10.657   9.836  69.108  1.00  0.00    -0.218 C  
HETATM   15  C   UNK A   1     -10.550   9.240  67.695  1.00  0.00    -0.324 C  
BRANCH  14  16
HETATM   16  N   UNK A   1      -9.372  10.439  69.537  1.00  0.00    -0.369 NA 
HETATM   17  H   UNK A   1      -8.738   9.723  69.892  1.00  0.00     0.000 HD 
BRANCH  16  18
HETATM   18  C   UNK A   0      -8.709  11.252  68.470  1.00  0.00    -0.156 C  
BRANCH  18  19
HETATM   19  C   UNK A   0      -9.414  12.599  68.309  1.00  0.00    -0.203 C  
BRANCH  19  20
HETATM   20  C   UNK A   0      -8.932  13.432  67.112  1.00  0.00    -0.227 C  
BRANCH  20  21
HETATM   21  C   UNK A   0     -10.082  13.529  66.139  1.00  0.00    -0.307 A  
HETATM   22  C   UNK A   0     -11.086  12.552  66.130  1.00  0.00    -0.336 A  
HETATM   23  C   UNK A   0     -10.245  14.689  65.367  1.00  0.00    -0.415 A  
HETATM   24  C   UNK A   0     -12.258  12.754  65.405  1.00  0.00    -0.532 A  
HETATM   25  C   UNK A   0     -11.417  14.886  64.640  1.00  0.00    -0.380 A  
HETATM   26  C   UNK A   0     -12.429  13.929  64.673  1.00  0.00    -0.361 A  
ENDBRANCH  20  21
ENDBRANCH  19  20
ENDBRANCH  18  19
BRANCH  18  27
HETATM   27  C   UNK A   0      -7.220  11.447  68.817  1.00  0.00    -0.107 C  
HETATM   28  O   UNK A   0      -6.781  12.188  69.686  1.00  0.00    -0.075 OA 
BRANCH  27  29
HETATM   29  O   UNK A   0      -6.461  10.653  68.001  1.00  0.00    -0.061 OA 
BRANCH  29  30
HETATM   30  C   UNK A   0      -7.052  10.284  66.746  1.00  0.00    -0.094 C  
HETATM   31  C   UNK A   0      -6.082  10.513  65.601  1.00  0.00    -0.131 C  
ENDBRANCH  29  30
ENDBRANCH  27  29
ENDBRANCH  18  27
ENDBRANCH  16  18
ENDBRANCH  14  16
ENDBRANCH   7  14
TORSDOF 9
ENDMDL
MODEL      201
REMARK 921   NORMALIZED FREE ENERGY PREDICTED BY IDOCK:   -3.83 KCAL/MOL
REMARK 922        TOTAL FREE ENERGY PREDICTED BY IDOCK:   -7.47 KCAL/MOL
REMARK 923 INTER-LIGAND FREE ENERGY PREDICTED BY IDOCK:   -5.78 KCAL/MOL
REMARK 924 INTRA-LIGAND FREE ENERGY PREDICTED BY IDOCK:   -1.69 KCAL/MOL
REMARK 927      BINDING AFFINITY PREDICTED BY RF-SCORE:    0.00 PKD
ROOT
HETATM    1  C   UNK A   1     -10.704   8.342  71.687  1.00  0.00    -0.333 C  
HETATM    2  C   UNK A   1     -11.814   7.715  72.553  1.00  0.00    -0.312 C  
HETATM    3  C   UNK A   1     -12.299   6.488  71.791  1.00  0.00    -0.340 C  
HETATM    4  C   UNK A   1     -11.812   6.712  70.370  1.00  0.00    -0.407 C  
HETATM    5  C   UNK A   1     -10.436   7.348  70.544  1.00  0.00    -0.218 C  
HETATM    6  N   UNK A   1      -9.349   6.497  71.051  1.00  0.00    -0.160 N  
HETATM    7  C   UNK A   1      -8.659   5.512  70.344  1.00  0.00    -0.130 C  
HETATM    8  C   UNK A   1      -8.616   7.192  72.148  1.00  0.00    -0.110 C  
HETATM    9  C   UNK A   1      -8.459   6.456  73.494  1.00  0.00    -0.120 C  
HETATM   10  C   UNK A   1      -9.369   8.506  72.391  1.00  0.00    -0.349 C  
HETATM   11  O   UNK A   1      -7.627   5.045  70.839  1.00  0.00    -0.073 OA 
HETATM   12  O   UNK A   1      -9.023   5.225  73.520  1.00  0.00    -0.122 OA 
HETATM   13  O   UNK A   1      -7.917   6.940  74.471  1.00  0.00    -0.122 OA 
ENDROOT
BRANCH   7  14
HETATM   14  C   UNK A   1      -9.195   4.955  68.996  1.00  0.00    -0.119 C  
HETATM   15  C   UNK A   1      -9.403   3.437  69.113  1.00  0.00    -0.237 C  
BRANCH  14  16
HETATM   16  N   UNK A   1      -8.249   5.287  67.902  1.00  0.00    -0.099 NA 
HETATM   17  H   UNK A   1      -7.870   4.438  67.484  1.00  0.00     0.000 HD 
BRANCH  16  18
HETATM   18  C   UNK A   0      -8.839   6.176  66.854  1.00  0.00    -0.117 C  
BRANCH  18  19
HETATM   19  C   UNK A   0      -9.176   7.546  67.443  1.00  0.00    -0.149 C  
BRANCH  19  20
HETATM   20  C   UNK A   0     -10.524   8.123  66.986  1.00  0.00    -0.396 C  
BRANCH  20  21
HETATM   21  C   UNK A   0     -10.452   9.622  67.155  1.00  0.00    -0.317 A  
HETATM   22  C   UNK A   0     -10.897  10.222  68.340  1.00  0.00    -0.288 A  
HETATM   23  C   UNK A   0      -9.774  10.399  66.204  1.00  0.00    -0.262 A  
HETATM   24  C   UNK A   0     -10.622  11.565  68.596  1.00  0.00    -0.236 A  
HETATM   25  C   UNK A   0      -9.504  11.741  66.461  1.00  0.00    -0.225 A  
HETATM   26  C   UNK A   0      -9.912  12.318  67.661  1.00  0.00    -0.199 A  
ENDBRANCH  20  21
ENDBRANCH  19  20
ENDBRANCH  18  19
BRANCH  18  27
HETATM   27  C   UNK A   0      -7.854   6.312  65.675  1.00  0.00    -0.098 C  
HETATM   28  O   UNK A   0      -8.152   6.269  64.490  1.00  0.00    -0.124 OA 
BRANCH  27  29
HETATM   29  O   UNK A   0      -6.590   6.497  66.165  1.00  0.00    -0.045 OA 
BRANCH  29  30
HETATM   30  C   UNK A   0      -6.054   7.825  66.051  1.00  0.00    -0.038 C  
HETATM   31  C   UNK A   0      -5.368   8.245  67.338  1.00  0.00    -0.034 C  
ENDBRANCH  29  30
ENDBRANCH  27  29
ENDBRANCH  18  27
ENDBRANCH  16  18
ENDBRANCH  14  16
ENDBRANCH   7  14
TORSDOF 9
ENDMDL
MODEL      202
REMARK 921   NORMALIZED FREE ENERGY PREDICTED BY IDOCK:   -3.82 KCAL/MOL
REMARK 922        TOTAL FREE ENERGY PREDICTED BY IDOCK:   -7.47 KCAL/MOL
REMARK 923 INTER-LIGAND FREE ENERGY PREDICTED BY IDOCK:   -6.58 KCAL/MOL
REMARK 924 INTRA-LIGAND FREE ENERGY PREDICTED BY IDOCK:   -0.88 KCAL/MOL
REMARK 927      BINDING AFFINITY PREDICTED BY RF-SCORE:    0.00 PKD
ROOT
HETATM    1  C   UNK A   1      -9.588  10.853  67.281  1.00  0.00    -0.184 C  
HETATM    2  C   UNK A   1      -8.953   9.952  68.358  1.00  0.00    -0.120 C  
HETATM    3  C   UNK A   1      -8.026  10.850  69.166  1.00  0.00    -0.114 C  
HETATM    4  C   UNK A   1      -7.807  12.061  68.277  1.00  0.00    -0.145 C  
HETATM    5  C   UNK A   1      -9.166  12.293  67.622  1.00  0.00    -0.183 C  
HETATM    6  N   UNK A   1     -10.256  12.799  68.472  1.00  0.00    -0.299 N  
HETATM    7  C   UNK A   1     -10.408  14.101  68.947  1.00  0.00    -0.199 C  
HETATM    8  C   UNK A   1     -11.495  11.999  68.254  1.00  0.00    -0.303 C  
HETATM    9  C   UNK A   1     -12.182  11.377  69.486  1.00  0.00    -0.235 C  
HETATM   10  C   UNK A   1     -11.106  10.874  67.287  1.00  0.00    -0.350 C  
HETATM   11  O   UNK A   1     -11.489  14.419  69.457  1.00  0.00    -0.261 OA 
HETATM   12  O   UNK A   1     -11.557  11.641  70.658  1.00  0.00    -0.130 OA 
HETATM   13  O   UNK A   1     -13.173  10.673  69.425  1.00  0.00     0.210 OA 
ENDROOT
BRANCH   7  14
HETATM   14  C   UNK A   1      -9.238  15.123  68.906  1.00  0.00    -0.209 C  
HETATM   15  C   UNK A   1      -9.703  16.461  69.504  1.00  0.00    -0.080 C  
BRANCH  14  16
HETATM   16  N   UNK A   1      -8.765  15.291  67.511  1.00  0.00    -0.171 NA 
HETATM   17  H   UNK A   1      -9.117  14.540  66.917  1.00  0.00     0.000 HD 
BRANCH  16  18
HETATM   18  C   UNK A   0      -9.096  16.628  66.926  1.00  0.00    -0.228 C  
BRANCH  18  19
HETATM   19  C   UNK A   0      -7.820  17.370  66.532  1.00  0.00    -0.320 C  
BRANCH  19  20
HETATM   20  C   UNK A   0      -7.686  18.776  67.137  1.00  0.00    -0.241 C  
BRANCH  20  21
HETATM   21  C   UNK A   0      -6.756  18.669  68.321  1.00  0.00    -0.237 A  
HETATM   22  C   UNK A   0      -6.636  19.732  69.226  1.00  0.00    -0.387 A  
HETATM   23  C   UNK A   0      -6.149  17.440  68.622  1.00  0.00    -0.172 A  
HETATM   24  C   UNK A   0      -5.965  19.556  70.435  1.00  0.00    -0.262 A  
HETATM   25  C   UNK A   0      -5.476  17.268  69.830  1.00  0.00    -0.221 A  
HETATM   26  C   UNK A   0      -5.400  18.318  70.742  1.00  0.00    -0.254 A  
ENDBRANCH  20  21
ENDBRANCH  19  20
ENDBRANCH  18  19
BRANCH  18  27
HETATM   27  C   UNK A   0     -10.026  16.446  65.710  1.00  0.00    -0.302 C  
HETATM   28  O   UNK A   0     -10.424  15.377  65.270  1.00  0.00    -0.367 OA 
BRANCH  27  29
HETATM   29  O   UNK A   0     -10.344  17.675  65.200  1.00  0.00    -0.390 OA 
BRANCH  29  30
HETATM   30  C   UNK A   0     -10.888  18.626  66.129  1.00  0.00    -0.051 C  
HETATM   31  C   UNK A   0     -10.644  20.048  65.657  1.00  0.00    -0.380 C  
ENDBRANCH  29  30
ENDBRANCH  27  29
ENDBRANCH  18  27
ENDBRANCH  16  18
ENDBRANCH  14  16
ENDBRANCH   7  14
TORSDOF 9
ENDMDL
MODEL      203
REMARK 921   NORMALIZED FREE ENERGY PREDICTED BY IDOCK:   -3.81 KCAL/MOL
REMARK 922        TOTAL FREE ENERGY PREDICTED BY IDOCK:   -7.45 KCAL/MOL
REMARK 923 INTER-LIGAND FREE ENERGY PREDICTED BY IDOCK:   -5.15 KCAL/MOL
REMARK 924 INTRA-LIGAND FREE ENERGY PREDICTED BY IDOCK:   -2.30 KCAL/MOL
REMARK 927      BINDING AFFINITY PREDICTED BY RF-SCORE:    0.00 PKD
ROOT
HETATM    1  C   UNK A   1     -11.587   6.986  72.539  1.00  0.00    -0.245 C  
HETATM    2  C   UNK A   1     -10.428   7.471  73.432  1.00  0.00    -0.404 C  
HETATM    3  C   UNK A   1      -9.181   6.755  72.930  1.00  0.00    -0.150 C  
HETATM    4  C   UNK A   1      -9.719   5.587  72.121  1.00  0.00    -0.186 C  
HETATM    5  C   UNK A   1     -10.945   6.158  71.413  1.00  0.00    -0.277 C  
HETATM    6  N   UNK A   1     -10.718   7.130  70.332  1.00  0.00    -0.228 N  
HETATM    7  C   UNK A   1     -10.264   6.854  69.042  1.00  0.00    -0.181 C  
HETATM    8  C   UNK A   1     -11.606   8.314  70.506  1.00  0.00    -0.131 C  
HETATM    9  C   UNK A   1     -10.955   9.711  70.528  1.00  0.00    -0.313 C  
HETATM   10  C   UNK A   1     -12.347   8.095  71.831  1.00  0.00    -0.371 C  
HETATM   11  O   UNK A   1     -10.342   7.743  68.186  1.00  0.00    -0.197 OA 
HETATM   12  O   UNK A   1      -9.609   9.696  70.382  1.00  0.00    -0.251 OA 
HETATM   13  O   UNK A   1     -11.574  10.745  70.705  1.00  0.00    -0.322 OA 
ENDROOT
BRANCH   7  14
HETATM   14  C   UNK A   1      -9.611   5.489  68.686  1.00  0.00    -0.135 C  
HETATM   15  C   UNK A   1      -8.085   5.595  68.834  1.00  0.00    -0.100 C  
BRANCH  14  16
HETATM   16  N   UNK A   1      -9.993   5.093  67.308  1.00  0.00    -0.171 NA 
HETATM   17  H   UNK A   1     -10.208   5.914  66.743  1.00  0.00     0.000 HD 
BRANCH  16  18
HETATM   18  C   UNK A   0      -8.971   4.237  66.630  1.00  0.00    -0.121 C  
BRANCH  18  19
HETATM   19  C   UNK A   0      -9.275   2.757  66.862  1.00  0.00    -0.141 C  
BRANCH  19  20
HETATM   20  C   UNK A   0      -8.077   1.928  67.351  1.00  0.00    -0.066 C  
BRANCH  20  21
HETATM   21  C   UNK A   0      -8.135   1.900  68.859  1.00  0.00    -0.062 A  
HETATM   22  C   UNK A   0      -6.972   2.091  69.616  1.00  0.00    -0.033 A  
HETATM   23  C   UNK A   0      -9.379   1.864  69.508  1.00  0.00    -0.160 A  
HETATM   24  C   UNK A   0      -7.054   2.297  70.992  1.00  0.00    -0.033 A  
HETATM   25  C   UNK A   0      -9.456   2.067  70.884  1.00  0.00    -0.204 A  
HETATM   26  C   UNK A   0      -8.298   2.301  71.622  1.00  0.00    -0.072 A  
ENDBRANCH  20  21
ENDBRANCH  19  20
ENDBRANCH  18  19
BRANCH  18  27
HETATM   27  C   UNK A   0      -8.938   4.562  65.124  1.00  0.00    -0.147 C  
HETATM   28  O   UNK A   0      -9.783   4.232  64.304  1.00  0.00    -0.158 OA 
BRANCH  27  29
HETATM   29  O   UNK A   0      -7.813   5.290  64.846  1.00  0.00    -0.086 OA 
BRANCH  29  30
HETATM   30  C   UNK A   0      -8.017   6.673  64.517  1.00  0.00    -0.106 C  
HETATM   31  C   UNK A   0      -7.773   7.561  65.724  1.00  0.00    -0.098 C  
ENDBRANCH  29  30
ENDBRANCH  27  29
ENDBRANCH  18  27
ENDBRANCH  16  18
ENDBRANCH  14  16
ENDBRANCH   7  14
TORSDOF 9
ENDMDL
MODEL      204
REMARK 921   NORMALIZED FREE ENERGY PREDICTED BY IDOCK:   -3.81 KCAL/MOL
REMARK 922        TOTAL FREE ENERGY PREDICTED BY IDOCK:   -7.44 KCAL/MOL
REMARK 923 INTER-LIGAND FREE ENERGY PREDICTED BY IDOCK:   -6.04 KCAL/MOL
REMARK 924 INTRA-LIGAND FREE ENERGY PREDICTED BY IDOCK:   -1.40 KCAL/MOL
REMARK 927      BINDING AFFINITY PREDICTED BY RF-SCORE:    0.00 PKD
ROOT
HETATM    1  C   UNK A   1      -6.092   6.405  64.801  1.00  0.00    -0.030 C  
HETATM    2  C   UNK A   1      -6.680   5.954  63.449  1.00  0.00    -0.036 C  
HETATM    3  C   UNK A   1      -8.016   5.295  63.770  1.00  0.00    -0.105 C  
HETATM    4  C   UNK A   1      -7.932   4.979  65.253  1.00  0.00    -0.102 C  
HETATM    5  C   UNK A   1      -7.196   6.176  65.848  1.00  0.00    -0.075 C  
HETATM    6  N   UNK A   1      -7.913   7.459  65.905  1.00  0.00    -0.111 N  
HETATM    7  C   UNK A   1      -8.930   7.809  66.793  1.00  0.00    -0.139 C  
HETATM    8  C   UNK A   1      -7.050   8.558  65.385  1.00  0.00    -0.082 C  
HETATM    9  C   UNK A   1      -7.611   9.449  64.258  1.00  0.00    -0.115 C  
HETATM   10  C   UNK A   1      -5.765   7.885  64.887  1.00  0.00    -0.040 C  
HETATM   11  O   UNK A   1      -9.272   8.996  66.860  1.00  0.00    -0.134 OA 
HETATM   12  O   UNK A   1      -8.862   9.115  63.862  1.00  0.00    -0.182 OA 
HETATM   13  O   UNK A   1      -6.983  10.348  63.730  1.00  0.00    -0.094 OA 
ENDROOT
BRANCH   7  14
HETATM   14  C   UNK A   1      -9.674   6.738  67.638  1.00  0.00    -0.126 C  
HETATM   15  C   UNK A   1     -11.002   6.375  66.955  1.00  0.00    -0.413 C  
BRANCH  14  16
HETATM   16  N   UNK A   1      -9.897   7.247  69.014  1.00  0.00    -0.162 NA 
HETATM   17  H   UNK A   1     -10.554   6.652  69.517  1.00  0.00     0.000 HD 
BRANCH  16  18
HETATM   18  C   UNK A   0      -8.635   7.423  69.796  1.00  0.00    -0.140 C  
BRANCH  18  19
HETATM   19  C   UNK A   0      -8.686   8.716  70.611  1.00  0.00    -0.188 C  
BRANCH  19  20
HETATM   20  C   UNK A   0      -9.467   8.610  71.929  1.00  0.00    -0.369 C  
BRANCH  20  21
HETATM   21  C   UNK A   0     -10.896   9.000  71.637  1.00  0.00    -0.437 A  
HETATM   22  C   UNK A   0     -11.951   8.400  72.337  1.00  0.00    -0.451 A  
HETATM   23  C   UNK A   0     -11.162  10.092  70.798  1.00  0.00    -0.414 A  
HETATM   24  C   UNK A   0     -13.242   8.915  72.242  1.00  0.00    -0.498 A  
HETATM   25  C   UNK A   0     -12.455  10.603  70.702  1.00  0.00    -0.462 A  
HETATM   26  C   UNK A   0     -13.489  10.027  71.436  1.00  0.00    -0.355 A  
ENDBRANCH  20  21
ENDBRANCH  19  20
ENDBRANCH  18  19
BRANCH  18  27
HETATM   27  C   UNK A   0      -8.419   6.203  70.713  1.00  0.00    -0.131 C  
HETATM   28  O   UNK A   0      -7.379   5.922  71.293  1.00  0.00    -0.076 OA 
BRANCH  27  29
HETATM   29  O   UNK A   0      -9.580   5.483  70.783  1.00  0.00    -0.160 OA 
BRANCH  29  30
HETATM   30  C   UNK A   0      -9.440   4.054  70.809  1.00  0.00    -0.170 C  
HETATM   31  C   UNK A   0      -9.364   3.490  69.401  1.00  0.00    -0.243 C  
ENDBRANCH  29  30
ENDBRANCH  27  29
ENDBRANCH  18  27
ENDBRANCH  16  18
ENDBRANCH  14  16
ENDBRANCH   7  14
TORSDOF 9
ENDMDL
MODEL      205
REMARK 921   NORMALIZED FREE ENERGY PREDICTED BY IDOCK:   -3.80 KCAL/MOL
REMARK 922        TOTAL FREE ENERGY PREDICTED BY IDOCK:   -7.43 KCAL/MOL
REMARK 923 INTER-LIGAND FREE ENERGY PREDICTED BY IDOCK:   -7.78 KCAL/MOL
REMARK 924 INTRA-LIGAND FREE ENERGY PREDICTED BY IDOCK:    0.34 KCAL/MOL
REMARK 927      BINDING AFFINITY PREDICTED BY RF-SCORE:    0.00 PKD
ROOT
HETATM    1  C   UNK A   1      -8.571   7.505  69.711  1.00  0.00    -0.140 C  
HETATM    2  C   UNK A   1      -7.980   7.845  71.093  1.00  0.00    -0.091 C  
HETATM    3  C   UNK A   1      -7.484   9.281  70.997  1.00  0.00    -0.091 C  
HETATM    4  C   UNK A   1      -7.378   9.543  69.504  1.00  0.00    -0.077 C  
HETATM    5  C   UNK A   1      -8.585   8.820  68.913  1.00  0.00    -0.136 C  
HETATM    6  N   UNK A   1      -9.917   9.389  69.174  1.00  0.00    -0.175 N  
HETATM    7  C   UNK A   1     -10.471  10.524  68.582  1.00  0.00    -0.191 C  
HETATM    8  C   UNK A   1     -10.856   8.321  69.622  1.00  0.00    -0.150 C  
HETATM    9  C   UNK A   1     -11.618   8.535  70.945  1.00  0.00    -0.263 C  
HETATM   10  C   UNK A   1     -10.018   7.042  69.737  1.00  0.00    -0.179 C  
HETATM   11  O   UNK A   1     -11.679  10.739  68.739  1.00  0.00    -0.295 OA 
HETATM   12  O   UNK A   1     -11.333   9.705  71.564  1.00  0.00    -0.381 OA 
HETATM   13  O   UNK A   1     -12.378   7.715  71.429  1.00  0.00    -0.315 OA 
ENDROOT
BRANCH   7  14
HETATM   14  C   UNK A   1      -9.596  11.540  67.797  1.00  0.00    -0.175 C  
HETATM   15  C   UNK A   1      -8.530  10.783  66.988  1.00  0.00    -0.128 C  
BRANCH  14  16
HETATM   16  N   UNK A   1      -8.975  12.502  68.740  1.00  0.00    -0.390 NA 
HETATM   17  H   UNK A   1      -7.998  12.263  68.908  1.00  0.00     0.000 HD 
BRANCH  16  18
HETATM   18  C   UNK A   0      -9.104  13.928  68.306  1.00  0.00    -0.191 C  
BRANCH  18  19
HETATM   19  C   UNK A   0      -9.304  14.010  66.792  1.00  0.00    -0.289 C  
BRANCH  19  20
HETATM   20  C   UNK A   0     -10.715  14.433  66.357  1.00  0.00    -0.306 C  
BRANCH  20  21
HETATM   21  C   UNK A   0     -11.203  13.411  65.359  1.00  0.00    -0.303 A  
HETATM   22  C   UNK A   0     -12.576  13.191  65.185  1.00  0.00    -0.525 A  
HETATM   23  C   UNK A   0     -10.294  12.810  64.476  1.00  0.00    -0.373 A  
HETATM   24  C   UNK A   0     -13.036  12.427  64.114  1.00  0.00    -0.267 A  
HETATM   25  C   UNK A   0     -10.757  12.044  63.408  1.00  0.00    -0.475 A  
HETATM   26  C   UNK A   0     -12.125  11.868  63.218  1.00  0.00    -0.466 A  
ENDBRANCH  20  21
ENDBRANCH  19  20
ENDBRANCH  18  19
BRANCH  18  27
HETATM   27  C   UNK A   0     -10.276  14.594  69.053  1.00  0.00    -0.220 C  
HETATM   28  O   UNK A   0     -11.388  14.110  69.211  1.00  0.00    -0.257 OA 
BRANCH  27  29
HETATM   29  O   UNK A   0      -9.874  15.815  69.522  1.00  0.00    -0.259 OA 
BRANCH  29  30
HETATM   30  C   UNK A   0     -10.538  16.959  68.963  1.00  0.00    -0.338 C  
HETATM   31  C   UNK A   0      -9.532  17.986  68.475  1.00  0.00    -0.326 C  
ENDBRANCH  29  30
ENDBRANCH  27  29
ENDBRANCH  18  27
ENDBRANCH  16  18
ENDBRANCH  14  16
ENDBRANCH   7  14
TORSDOF 9
ENDMDL
MODEL      206
REMARK 921   NORMALIZED FREE ENERGY PREDICTED BY IDOCK:   -3.79 KCAL/MOL
REMARK 922        TOTAL FREE ENERGY PREDICTED BY IDOCK:   -7.42 KCAL/MOL
REMARK 923 INTER-LIGAND FREE ENERGY PREDICTED BY IDOCK:   -5.87 KCAL/MOL
REMARK 924 INTRA-LIGAND FREE ENERGY PREDICTED BY IDOCK:   -1.55 KCAL/MOL
REMARK 927      BINDING AFFINITY PREDICTED BY RF-SCORE:    0.00 PKD
ROOT
HETATM    1  C   UNK A   1      -8.396   8.131  72.614  1.00  0.00    -0.236 C  
HETATM    2  C   UNK A   1      -9.315   7.480  73.666  1.00  0.00    -0.329 C  
HETATM    3  C   UNK A   1     -10.698   7.409  73.031  1.00  0.00    -0.413 C  
HETATM    4  C   UNK A   1     -10.636   8.402  71.884  1.00  0.00    -0.370 C  
HETATM    5  C   UNK A   1      -9.226   8.234  71.322  1.00  0.00    -0.163 C  
HETATM    6  N   UNK A   1      -8.924   6.991  70.596  1.00  0.00    -0.154 N  
HETATM    7  C   UNK A   1      -9.336   6.656  69.306  1.00  0.00    -0.142 C  
HETATM    8  C   UNK A   1      -7.637   6.411  71.076  1.00  0.00    -0.090 C  
HETATM    9  C   UNK A   1      -7.636   4.944  71.550  1.00  0.00    -0.084 C  
HETATM   10  C   UNK A   1      -7.180   7.303  72.237  1.00  0.00    -0.068 C  
HETATM   11  O   UNK A   1      -8.813   5.680  68.756  1.00  0.00    -0.109 OA 
HETATM   12  O   UNK A   1      -8.843   4.337  71.470  1.00  0.00    -0.109 OA 
HETATM   13  O   UNK A   1      -6.656   4.379  71.999  1.00  0.00    -0.021 OA 
ENDROOT
BRANCH   7  14
HETATM   14  C   UNK A   1     -10.470   7.438  68.588  1.00  0.00    -0.189 C  
HETATM   15  C   UNK A   1     -10.998   6.608  67.405  1.00  0.00    -0.434 C  
BRANCH  14  16
HETATM   16  N   UNK A   1      -9.965   8.758  68.137  1.00  0.00    -0.167 NA 
HETATM   17  H   UNK A   1      -9.155   9.041  68.688  1.00  0.00     0.000 HD 
BRANCH  16  18
HETATM   18  C   UNK A   0      -9.655   8.809  66.675  1.00  0.00    -0.220 C  
BRANCH  18  19
HETATM   19  C   UNK A   0     -10.238  10.076  66.049  1.00  0.00    -0.277 C  
BRANCH  19  20
HETATM   20  C   UNK A   0     -11.315  10.770  66.896  1.00  0.00     0.017 C  
BRANCH  20  21
HETATM   21  C   UNK A   0     -10.967  12.238  66.952  1.00  0.00    -0.312 A  
HETATM   22  C   UNK A   0     -11.972  13.197  67.132  1.00  0.00    -0.397 A  
HETATM   23  C   UNK A   0      -9.622  12.633  67.008  1.00  0.00    -0.219 A  
HETATM   24  C   UNK A   0     -11.639  14.521  67.415  1.00  0.00    -0.406 A  
HETATM   25  C   UNK A   0      -9.293  13.958  67.288  1.00  0.00    -0.231 A  
HETATM   26  C   UNK A   0     -10.299  14.895  67.509  1.00  0.00    -0.239 A  
ENDBRANCH  20  21
ENDBRANCH  19  20
ENDBRANCH  18  19
BRANCH  18  27
HETATM   27  C   UNK A   0      -8.129   8.744  66.465  1.00  0.00    -0.103 C  
HETATM   28  O   UNK A   0      -7.291   9.312  67.149  1.00  0.00    -0.089 OA 
BRANCH  27  29
HETATM   29  O   UNK A   0      -7.858   7.939  65.392  1.00  0.00    -0.098 OA 
BRANCH  29  30
HETATM   30  C   UNK A   0      -7.401   6.611  65.695  1.00  0.00    -0.075 C  
HETATM   31  C   UNK A   0      -8.299   5.569  65.054  1.00  0.00    -0.146 C  
ENDBRANCH  29  30
ENDBRANCH  27  29
ENDBRANCH  18  27
ENDBRANCH  16  18
ENDBRANCH  14  16
ENDBRANCH   7  14
TORSDOF 9
ENDMDL
MODEL      207
REMARK 921   NORMALIZED FREE ENERGY PREDICTED BY IDOCK:   -3.78 KCAL/MOL
REMARK 922        TOTAL FREE ENERGY PREDICTED BY IDOCK:   -7.40 KCAL/MOL
REMARK 923 INTER-LIGAND FREE ENERGY PREDICTED BY IDOCK:   -7.82 KCAL/MOL
REMARK 924 INTRA-LIGAND FREE ENERGY PREDICTED BY IDOCK:    0.42 KCAL/MOL
REMARK 927      BINDING AFFINITY PREDICTED BY RF-SCORE:    0.00 PKD
ROOT
HETATM    1  C   UNK A   1      -8.101   5.840  70.140  1.00  0.00    -0.108 C  
HETATM    2  C   UNK A   1      -7.061   6.075  71.254  1.00  0.00    -0.074 C  
HETATM    3  C   UNK A   1      -7.243   7.519  71.702  1.00  0.00    -0.067 C  
HETATM    4  C   UNK A   1      -8.012   8.171  70.565  1.00  0.00    -0.095 C  
HETATM    5  C   UNK A   1      -8.993   7.093  70.113  1.00  0.00    -0.145 C  
HETATM    6  N   UNK A   1     -10.108   6.763  71.014  1.00  0.00    -0.190 N  
HETATM    7  C   UNK A   1     -11.254   7.527  71.240  1.00  0.00    -0.251 C  
HETATM    8  C   UNK A   1     -10.229   5.285  71.169  1.00  0.00    -0.224 C  
HETATM    9  C   UNK A   1     -10.231   4.704  72.597  1.00  0.00    -0.184 C  
HETATM   10  C   UNK A   1      -9.051   4.682  70.394  1.00  0.00    -0.167 C  
HETATM   11  O   UNK A   1     -12.197   7.008  71.849  1.00  0.00    -0.314 OA 
HETATM   12  O   UNK A   1     -10.120   5.636  73.573  1.00  0.00    -0.171 OA 
HETATM   13  O   UNK A   1     -10.284   3.513  72.843  1.00  0.00    -0.150 OA 
ENDROOT
BRANCH   7  14
HETATM   14  C   UNK A   1     -11.336   9.016  70.803  1.00  0.00    -0.277 C  
HETATM   15  C   UNK A   1     -12.584   9.666  71.423  1.00  0.00    -0.463 C  
BRANCH  14  16
HETATM   16  N   UNK A   1     -11.361   9.106  69.323  1.00  0.00    -0.420 NA 
HETATM   17  H   UNK A   1     -12.109   8.529  68.939  1.00  0.00     0.000 HD 
BRANCH  16  18
HETATM   18  C   UNK A   0     -11.459  10.509  68.813  1.00  0.00    -0.224 C  
BRANCH  18  19
HETATM   19  C   UNK A   0     -12.052  11.426  69.882  1.00  0.00    -0.404 C  
BRANCH  19  20
HETATM   20  C   UNK A   0     -11.866  12.926  69.611  1.00  0.00    -0.387 C  
BRANCH  20  21
HETATM   21  C   UNK A   0     -12.198  13.659  70.889  1.00  0.00    -0.408 A  
HETATM   22  C   UNK A   0     -11.534  14.848  71.217  1.00  0.00    -0.322 A  
HETATM   23  C   UNK A   0     -13.298  13.251  71.659  1.00  0.00    -0.406 A  
HETATM   24  C   UNK A   0     -11.992  15.644  72.265  1.00  0.00    -0.562 A  
HETATM   25  C   UNK A   0     -13.752  14.048  72.708  1.00  0.00    -0.435 A  
HETATM   26  C   UNK A   0     -13.111  15.251  72.999  1.00  0.00    -0.612 A  
ENDBRANCH  20  21
ENDBRANCH  19  20
ENDBRANCH  18  19
BRANCH  18  27
HETATM   27  C   UNK A   0     -10.064  11.001  68.378  1.00  0.00    -0.184 C  
HETATM   28  O   UNK A   0      -9.132  11.254  69.127  1.00  0.00    -0.044 OA 
BRANCH  27  29
HETATM   29  O   UNK A   0     -10.029  11.103  67.014  1.00  0.00    -0.186 OA 
BRANCH  29  30
HETATM   30  C   UNK A   0      -8.876  10.546  66.365  1.00  0.00    -0.153 C  
HETATM   31  C   UNK A   0      -8.922   9.028  66.386  1.00  0.00    -0.189 C  
ENDBRANCH  29  30
ENDBRANCH  27  29
ENDBRANCH  18  27
ENDBRANCH  16  18
ENDBRANCH  14  16
ENDBRANCH   7  14
TORSDOF 9
ENDMDL
MODEL      208
REMARK 921   NORMALIZED FREE ENERGY PREDICTED BY IDOCK:   -3.76 KCAL/MOL
REMARK 922        TOTAL FREE ENERGY PREDICTED BY IDOCK:   -7.38 KCAL/MOL
REMARK 923 INTER-LIGAND FREE ENERGY PREDICTED BY IDOCK:   -4.94 KCAL/MOL
REMARK 924 INTRA-LIGAND FREE ENERGY PREDICTED BY IDOCK:   -2.43 KCAL/MOL
REMARK 927      BINDING AFFINITY PREDICTED BY RF-SCORE:    0.00 PKD
ROOT
HETATM    1  C   UNK A   1      -9.218  15.955  67.680  1.00  0.00    -0.208 C  
HETATM    2  C   UNK A   1     -10.255  16.623  66.756  1.00  0.00    -0.301 C  
HETATM    3  C   UNK A   1     -10.708  15.543  65.782  1.00  0.00    -0.362 C  
HETATM    4  C   UNK A   1      -9.626  14.481  65.868  1.00  0.00    -0.281 C  
HETATM    5  C   UNK A   1      -9.248  14.453  67.347  1.00  0.00    -0.198 C  
HETATM    6  N   UNK A   1     -10.227  13.892  68.291  1.00  0.00    -0.241 N  
HETATM    7  C   UNK A   1     -10.529  12.543  68.477  1.00  0.00    -0.231 C  
HETATM    8  C   UNK A   1     -10.396  14.799  69.462  1.00  0.00    -0.112 C  
HETATM    9  C   UNK A   1     -11.823  15.257  69.823  1.00  0.00    -0.332 C  
HETATM   10  C   UNK A   1      -9.543  16.038  69.161  1.00  0.00    -0.257 C  
HETATM   11  O   UNK A   1     -11.205  12.221  69.462  1.00  0.00    -0.208 OA 
HETATM   12  O   UNK A   1     -12.785  14.764  69.008  1.00  0.00     0.129 OA 
HETATM   13  O   UNK A   1     -12.077  16.028  70.731  1.00  0.00    -0.380 OA 
ENDROOT
BRANCH   7  14
HETATM   14  C   UNK A   1     -10.093  11.463  67.448  1.00  0.00    -0.184 C  
HETATM   15  C   UNK A   1     -11.128  10.327  67.425  1.00  0.00    -0.261 C  
BRANCH  14  16
HETATM   16  N   UNK A   1      -8.742  10.956  67.793  1.00  0.00    -0.127 NA 
HETATM   17  H   UNK A   1      -8.799  10.015  68.182  1.00  0.00     0.000 HD 
BRANCH  16  18
HETATM   18  C   UNK A   0      -7.780  10.999  66.649  1.00  0.00    -0.153 C  
BRANCH  18  19
HETATM   19  C   UNK A   0      -6.611  11.931  66.969  1.00  0.00    -0.128 C  
BRANCH  19  20
HETATM   20  C   UNK A   0      -6.239  12.001  68.457  1.00  0.00    -0.053 C  
BRANCH  20  21
HETATM   21  C   UNK A   0      -5.961  13.449  68.783  1.00  0.00    -0.084 A  
HETATM   22  C   UNK A   0      -5.582  14.342  67.772  1.00  0.00    -0.049 A  
HETATM   23  C   UNK A   0      -6.258  13.945  70.062  1.00  0.00    -0.131 A  
HETATM   24  C   UNK A   0      -5.552  15.714  68.020  1.00  0.00    -0.140 A  
HETATM   25  C   UNK A   0      -6.224  15.316  70.307  1.00  0.00    -0.090 A  
HETATM   26  C   UNK A   0      -5.888  16.199  69.283  1.00  0.00    -0.130 A  
ENDBRANCH  20  21
ENDBRANCH  19  20
ENDBRANCH  18  19
BRANCH  18  27
HETATM   27  C   UNK A   0      -7.279   9.574  66.338  1.00  0.00    -0.089 C  
HETATM   28  O   UNK A   0      -7.740   8.540  66.800  1.00  0.00    -0.089 OA 
BRANCH  27  29
HETATM   29  O   UNK A   0      -6.238   9.647  65.453  1.00  0.00    -0.064 OA 
BRANCH  29  30
HETATM   30  C   UNK A   0      -6.587   9.629  64.060  1.00  0.00    -0.112 C  
HETATM   31  C   UNK A   0      -6.423   8.236  63.479  1.00  0.00    -0.076 C  
ENDBRANCH  29  30
ENDBRANCH  27  29
ENDBRANCH  18  27
ENDBRANCH  16  18
ENDBRANCH  14  16
ENDBRANCH   7  14
TORSDOF 9
ENDMDL
MODEL      209
REMARK 921   NORMALIZED FREE ENERGY PREDICTED BY IDOCK:   -3.76 KCAL/MOL
REMARK 922        TOTAL FREE ENERGY PREDICTED BY IDOCK:   -7.37 KCAL/MOL
REMARK 923 INTER-LIGAND FREE ENERGY PREDICTED BY IDOCK:   -6.65 KCAL/MOL
REMARK 924 INTRA-LIGAND FREE ENERGY PREDICTED BY IDOCK:   -0.72 KCAL/MOL
REMARK 927      BINDING AFFINITY PREDICTED BY RF-SCORE:    0.00 PKD
ROOT
HETATM    1  C   UNK A   1      -9.845   7.282  72.051  1.00  0.00    -0.183 C  
HETATM    2  C   UNK A   1      -8.881   8.348  72.609  1.00  0.00    -0.288 C  
HETATM    3  C   UNK A   1      -7.842   8.586  71.522  1.00  0.00    -0.158 C  
HETATM    4  C   UNK A   1      -7.959   7.371  70.618  1.00  0.00    -0.098 C  
HETATM    5  C   UNK A   1      -9.456   7.080  70.577  1.00  0.00    -0.166 C  
HETATM    6  N   UNK A   1     -10.315   8.022  69.843  1.00  0.00    -0.216 N  
HETATM    7  C   UNK A   1     -10.433   8.140  68.458  1.00  0.00    -0.162 C  
HETATM    8  C   UNK A   1     -11.505   8.387  70.665  1.00  0.00    -0.219 C  
HETATM    9  C   UNK A   1     -11.790   9.883  70.903  1.00  0.00    -0.356 C  
HETATM   10  C   UNK A   1     -11.305   7.702  72.023  1.00  0.00    -0.322 C  
HETATM   11  O   UNK A   1     -11.360   8.820  68.001  1.00  0.00     0.380 OA 
HETATM   12  O   UNK A   1     -10.898  10.715  70.317  1.00  0.00    -0.248 OA 
HETATM   13  O   UNK A   1     -12.707  10.296  71.589  1.00  0.00    -0.392 OA 
ENDROOT
BRANCH   7  14
HETATM   14  C   UNK A   1      -9.395   7.496  67.497  1.00  0.00    -0.138 C  
HETATM   15  C   UNK A   1      -9.303   5.987  67.776  1.00  0.00    -0.106 C  
BRANCH  14  16
HETATM   16  N   UNK A   1      -8.077   8.157  67.663  1.00  0.00    -0.125 NA 
HETATM   17  H   UNK A   1      -7.350   7.468  67.853  1.00  0.00     0.000 HD 
BRANCH  16  18
HETATM   18  C   UNK A   0      -7.696   9.025  66.507  1.00  0.00    -0.096 C  
BRANCH  18  19
HETATM   19  C   UNK A   0      -8.901   9.263  65.597  1.00  0.00    -0.216 C  
BRANCH  19  20
HETATM   20  C   UNK A   0      -8.816  10.538  64.744  1.00  0.00    -0.211 C  
BRANCH  20  21
HETATM   21  C   UNK A   0     -10.175  11.194  64.779  1.00  0.00    -0.365 A  
HETATM   22  C   UNK A   0     -10.727  11.615  65.996  1.00  0.00    -0.328 A  
HETATM   23  C   UNK A   0     -10.808  11.548  63.578  1.00  0.00    -0.473 A  
HETATM   24  C   UNK A   0     -11.863  12.422  66.011  1.00  0.00    -0.459 A  
HETATM   25  C   UNK A   0     -11.946  12.353  63.597  1.00  0.00    -0.626 A  
HETATM   26  C   UNK A   0     -12.462  12.803  64.810  1.00  0.00    -0.539 A  
ENDBRANCH  20  21
ENDBRANCH  19  20
ENDBRANCH  18  19
BRANCH  18  27
HETATM   27  C   UNK A   0      -7.127  10.360  67.026  1.00  0.00    -0.092 C  
HETATM   28  O   UNK A   0      -6.120  10.916  66.610  1.00  0.00    -0.077 OA 
BRANCH  27  29
HETATM   29  O   UNK A   0      -7.933  10.834  68.025  1.00  0.00    -0.104 OA 
BRANCH  29  30
HETATM   30  C   UNK A   0      -7.518  12.060  68.648  1.00  0.00    -0.113 C  
HETATM   31  C   UNK A   0      -8.306  13.239  68.105  1.00  0.00    -0.161 C  
ENDBRANCH  29  30
ENDBRANCH  27  29
ENDBRANCH  18  27
ENDBRANCH  16  18
ENDBRANCH  14  16
ENDBRANCH   7  14
TORSDOF 9
ENDMDL
MODEL      210
REMARK 921   NORMALIZED FREE ENERGY PREDICTED BY IDOCK:   -3.74 KCAL/MOL
REMARK 922        TOTAL FREE ENERGY PREDICTED BY IDOCK:   -7.34 KCAL/MOL
REMARK 923 INTER-LIGAND FREE ENERGY PREDICTED BY IDOCK:   -5.75 KCAL/MOL
REMARK 924 INTRA-LIGAND FREE ENERGY PREDICTED BY IDOCK:   -1.60 KCAL/MOL
REMARK 927      BINDING AFFINITY PREDICTED BY RF-SCORE:    0.00 PKD
ROOT
HETATM    1  C   UNK A   1     -10.930   8.665  71.170  1.00  0.00    -0.320 C  
HETATM    2  C   UNK A   1     -12.171   8.395  72.043  1.00  0.00    -0.419 C  
HETATM    3  C   UNK A   1     -12.690   7.025  71.625  1.00  0.00    -0.417 C  
HETATM    4  C   UNK A   1     -12.049   6.778  70.270  1.00  0.00    -0.211 C  
HETATM    5  C   UNK A   1     -10.644   7.357  70.412  1.00  0.00    -0.228 C  
HETATM    6  N   UNK A   1      -9.693   6.639  71.275  1.00  0.00    -0.173 N  
HETATM    7  C   UNK A   1      -9.031   5.448  70.978  1.00  0.00    -0.139 C  
HETATM    8  C   UNK A   1      -9.010   7.590  72.197  1.00  0.00    -0.129 C  
HETATM    9  C   UNK A   1      -9.051   7.290  73.709  1.00  0.00    -0.224 C  
HETATM   10  C   UNK A   1      -9.659   8.958  71.949  1.00  0.00    -0.326 C  
HETATM   11  O   UNK A   1      -8.098   5.094  71.709  1.00  0.00    -0.111 OA 
HETATM   12  O   UNK A   1      -9.725   6.160  74.029  1.00  0.00    -0.161 OA 
HETATM   13  O   UNK A   1      -8.565   8.016  74.557  1.00  0.00    -0.170 OA 
ENDROOT
BRANCH   7  14
HETATM   14  C   UNK A   1      -9.482   4.539  69.801  1.00  0.00    -0.177 C  
HETATM   15  C   UNK A   1      -9.523   3.075  70.267  1.00  0.00    -0.210 C  
BRANCH  14  16
HETATM   16  N   UNK A   1      -8.562   4.713  68.650  1.00  0.00    -0.088 NA 
HETATM   17  H   UNK A   1      -8.548   3.874  68.070  1.00  0.00     0.000 HD 
BRANCH  16  18
HETATM   18  C   UNK A   0      -8.863   5.923  67.824  1.00  0.00    -0.109 C  
BRANCH  18  19
HETATM   19  C   UNK A   0      -7.662   6.286  66.950  1.00  0.00    -0.100 C  
BRANCH  19  20
HETATM   20  C   UNK A   0      -7.232   7.758  67.036  1.00  0.00    -0.089 C  
BRANCH  20  21
HETATM   21  C   UNK A   0      -7.516   8.388  65.693  1.00  0.00    -0.081 A  
HETATM   22  C   UNK A   0      -7.204   7.705  64.510  1.00  0.00    -0.076 A  
HETATM   23  C   UNK A   0      -8.257   9.577  65.624  1.00  0.00    -0.120 A  
HETATM   24  C   UNK A   0      -7.670   8.173  63.283  1.00  0.00    -0.143 A  
HETATM   25  C   UNK A   0      -8.718  10.045  64.395  1.00  0.00    -0.217 A  
HETATM   26  C   UNK A   0      -8.441   9.334  63.230  1.00  0.00    -0.204 A  
ENDBRANCH  20  21
ENDBRANCH  19  20
ENDBRANCH  18  19
BRANCH  18  27
HETATM   27  C   UNK A   0     -10.114   5.664  66.960  1.00  0.00    -0.188 C  
HETATM   28  O   UNK A   0     -10.997   6.476  66.724  1.00  0.00    -0.354 OA 
BRANCH  27  29
HETATM   29  O   UNK A   0     -10.076   4.380  66.490  1.00  0.00    -0.232 OA 
BRANCH  29  30
HETATM   30  C   UNK A   0     -10.372   4.206  65.095  1.00  0.00    -0.181 C  
HETATM   31  C   UNK A   0      -9.141   4.461  64.244  1.00  0.00    -0.151 C  
ENDBRANCH  29  30
ENDBRANCH  27  29
ENDBRANCH  18  27
ENDBRANCH  16  18
ENDBRANCH  14  16
ENDBRANCH   7  14
TORSDOF 9
ENDMDL
MODEL      211
REMARK 921   NORMALIZED FREE ENERGY PREDICTED BY IDOCK:   -3.74 KCAL/MOL
REMARK 922        TOTAL FREE ENERGY PREDICTED BY IDOCK:   -7.33 KCAL/MOL
REMARK 923 INTER-LIGAND FREE ENERGY PREDICTED BY IDOCK:   -5.86 KCAL/MOL
REMARK 924 INTRA-LIGAND FREE ENERGY PREDICTED BY IDOCK:   -1.47 KCAL/MOL
REMARK 927      BINDING AFFINITY PREDICTED BY RF-SCORE:    0.00 PKD
ROOT
HETATM    1  C   UNK A   1      -8.783  15.744  67.949  1.00  0.00    -0.170 C  
HETATM    2  C   UNK A   1      -9.694  16.448  66.924  1.00  0.00    -0.260 C  
HETATM    3  C   UNK A   1     -10.289  15.342  66.061  1.00  0.00    -0.339 C  
HETATM    4  C   UNK A   1      -9.380  14.150  66.299  1.00  0.00    -0.215 C  
HETATM    5  C   UNK A   1      -9.033  14.235  67.783  1.00  0.00    -0.188 C  
HETATM    6  N   UNK A   1     -10.099  13.936  68.752  1.00  0.00    -0.348 N  
HETATM    7  C   UNK A   1     -10.602  12.676  69.076  1.00  0.00    -0.041 C  
HETATM    8  C   UNK A   1     -10.148  14.986  69.808  1.00  0.00    -0.087 C  
HETATM    9  C   UNK A   1     -11.495  15.687  70.071  1.00  0.00    -0.344 C  
HETATM   10  C   UNK A   1      -9.114  16.044  69.400  1.00  0.00    -0.189 C  
HETATM   11  O   UNK A   1     -11.333  12.572  70.068  1.00  0.00    -0.088 OA 
HETATM   12  O   UNK A   1     -12.508  15.251  69.285  1.00  0.00    -0.132 OA 
HETATM   13  O   UNK A   1     -11.645  16.586  70.879  1.00  0.00    -0.280 OA 
ENDROOT
BRANCH   7  14
HETATM   14  C   UNK A   1     -10.317  11.434  68.187  1.00  0.00    -0.188 C  
HETATM   15  C   UNK A   1     -11.643  10.744  67.827  1.00  0.00    -0.155 C  
BRANCH  14  16
HETATM   16  N   UNK A   1      -9.403  10.506  68.897  1.00  0.00    -0.179 NA 
HETATM   17  H   UNK A   1      -8.995  10.957  69.716  1.00  0.00     0.000 HD 
BRANCH  16  18
HETATM   18  C   UNK A   0     -10.045   9.208  69.271  1.00  0.00    -0.194 C  
BRANCH  18  19
HETATM   19  C   UNK A   0      -9.209   8.033  68.764  1.00  0.00    -0.143 C  
BRANCH  19  20
HETATM   20  C   UNK A   0      -7.732   8.364  68.502  1.00  0.00    -0.104 C  
BRANCH  20  21
HETATM   21  C   UNK A   0      -7.584   8.618  67.021  1.00  0.00    -0.084 A  
HETATM   22  C   UNK A   0      -8.288   7.836  66.096  1.00  0.00    -0.129 A  
HETATM   23  C   UNK A   0      -6.887   9.750  66.574  1.00  0.00    -0.084 A  
HETATM   24  C   UNK A   0      -8.338   8.208  64.754  1.00  0.00    -0.113 A  
HETATM   25  C   UNK A   0      -6.936  10.117  65.231  1.00  0.00    -0.137 A  
HETATM   26  C   UNK A   0      -7.675   9.359  64.327  1.00  0.00    -0.117 A  
ENDBRANCH  20  21
ENDBRANCH  19  20
ENDBRANCH  18  19
BRANCH  18  27
HETATM   27  C   UNK A   0     -10.221   9.138  70.801  1.00  0.00    -0.260 C  
HETATM   28  O   UNK A   0      -9.316   9.128  71.624  1.00  0.00    -0.302 OA 
BRANCH  27  29
HETATM   29  O   UNK A   0     -11.556   9.098  71.098  1.00  0.00    -0.277 OA 
BRANCH  29  30
HETATM   30  C   UNK A   0     -12.011   7.943  71.819  1.00  0.00    -0.298 C  
HETATM   31  C   UNK A   0     -11.783   6.675  71.015  1.00  0.00    -0.415 C  
ENDBRANCH  29  30
ENDBRANCH  27  29
ENDBRANCH  18  27
ENDBRANCH  16  18
ENDBRANCH  14  16
ENDBRANCH   7  14
TORSDOF 9
ENDMDL
MODEL      212
REMARK 921   NORMALIZED FREE ENERGY PREDICTED BY IDOCK:   -3.68 KCAL/MOL
REMARK 922        TOTAL FREE ENERGY PREDICTED BY IDOCK:   -7.25 KCAL/MOL
REMARK 923 INTER-LIGAND FREE ENERGY PREDICTED BY IDOCK:   -6.61 KCAL/MOL
REMARK 924 INTRA-LIGAND FREE ENERGY PREDICTED BY IDOCK:   -0.65 KCAL/MOL
REMARK 927      BINDING AFFINITY PREDICTED BY RF-SCORE:    0.00 PKD
ROOT
HETATM    1  C   UNK A   1      -6.627  17.904  69.042  1.00  0.00    -0.247 C  
HETATM    2  C   UNK A   1      -5.297  18.060  68.279  1.00  0.00    -0.160 C  
HETATM    3  C   UNK A   1      -5.237  16.898  67.296  1.00  0.00    -0.168 C  
HETATM    4  C   UNK A   1      -6.251  15.901  67.831  1.00  0.00    -0.153 C  
HETATM    5  C   UNK A   1      -7.396  16.772  68.341  1.00  0.00    -0.198 C  
HETATM    6  N   UNK A   1      -8.226  17.463  67.341  1.00  0.00    -0.199 N  
HETATM    7  C   UNK A   1      -9.200  16.889  66.524  1.00  0.00    -0.269 C  
HETATM    8  C   UNK A   1      -8.403  18.895  67.716  1.00  0.00    -0.279 C  
HETATM    9  C   UNK A   1      -8.037  19.968  66.672  1.00  0.00    -0.315 C  
HETATM   10  C   UNK A   1      -7.544  19.112  68.968  1.00  0.00    -0.337 C  
HETATM   11  O   UNK A   1      -9.963  17.638  65.902  1.00  0.00    -0.517 OA 
HETATM   12  O   UNK A   1      -7.583  19.465  65.500  1.00  0.00    -0.434 OA 
HETATM   13  O   UNK A   1      -8.102  21.166  66.881  1.00  0.00    -0.014 OA 
ENDROOT
BRANCH   7  14
HETATM   14  C   UNK A   1      -9.297  15.350  66.333  1.00  0.00    -0.299 C  
HETATM   15  C   UNK A   1     -10.342  15.030  65.253  1.00  0.00    -0.424 C  
BRANCH  14  16
HETATM   16  N   UNK A   1      -9.640  14.704  67.624  1.00  0.00    -0.211 NA 
HETATM   17  H   UNK A   1     -10.022  15.386  68.279  1.00  0.00     0.000 HD 
BRANCH  16  18
HETATM   18  C   UNK A   0     -10.563  13.535  67.478  1.00  0.00    -0.244 C  
BRANCH  18  19
HETATM   19  C   UNK A   0      -9.810  12.325  66.925  1.00  0.00    -0.216 C  
BRANCH  19  20
HETATM   20  C   UNK A   0      -8.956  11.577  67.959  1.00  0.00    -0.170 C  
BRANCH  20  21
HETATM   21  C   UNK A   0      -7.923  10.781  67.198  1.00  0.00    -0.124 A  
HETATM   22  C   UNK A   0      -8.088  10.533  65.829  1.00  0.00    -0.158 A  
HETATM   23  C   UNK A   0      -6.709  10.444  67.816  1.00  0.00    -0.070 A  
HETATM   24  C   UNK A   0      -7.039  10.006  65.078  1.00  0.00    -0.136 A  
HETATM   25  C   UNK A   0      -5.664   9.914  67.063  1.00  0.00    -0.050 A  
HETATM   26  C   UNK A   0      -5.822   9.712  65.694  1.00  0.00    -0.060 A  
ENDBRANCH  20  21
ENDBRANCH  19  20
ENDBRANCH  18  19
BRANCH  18  27
HETATM   27  C   UNK A   0     -11.205  13.208  68.840  1.00  0.00    -0.277 C  
HETATM   28  O   UNK A   0     -11.993  12.298  69.057  1.00  0.00    -0.300 OA 
BRANCH  27  29
HETATM   29  O   UNK A   0     -10.749  14.095  69.777  1.00  0.00    -0.050 OA 
BRANCH  29  30
HETATM   30  C   UNK A   0     -11.750  14.763  70.559  1.00  0.00    -0.293 C  
HETATM   31  C   UNK A   0     -11.121  15.511  71.722  1.00  0.00    -0.237 C  
ENDBRANCH  29  30
ENDBRANCH  27  29
ENDBRANCH  18  27
ENDBRANCH  16  18
ENDBRANCH  14  16
ENDBRANCH   7  14
TORSDOF 9
ENDMDL
MODEL      213
REMARK 921   NORMALIZED FREE ENERGY PREDICTED BY IDOCK:   -3.62 KCAL/MOL
REMARK 922        TOTAL FREE ENERGY PREDICTED BY IDOCK:   -7.16 KCAL/MOL
REMARK 923 INTER-LIGAND FREE ENERGY PREDICTED BY IDOCK:   -6.89 KCAL/MOL
REMARK 924 INTRA-LIGAND FREE ENERGY PREDICTED BY IDOCK:   -0.27 KCAL/MOL
REMARK 927      BINDING AFFINITY PREDICTED BY RF-SCORE:    0.00 PKD
ROOT
HETATM    1  C   UNK A   1     -10.178   6.411  69.244  1.00  0.00    -0.229 C  
HETATM    2  C   UNK A   1      -8.715   6.209  69.685  1.00  0.00    -0.135 C  
HETATM    3  C   UNK A   1      -7.992   7.508  69.355  1.00  0.00    -0.123 C  
HETATM    4  C   UNK A   1      -8.901   8.199  68.354  1.00  0.00    -0.133 C  
HETATM    5  C   UNK A   1     -10.310   7.894  68.857  1.00  0.00    -0.213 C  
HETATM    6  N   UNK A   1     -10.751   8.554  70.095  1.00  0.00    -0.234 N  
HETATM    7  C   UNK A   1     -11.130   9.889  70.241  1.00  0.00    -0.308 C  
HETATM    8  C   UNK A   1     -11.371   7.562  71.019  1.00  0.00    -0.273 C  
HETATM    9  C   UNK A   1     -10.825   7.471  72.458  1.00  0.00    -0.299 C  
HETATM   10  C   UNK A   1     -11.206   6.195  70.342  1.00  0.00    -0.423 C  
HETATM   11  O   UNK A   1     -11.688  10.232  71.289  1.00  0.00    -0.354 OA 
HETATM   12  O   UNK A   1      -9.814   8.332  72.720  1.00  0.00    -0.274 OA 
HETATM   13  O   UNK A   1     -11.226   6.672  73.284  1.00  0.00    -0.179 OA 
ENDROOT
BRANCH   7  14
HETATM   14  C   UNK A   1     -10.807  10.948  69.150  1.00  0.00    -0.235 C  
HETATM   15  C   UNK A   1     -11.283  10.438  67.780  1.00  0.00    -0.309 C  
BRANCH  14  16
HETATM   16  N   UNK A   1      -9.351  11.235  69.143  1.00  0.00    -0.407 NA 
HETATM   17  H   UNK A   1      -8.815  10.386  69.322  1.00  0.00     0.000 HD 
BRANCH  16  18
HETATM   18  C   UNK A   0      -8.882  11.903  67.889  1.00  0.00    -0.172 C  
BRANCH  18  19
HETATM   19  C   UNK A   0      -8.780  13.414  68.094  1.00  0.00    -0.179 C  
BRANCH  19  20
HETATM   20  C   UNK A   0      -9.900  14.227  67.428  1.00  0.00    -0.235 C  
BRANCH  20  21
HETATM   21  C   UNK A   0      -9.409  15.648  67.299  1.00  0.00    -0.223 A  
HETATM   22  C   UNK A   0      -9.650  16.576  68.321  1.00  0.00    -0.223 A  
HETATM   23  C   UNK A   0      -8.556  15.997  66.242  1.00  0.00    -0.363 A  
HETATM   24  C   UNK A   0      -9.006  17.812  68.316  1.00  0.00    -0.277 A  
HETATM   25  C   UNK A   0      -7.917  17.235  66.237  1.00  0.00    -0.330 A  
HETATM   26  C   UNK A   0      -8.128  18.133  67.281  1.00  0.00    -0.230 A  
ENDBRANCH  20  21
ENDBRANCH  19  20
ENDBRANCH  18  19
BRANCH  18  27
HETATM   27  C   UNK A   0      -7.524  11.312  67.463  1.00  0.00    -0.106 C  
HETATM   28  O   UNK A   0      -6.615  10.998  68.219  1.00  0.00    -0.057 OA 
BRANCH  27  29
HETATM   29  O   UNK A   0      -7.496  11.185  66.101  1.00  0.00    -0.117 OA 
BRANCH  29  30
HETATM   30  C   UNK A   0      -7.262   9.863  65.592  1.00  0.00    -0.113 C  
HETATM   31  C   UNK A   0      -7.936   9.673  64.245  1.00  0.00    -0.139 C  
ENDBRANCH  29  30
ENDBRANCH  27  29
ENDBRANCH  18  27
ENDBRANCH  16  18
ENDBRANCH  14  16
ENDBRANCH   7  14
TORSDOF 9
ENDMDL
MODEL      214
REMARK 921   NORMALIZED FREE ENERGY PREDICTED BY IDOCK:   -3.62 KCAL/MOL
REMARK 922        TOTAL FREE ENERGY PREDICTED BY IDOCK:   -7.16 KCAL/MOL
REMARK 923 INTER-LIGAND FREE ENERGY PREDICTED BY IDOCK:   -5.15 KCAL/MOL
REMARK 924 INTRA-LIGAND FREE ENERGY PREDICTED BY IDOCK:   -2.01 KCAL/MOL
REMARK 927      BINDING AFFINITY PREDICTED BY RF-SCORE:    0.00 PKD
ROOT
HETATM    1  C   UNK A   1     -10.294   7.965  66.712  1.00  0.00    -0.357 C  
HETATM    2  C   UNK A   1      -9.912   9.391  66.270  1.00  0.00    -0.353 C  
HETATM    3  C   UNK A   1      -9.699  10.186  67.551  1.00  0.00    -0.190 C  
HETATM    4  C   UNK A   1     -10.394   9.365  68.623  1.00  0.00    -0.227 C  
HETATM    5  C   UNK A   1     -10.094   7.919  68.237  1.00  0.00    -0.194 C  
HETATM    6  N   UNK A   1      -8.714   7.439  68.407  1.00  0.00    -0.124 N  
HETATM    7  C   UNK A   1      -8.086   7.111  69.609  1.00  0.00    -0.129 C  
HETATM    8  C   UNK A   1      -8.259   6.726  67.180  1.00  0.00    -0.121 C  
HETATM    9  C   UNK A   1      -6.944   7.187  66.519  1.00  0.00    -0.076 C  
HETATM   10  C   UNK A   1      -9.397   6.870  66.162  1.00  0.00    -0.089 C  
HETATM   11  O   UNK A   1      -7.006   6.510  69.564  1.00  0.00    -0.062 OA 
HETATM   12  O   UNK A   1      -6.339   8.218  67.155  1.00  0.00    -0.054 OA 
HETATM   13  O   UNK A   1      -6.497   6.707  65.493  1.00  0.00    -0.046 OA 
ENDROOT
BRANCH   7  14
HETATM   14  C   UNK A   1      -8.680   7.539  70.979  1.00  0.00    -0.134 C  
HETATM   15  C   UNK A   1      -7.852   8.697  71.560  1.00  0.00    -0.163 C  
BRANCH  14  16
HETATM   16  N   UNK A   1      -8.705   6.378  71.902  1.00  0.00    -0.134 NA 
HETATM   17  H   UNK A   1      -8.414   6.656  72.839  1.00  0.00     0.000 HD 
BRANCH  16  18
HETATM   18  C   UNK A   0     -10.026   5.678  71.944  1.00  0.00    -0.180 C  
BRANCH  18  19
HETATM   19  C   UNK A   0      -9.872   4.278  72.538  1.00  0.00    -0.209 C  
BRANCH  19  20
HETATM   20  C   UNK A   0     -10.010   3.134  71.523  1.00  0.00    -0.132 C  
BRANCH  20  21
HETATM   21  C   UNK A   0      -8.835   3.227  70.578  1.00  0.00    -0.147 A  
HETATM   22  C   UNK A   0      -7.535   2.979  71.039  1.00  0.00    -0.036 A  
HETATM   23  C   UNK A   0      -9.059   3.382  69.202  1.00  0.00    -0.205 A  
HETATM   24  C   UNK A   0      -6.484   2.835  70.135  1.00  0.00    -0.028 A  
HETATM   25  C   UNK A   0      -8.005   3.240  68.301  1.00  0.00    -0.065 A  
HETATM   26  C   UNK A   0      -6.725   2.950  68.766  1.00  0.00    -0.037 A  
ENDBRANCH  20  21
ENDBRANCH  19  20
ENDBRANCH  18  19
BRANCH  18  27
HETATM   27  C   UNK A   0     -11.031   6.515  72.761  1.00  0.00    -0.253 C  
HETATM   28  O   UNK A   0     -10.785   7.110  73.800  1.00  0.00    -0.361 OA 
BRANCH  27  29
HETATM   29  O   UNK A   0     -12.247   6.495  72.133  1.00  0.00    -0.308 OA 
BRANCH  29  30
HETATM   30  C   UNK A   0     -12.531   7.603  71.264  1.00  0.00    -0.298 C  
HETATM   31  C   UNK A   0     -13.427   8.617  71.952  1.00  0.00    -0.433 C  
ENDBRANCH  29  30
ENDBRANCH  27  29
ENDBRANCH  18  27
ENDBRANCH  16  18
ENDBRANCH  14  16
ENDBRANCH   7  14
TORSDOF 9
ENDMDL
MODEL      215
REMARK 921   NORMALIZED FREE ENERGY PREDICTED BY IDOCK:   -3.62 KCAL/MOL
REMARK 922        TOTAL FREE ENERGY PREDICTED BY IDOCK:   -7.15 KCAL/MOL
REMARK 923 INTER-LIGAND FREE ENERGY PREDICTED BY IDOCK:   -5.90 KCAL/MOL
REMARK 924 INTRA-LIGAND FREE ENERGY PREDICTED BY IDOCK:   -1.26 KCAL/MOL
REMARK 927      BINDING AFFINITY PREDICTED BY RF-SCORE:    0.00 PKD
ROOT
HETATM    1  C   UNK A   1     -10.033   4.786  67.387  1.00  0.00    -0.204 C  
HETATM    2  C   UNK A   1     -10.678   5.796  66.418  1.00  0.00    -0.193 C  
HETATM    3  C   UNK A   1     -10.775   7.110  67.182  1.00  0.00    -0.422 C  
HETATM    4  C   UNK A   1     -10.632   6.708  68.640  1.00  0.00    -0.274 C  
HETATM    5  C   UNK A   1      -9.588   5.595  68.618  1.00  0.00    -0.130 C  
HETATM    6  N   UNK A   1      -8.197   5.969  68.323  1.00  0.00    -0.110 N  
HETATM    7  C   UNK A   1      -7.304   6.610  69.182  1.00  0.00    -0.093 C  
HETATM    8  C   UNK A   1      -7.621   5.054  67.296  1.00  0.00    -0.091 C  
HETATM    9  C   UNK A   1      -6.994   5.682  66.036  1.00  0.00    -0.063 C  
HETATM   10  C   UNK A   1      -8.767   4.128  66.867  1.00  0.00    -0.114 C  
HETATM   11  O   UNK A   1      -6.109   6.651  68.866  1.00  0.00    -0.024 OA 
HETATM   12  O   UNK A   1      -7.041   7.035  66.011  1.00  0.00    -0.069 OA 
HETATM   13  O   UNK A   1      -6.532   5.033  65.115  1.00  0.00    -0.034 OA 
ENDROOT
BRANCH   7  14
HETATM   14  C   UNK A   1      -7.790   7.321  70.475  1.00  0.00    -0.099 C  
HETATM   15  C   UNK A   1      -6.630   8.121  71.090  1.00  0.00    -0.043 C  
BRANCH  14  16
HETATM   16  N   UNK A   1      -8.321   6.319  71.431  1.00  0.00    -0.122 NA 
HETATM   17  H   UNK A   1      -7.636   5.582  71.599  1.00  0.00     0.000 HD 
BRANCH  16  18
HETATM   18  C   UNK A   0      -8.784   6.915  72.723  1.00  0.00    -0.120 C  
BRANCH  18  19
HETATM   19  C   UNK A   0      -9.460   8.264  72.477  1.00  0.00    -0.356 C  
BRANCH  19  20
HETATM   20  C   UNK A   0     -10.924   8.171  72.020  1.00  0.00    -0.350 C  
BRANCH  20  21
HETATM   21  C   UNK A   0     -11.193   9.360  71.129  1.00  0.00    -0.427 A  
HETATM   22  C   UNK A   0     -10.197   9.841  70.270  1.00  0.00    -0.346 A  
HETATM   23  C   UNK A   0     -12.495   9.871  71.026  1.00  0.00    -0.441 A  
HETATM   24  C   UNK A   0     -10.507  10.780  69.288  1.00  0.00    -0.243 A  
HETATM   25  C   UNK A   0     -12.802  10.813  70.045  1.00  0.00    -0.075 A  
HETATM   26  C   UNK A   0     -11.814  11.252  69.167  1.00  0.00    -0.423 A  
ENDBRANCH  20  21
ENDBRANCH  19  20
ENDBRANCH  18  19
BRANCH  18  27
HETATM   27  C   UNK A   0      -9.744   5.938  73.430  1.00  0.00    -0.157 C  
HETATM   28  O   UNK A   0     -10.270   6.119  74.519  1.00  0.00    -0.315 OA 
BRANCH  27  29
HETATM   29  O   UNK A   0      -9.924   4.835  72.641  1.00  0.00    -0.154 OA 
BRANCH  29  30
HETATM   30  C   UNK A   0      -9.563   3.573  73.223  1.00  0.00    -0.109 C  
HETATM   31  C   UNK A   0     -10.793   2.715  73.464  1.00  0.00    -0.293 C  
ENDBRANCH  29  30
ENDBRANCH  27  29
ENDBRANCH  18  27
ENDBRANCH  16  18
ENDBRANCH  14  16
ENDBRANCH   7  14
TORSDOF 9
ENDMDL
MODEL      216
REMARK 921   NORMALIZED FREE ENERGY PREDICTED BY IDOCK:   -3.57 KCAL/MOL
REMARK 922        TOTAL FREE ENERGY PREDICTED BY IDOCK:   -7.07 KCAL/MOL
REMARK 923 INTER-LIGAND FREE ENERGY PREDICTED BY IDOCK:   -6.71 KCAL/MOL
REMARK 924 INTRA-LIGAND FREE ENERGY PREDICTED BY IDOCK:   -0.36 KCAL/MOL
REMARK 927      BINDING AFFINITY PREDICTED BY RF-SCORE:    0.00 PKD
ROOT
HETATM    1  C   UNK A   1      -7.306   7.886  65.670  1.00  0.00    -0.079 C  
HETATM    2  C   UNK A   1      -8.491   6.948  65.365  1.00  0.00    -0.091 C  
HETATM    3  C   UNK A   1      -9.350   6.933  66.623  1.00  0.00    -0.198 C  
HETATM    4  C   UNK A   1      -8.430   7.454  67.713  1.00  0.00    -0.118 C  
HETATM    5  C   UNK A   1      -7.619   8.548  67.023  1.00  0.00    -0.092 C  
HETATM    6  N   UNK A   1      -8.316   9.793  66.665  1.00  0.00    -0.123 N  
HETATM    7  C   UNK A   1      -8.706  10.812  67.535  1.00  0.00    -0.125 C  
HETATM    8  C   UNK A   1      -8.004  10.175  65.259  1.00  0.00    -0.145 C  
HETATM    9  C   UNK A   1      -9.183  10.428  64.298  1.00  0.00    -0.255 C  
HETATM   10  C   UNK A   1      -7.144   9.038  64.694  1.00  0.00    -0.089 C  
HETATM   11  O   UNK A   1      -9.076  11.889  67.053  1.00  0.00    -0.179 OA 
HETATM   12  O   UNK A   1     -10.402  10.268  64.865  1.00  0.00    -0.283 OA 
HETATM   13  O   UNK A   1      -9.048  10.705  63.120  1.00  0.00    -0.213 OA 
ENDROOT
BRANCH   7  14
HETATM   14  C   UNK A   1      -8.743  10.596  69.073  1.00  0.00    -0.146 C  
HETATM   15  C   UNK A   1      -7.373  10.094  69.556  1.00  0.00    -0.123 C  
BRANCH  14  16
HETATM   16  N   UNK A   1      -9.821   9.638  69.421  1.00  0.00    -0.182 NA 
HETATM   17  H   UNK A   1      -9.492   8.677  69.332  1.00  0.00     0.000 HD 
BRANCH  16  18
HETATM   18  C   UNK A   0     -10.412   9.873  70.775  1.00  0.00    -0.183 C  
BRANCH  18  19
HETATM   19  C   UNK A   0     -11.837  10.413  70.650  1.00  0.00    -0.445 C  
BRANCH  19  20
HETATM   20  C   UNK A   0     -12.125  11.156  69.337  1.00  0.00    -0.396 C  
BRANCH  20  21
HETATM   21  C   UNK A   0     -12.201  12.629  69.661  1.00  0.00    -0.177 A  
HETATM   22  C   UNK A   0     -12.424  13.054  70.977  1.00  0.00    -0.385 A  
HETATM   23  C   UNK A   0     -11.868  13.575  68.680  1.00  0.00    -0.404 A  
HETATM   24  C   UNK A   0     -12.264  14.395  71.320  1.00  0.00    -0.429 A  
HETATM   25  C   UNK A   0     -11.712  14.916  69.026  1.00  0.00    -0.347 A  
HETATM   26  C   UNK A   0     -11.893  15.322  70.346  1.00  0.00    -0.361 A  
ENDBRANCH  20  21
ENDBRANCH  19  20
ENDBRANCH  18  19
BRANCH  18  27
HETATM   27  C   UNK A   0     -10.390   8.561  71.585  1.00  0.00    -0.263 C  
HETATM   28  O   UNK A   0     -11.116   7.595  71.397  1.00  0.00    -0.235 OA 
BRANCH  27  29
HETATM   29  O   UNK A   0      -9.421   8.644  72.548  1.00  0.00    -0.276 OA 
BRANCH  29  30
HETATM   30  C   UNK A   0      -8.756   7.417  72.886  1.00  0.00    -0.128 C  
HETATM   31  C   UNK A   0      -8.854   7.140  74.376  1.00  0.00    -0.238 C  
ENDBRANCH  29  30
ENDBRANCH  27  29
ENDBRANCH  18  27
ENDBRANCH  16  18
ENDBRANCH  14  16
ENDBRANCH   7  14
TORSDOF 9
ENDMDL
MODEL      217
REMARK 921   NORMALIZED FREE ENERGY PREDICTED BY IDOCK:   -3.56 KCAL/MOL
REMARK 922        TOTAL FREE ENERGY PREDICTED BY IDOCK:   -7.06 KCAL/MOL
REMARK 923 INTER-LIGAND FREE ENERGY PREDICTED BY IDOCK:   -6.54 KCAL/MOL
REMARK 924 INTRA-LIGAND FREE ENERGY PREDICTED BY IDOCK:   -0.51 KCAL/MOL
REMARK 927      BINDING AFFINITY PREDICTED BY RF-SCORE:    0.00 PKD
ROOT
HETATM    1  C   UNK A   1      -8.684   6.565  66.514  1.00  0.00    -0.135 C  
HETATM    2  C   UNK A   1      -7.260   7.073  66.811  1.00  0.00    -0.076 C  
HETATM    3  C   UNK A   1      -7.239   7.427  68.292  1.00  0.00    -0.090 C  
HETATM    4  C   UNK A   1      -8.705   7.556  68.668  1.00  0.00    -0.128 C  
HETATM    5  C   UNK A   1      -9.391   6.447  67.875  1.00  0.00    -0.114 C  
HETATM    6  N   UNK A   1      -9.146   5.057  68.291  1.00  0.00    -0.111 N  
HETATM    7  C   UNK A   1      -9.682   4.413  69.406  1.00  0.00    -0.197 C  
HETATM    8  C   UNK A   1      -8.809   4.214  67.109  1.00  0.00    -0.116 C  
HETATM    9  C   UNK A   1      -7.506   3.392  67.153  1.00  0.00    -0.071 C  
HETATM   10  C   UNK A   1      -8.747   5.172  65.912  1.00  0.00    -0.135 C  
HETATM   11  O   UNK A   1      -9.560   3.185  69.492  1.00  0.00    -0.150 OA 
HETATM   12  O   UNK A   1      -6.800   3.538  68.299  1.00  0.00    -0.045 OA 
HETATM   13  O   UNK A   1      -7.110   2.702  66.231  1.00  0.00    -0.061 OA 
ENDROOT
BRANCH   7  14
HETATM   14  C   UNK A   1     -10.362   5.207  70.555  1.00  0.00    -0.243 C  
HETATM   15  C   UNK A   1     -11.376   6.201  69.964  1.00  0.00    -0.443 C  
BRANCH  14  16
HETATM   16  N   UNK A   1      -9.331   5.905  71.362  1.00  0.00    -0.149 NA 
HETATM   17  H   UNK A   1      -9.207   6.864  71.038  1.00  0.00     0.000 HD 
BRANCH  16  18
HETATM   18  C   UNK A   0      -9.605   5.875  72.832  1.00  0.00    -0.155 C  
BRANCH  18  19
HETATM   19  C   UNK A   0     -10.176   7.214  73.298  1.00  0.00    -0.342 C  
BRANCH  19  20
HETATM   20  C   UNK A   0      -9.762   8.419  72.440  1.00  0.00    -0.376 C  
BRANCH  20  21
HETATM   21  C   UNK A   0     -11.019   8.990  71.830  1.00  0.00    -0.443 A  
HETATM   22  C   UNK A   0     -12.263   8.772  72.437  1.00  0.00    -0.396 A  
HETATM   23  C   UNK A   0     -10.926   9.890  70.758  1.00  0.00    -0.407 A  
HETATM   24  C   UNK A   0     -13.385   9.482  72.015  1.00  0.00    -0.535 A  
HETATM   25  C   UNK A   0     -12.051  10.596  70.336  1.00  0.00    -0.430 A  
HETATM   26  C   UNK A   0     -13.274  10.406  70.975  1.00  0.00    -0.361 A  
ENDBRANCH  20  21
ENDBRANCH  19  20
ENDBRANCH  18  19
BRANCH  18  27
HETATM   27  C   UNK A   0     -10.574   4.721  73.156  1.00  0.00    -0.217 C  
HETATM   28  O   UNK A   0     -11.794   4.780  73.111  1.00  0.00    -0.257 OA 
BRANCH  27  29
HETATM   29  O   UNK A   0      -9.851   3.610  73.496  1.00  0.00    -0.106 OA 
BRANCH  29  30
HETATM   30  C   UNK A   0     -10.348   2.355  73.006  1.00  0.00    -0.144 C  
HETATM   31  C   UNK A   0      -9.232   1.534  72.384  1.00  0.00    -0.111 C  
ENDBRANCH  29  30
ENDBRANCH  27  29
ENDBRANCH  18  27
ENDBRANCH  16  18
ENDBRANCH  14  16
ENDBRANCH   7  14
TORSDOF 9
ENDMDL
MODEL      218
REMARK 921   NORMALIZED FREE ENERGY PREDICTED BY IDOCK:   -3.55 KCAL/MOL
REMARK 922        TOTAL FREE ENERGY PREDICTED BY IDOCK:   -7.05 KCAL/MOL
REMARK 923 INTER-LIGAND FREE ENERGY PREDICTED BY IDOCK:   -7.14 KCAL/MOL
REMARK 924 INTRA-LIGAND FREE ENERGY PREDICTED BY IDOCK:    0.09 KCAL/MOL
REMARK 927      BINDING AFFINITY PREDICTED BY RF-SCORE:    0.00 PKD
ROOT
HETATM    1  C   UNK A   1      -6.752   7.837  63.824  1.00  0.00    -0.062 C  
HETATM    2  C   UNK A   1      -5.474   8.351  64.515  1.00  0.00    -0.047 C  
HETATM    3  C   UNK A   1      -5.712   9.829  64.796  1.00  0.00    -0.084 C  
HETATM    4  C   UNK A   1      -6.863  10.205  63.879  1.00  0.00    -0.106 C  
HETATM    5  C   UNK A   1      -7.776   8.982  63.907  1.00  0.00    -0.125 C  
HETATM    6  N   UNK A   1      -8.521   8.714  65.147  1.00  0.00    -0.174 N  
HETATM    7  C   UNK A   1      -9.642   9.400  65.613  1.00  0.00    -0.274 C  
HETATM    8  C   UNK A   1      -8.386   7.280  65.532  1.00  0.00    -0.133 C  
HETATM    9  C   UNK A   1      -7.888   6.955  66.954  1.00  0.00    -0.107 C  
HETATM   10  C   UNK A   1      -7.417   6.660  64.517  1.00  0.00    -0.094 C  
HETATM   11  O   UNK A   1     -10.284   8.912  66.551  1.00  0.00    -0.284 OA 
HETATM   12  O   UNK A   1      -7.624   8.047  67.710  1.00  0.00    -0.098 OA 
HETATM   13  O   UNK A   1      -7.702   5.823  67.364  1.00  0.00    -0.095 OA 
ENDROOT
BRANCH   7  14
HETATM   14  C   UNK A   1     -10.053  10.779  65.026  1.00  0.00    -0.313 C  
HETATM   15  C   UNK A   1     -10.046  10.706  63.490  1.00  0.00    -0.288 C  
BRANCH  14  16
HETATM   16  N   UNK A   1      -9.132  11.831  65.520  1.00  0.00    -0.415 NA 
HETATM   17  H   UNK A   1      -8.590  12.226  64.751  1.00  0.00     0.000 HD 
BRANCH  16  18
HETATM   18  C   UNK A   0      -9.820  12.911  66.292  1.00  0.00    -0.273 C  
BRANCH  18  19
HETATM   19  C   UNK A   0     -10.284  14.026  65.356  1.00  0.00    -0.368 C  
BRANCH  19  20
HETATM   20  C   UNK A   0      -9.756  15.423  65.715  1.00  0.00    -0.385 C  
BRANCH  20  21
HETATM   21  C   UNK A   0     -10.059  15.657  67.175  1.00  0.00    -0.256 A  
HETATM   22  C   UNK A   0     -11.385  15.700  67.625  1.00  0.00    -0.228 A  
HETATM   23  C   UNK A   0      -9.016  15.649  68.113  1.00  0.00    -0.179 A  
HETATM   24  C   UNK A   0     -11.666  15.682  68.990  1.00  0.00    -0.408 A  
HETATM   25  C   UNK A   0      -9.300  15.634  69.477  1.00  0.00    -0.263 A  
HETATM   26  C   UNK A   0     -10.622  15.633  69.914  1.00  0.00    -0.328 A  
ENDBRANCH  20  21
ENDBRANCH  19  20
ENDBRANCH  18  19
BRANCH  18  27
HETATM   27  C   UNK A   0     -11.010  12.314  67.070  1.00  0.00    -0.268 C  
HETATM   28  O   UNK A   0     -12.149  12.188  66.643  1.00  0.00    -0.622 OA 
BRANCH  27  29
HETATM   29  O   UNK A   0     -10.589  11.938  68.316  1.00  0.00    -0.198 OA 
BRANCH  29  30
HETATM   30  C   UNK A   0     -11.611  11.505  69.228  1.00  0.00    -0.322 C  
HETATM   31  C   UNK A   0     -11.218  10.206  69.908  1.00  0.00    -0.343 C  
ENDBRANCH  29  30
ENDBRANCH  27  29
ENDBRANCH  18  27
ENDBRANCH  16  18
ENDBRANCH  14  16
ENDBRANCH   7  14
TORSDOF 9
ENDMDL
MODEL      219
REMARK 921   NORMALIZED FREE ENERGY PREDICTED BY IDOCK:   -3.54 KCAL/MOL
REMARK 922        TOTAL FREE ENERGY PREDICTED BY IDOCK:   -7.03 KCAL/MOL
REMARK 923 INTER-LIGAND FREE ENERGY PREDICTED BY IDOCK:   -5.50 KCAL/MOL
REMARK 924 INTRA-LIGAND FREE ENERGY PREDICTED BY IDOCK:   -1.53 KCAL/MOL
REMARK 927      BINDING AFFINITY PREDICTED BY RF-SCORE:    0.00 PKD
ROOT
HETATM    1  C   UNK A   1      -6.450   6.682  65.747  1.00  0.00    -0.046 C  
HETATM    2  C   UNK A   1      -7.127   6.248  64.433  1.00  0.00    -0.057 C  
HETATM    3  C   UNK A   1      -8.339   5.419  64.837  1.00  0.00    -0.142 C  
HETATM    4  C   UNK A   1      -8.062   5.027  66.278  1.00  0.00    -0.108 C  
HETATM    5  C   UNK A   1      -7.403   6.264  66.881  1.00  0.00    -0.083 C  
HETATM    6  N   UNK A   1      -8.247   7.449  67.100  1.00  0.00    -0.117 N  
HETATM    7  C   UNK A   1      -9.195   7.624  68.109  1.00  0.00    -0.138 C  
HETATM    8  C   UNK A   1      -7.571   8.671  66.576  1.00  0.00    -0.088 C  
HETATM    9  C   UNK A   1      -8.344   9.555  65.578  1.00  0.00    -0.132 C  
HETATM   10  C   UNK A   1      -6.280   8.183  65.906  1.00  0.00    -0.045 C  
HETATM   11  O   UNK A   1      -9.656   8.757  68.294  1.00  0.00    -0.143 OA 
HETATM   12  O   UNK A   1      -9.587   9.102  65.286  1.00  0.00    -0.199 OA 
HETATM   13  O   UNK A   1      -7.879  10.551  65.054  1.00  0.00    -0.134 OA 
ENDROOT
BRANCH   7  14
HETATM   14  C   UNK A   1      -9.721   6.425  68.945  1.00  0.00    -0.126 C  
HETATM   15  C   UNK A   1     -11.249   6.526  69.084  1.00  0.00    -0.367 C  
BRANCH  14  16
HETATM   16  N   UNK A   1      -9.059   6.409  70.273  1.00  0.00    -0.154 NA 
HETATM   17  H   UNK A   1      -8.557   5.533  70.415  1.00  0.00     0.000 HD 
BRANCH  16  18
HETATM   18  C   UNK A   0      -8.158   7.580  70.504  1.00  0.00    -0.106 C  
BRANCH  18  19
HETATM   19  C   UNK A   0      -8.691   8.448  71.644  1.00  0.00    -0.240 C  
BRANCH  19  20
HETATM   20  C   UNK A   0      -9.857   7.827  72.428  1.00  0.00    -0.264 C  
BRANCH  20  21
HETATM   21  C   UNK A   0     -11.122   8.515  71.973  1.00  0.00    -0.412 A  
HETATM   22  C   UNK A   0     -12.366   8.118  72.481  1.00  0.00    -0.296 A  
HETATM   23  C   UNK A   0     -11.040   9.670  71.181  1.00  0.00    -0.444 A  
HETATM   24  C   UNK A   0     -13.501   8.891  72.246  1.00  0.00    -0.503 A  
HETATM   25  C   UNK A   0     -12.178  10.440  70.946  1.00  0.00    -0.484 A  
HETATM   26  C   UNK A   0     -13.402  10.060  71.492  1.00  0.00    -0.451 A  
ENDBRANCH  20  21
ENDBRANCH  19  20
ENDBRANCH  18  19
BRANCH  18  27
HETATM   27  C   UNK A   0      -6.731   7.084  70.810  1.00  0.00    -0.053 C  
HETATM   28  O   UNK A   0      -6.160   6.163  70.244  1.00  0.00    -0.028 OA 
BRANCH  27  29
HETATM   29  O   UNK A   0      -6.197   7.846  71.813  1.00  0.00    -0.038 OA 
BRANCH  29  30
HETATM   30  C   UNK A   0      -5.388   7.151  72.775  1.00  0.00    -0.037 C  
HETATM   31  C   UNK A   0      -6.230   6.664  73.941  1.00  0.00    -0.064 C  
ENDBRANCH  29  30
ENDBRANCH  27  29
ENDBRANCH  18  27
ENDBRANCH  16  18
ENDBRANCH  14  16
ENDBRANCH   7  14
TORSDOF 9
ENDMDL
MODEL      220
REMARK 921   NORMALIZED FREE ENERGY PREDICTED BY IDOCK:   -3.53 KCAL/MOL
REMARK 922        TOTAL FREE ENERGY PREDICTED BY IDOCK:   -7.02 KCAL/MOL
REMARK 923 INTER-LIGAND FREE ENERGY PREDICTED BY IDOCK:   -7.04 KCAL/MOL
REMARK 924 INTRA-LIGAND FREE ENERGY PREDICTED BY IDOCK:    0.02 KCAL/MOL
REMARK 927      BINDING AFFINITY PREDICTED BY RF-SCORE:    0.00 PKD
ROOT
HETATM    1  C   UNK A   1     -12.542  12.477  64.663  1.00  0.00    -0.507 C  
HETATM    2  C   UNK A   1     -12.408  13.643  63.663  1.00  0.00    -0.328 C  
HETATM    3  C   UNK A   1     -11.630  14.732  64.389  1.00  0.00    -0.304 C  
HETATM    4  C   UNK A   1     -11.752  14.366  65.858  1.00  0.00    -0.371 C  
HETATM    5  C   UNK A   1     -11.662  12.842  65.871  1.00  0.00    -0.399 C  
HETATM    6  N   UNK A   1     -10.358  12.232  65.567  1.00  0.00    -0.260 N  
HETATM    7  C   UNK A   1      -9.247  12.174  66.408  1.00  0.00    -0.207 C  
HETATM    8  C   UNK A   1     -10.519  11.138  64.568  1.00  0.00    -0.350 C  
HETATM    9  C   UNK A   1      -9.657  11.189  63.291  1.00  0.00    -0.351 C  
HETATM   10  C   UNK A   1     -11.999  11.150  64.163  1.00  0.00     0.732 C  
HETATM   11  O   UNK A   1      -8.309  11.433  66.093  1.00  0.00    -0.155 OA 
HETATM   12  O   UNK A   1      -8.828  12.258  63.227  1.00  0.00     0.454 OA 
HETATM   13  O   UNK A   1      -9.733  10.374  62.389  1.00  0.00    -0.224 OA 
ENDROOT
BRANCH   7  14
HETATM   14  C   UNK A   1      -9.144  13.061  67.680  1.00  0.00    -0.198 C  
HETATM   15  C   UNK A   1      -9.970  12.432  68.814  1.00  0.00    -0.040 C  
BRANCH  14  16
HETATM   16  N   UNK A   1      -9.608  14.436  67.373  1.00  0.00    -0.213 NA 
HETATM   17  H   UNK A   1     -10.623  14.501  67.452  1.00  0.00     0.000 HD 
BRANCH  16  18
HETATM   18  C   UNK A   0      -8.944  15.488  68.204  1.00  0.00    -0.179 C  
BRANCH  18  19
HETATM   19  C   UNK A   0      -9.717  15.710  69.504  1.00  0.00    -0.287 C  
BRANCH  19  20
HETATM   20  C   UNK A   0     -11.220  15.964  69.317  1.00  0.00    -0.335 C  
BRANCH  20  21
HETATM   21  C   UNK A   0     -11.922  15.425  70.540  1.00  0.00    -0.394 A  
HETATM   22  C   UNK A   0     -12.764  14.309  70.440  1.00  0.00    -0.355 A  
HETATM   23  C   UNK A   0     -11.593  15.925  71.809  1.00  0.00    -0.541 A  
HETATM   24  C   UNK A   0     -13.227  13.671  71.589  1.00  0.00    -0.447 A  
HETATM   25  C   UNK A   0     -12.060  15.286  72.956  1.00  0.00    -0.523 A  
HETATM   26  C   UNK A   0     -12.861  14.151  72.846  1.00  0.00    -0.433 A  
ENDBRANCH  20  21
ENDBRANCH  19  20
ENDBRANCH  18  19
BRANCH  18  27
HETATM   27  C   UNK A   0      -7.487  15.077  68.494  1.00  0.00    -0.119 C  
HETATM   28  O   UNK A   0      -6.613  14.908  67.654  1.00  0.00    -0.163 OA 
BRANCH  27  29
HETATM   29  O   UNK A   0      -7.320  14.936  69.844  1.00  0.00    -0.172 OA 
BRANCH  29  30
HETATM   30  C   UNK A   0      -5.970  15.010  70.328  1.00  0.00    -0.150 C  
HETATM   31  C   UNK A   0      -5.752  14.044  71.479  1.00  0.00    -0.226 C  
ENDBRANCH  29  30
ENDBRANCH  27  29
ENDBRANCH  18  27
ENDBRANCH  16  18
ENDBRANCH  14  16
ENDBRANCH   7  14
TORSDOF 9
ENDMDL
MODEL      221
REMARK 921   NORMALIZED FREE ENERGY PREDICTED BY IDOCK:   -3.53 KCAL/MOL
REMARK 922        TOTAL FREE ENERGY PREDICTED BY IDOCK:   -7.01 KCAL/MOL
REMARK 923 INTER-LIGAND FREE ENERGY PREDICTED BY IDOCK:   -7.57 KCAL/MOL
REMARK 924 INTRA-LIGAND FREE ENERGY PREDICTED BY IDOCK:    0.56 KCAL/MOL
REMARK 927      BINDING AFFINITY PREDICTED BY RF-SCORE:    0.00 PKD
ROOT
HETATM    1  C   UNK A   1     -14.406  13.932  71.389  1.00  0.00     0.159 C  
HETATM    2  C   UNK A   1     -14.107  12.844  72.439  1.00  0.00    -0.205 C  
HETATM    3  C   UNK A   1     -12.932  12.043  71.892  1.00  0.00    -0.428 C  
HETATM    4  C   UNK A   1     -12.906  12.377  70.411  1.00  0.00     0.183 C  
HETATM    5  C   UNK A   1     -13.267  13.860  70.358  1.00  0.00     0.242 C  
HETATM    6  N   UNK A   1     -12.270  14.823  70.851  1.00  0.00    -0.295 N  
HETATM    7  C   UNK A   1     -11.099  15.218  70.203  1.00  0.00    -0.293 C  
HETATM    8  C   UNK A   1     -12.911  15.807  71.769  1.00  0.00    -0.450 C  
HETATM    9  C   UNK A   1     -12.300  15.995  73.171  1.00  0.00    -0.531 C  
HETATM   10  C   UNK A   1     -14.368  15.353  71.923  1.00  0.00    -0.649 C  
HETATM   11  O   UNK A   1     -10.486  16.199  70.641  1.00  0.00     0.030 OA 
HETATM   12  O   UNK A   1     -11.218  15.217  73.411  1.00  0.00     0.148 OA 
HETATM   13  O   UNK A   1     -12.762  16.739  74.017  1.00  0.00    -0.522 OA 
ENDROOT
BRANCH   7  14
HETATM   14  C   UNK A   1     -10.527  14.419  69.000  1.00  0.00    -0.222 C  
HETATM   15  C   UNK A   1     -11.040  15.031  67.686  1.00  0.00    -0.317 C  
BRANCH  14  16
HETATM   16  N   UNK A   1     -10.911  12.991  69.115  1.00  0.00    -0.409 NA 
HETATM   17  H   UNK A   1     -11.904  12.868  68.919  1.00  0.00     0.000 HD 
BRANCH  16  18
HETATM   18  C   UNK A   0     -10.085  12.081  68.263  1.00  0.00    -0.201 C  
BRANCH  18  19
HETATM   19  C   UNK A   0      -9.835  10.756  68.982  1.00  0.00    -0.208 C  
BRANCH  19  20
HETATM   20  C   UNK A   0     -11.090   9.896  69.192  1.00  0.00    -0.197 C  
BRANCH  20  21
HETATM   21  C   UNK A   0     -10.836   9.015  70.391  1.00  0.00    -0.284 A  
HETATM   22  C   UNK A   0      -9.689   9.197  71.174  1.00  0.00    -0.360 A  
HETATM   23  C   UNK A   0     -11.835   8.134  70.833  1.00  0.00    -0.232 A  
HETATM   24  C   UNK A   0      -9.564   8.552  72.403  1.00  0.00    -0.356 A  
HETATM   25  C   UNK A   0     -11.706   7.487  72.060  1.00  0.00    -0.333 A  
HETATM   26  C   UNK A   0     -10.582   7.709  72.851  1.00  0.00    -0.411 A  
ENDBRANCH  20  21
ENDBRANCH  19  20
ENDBRANCH  18  19
BRANCH  18  27
HETATM   27  C   UNK A   0     -10.793  11.850  66.913  1.00  0.00    -0.263 C  
HETATM   28  O   UNK A   0     -12.002  11.762  66.748  1.00  0.00    -0.584 OA 
BRANCH  27  29
HETATM   29  O   UNK A   0      -9.854  11.766  65.922  1.00  0.00    -0.226 OA 
BRANCH  29  30
HETATM   30  C   UNK A   0      -9.485  10.441  65.508  1.00  0.00    -0.215 C  
HETATM   31  C   UNK A   0      -8.025  10.162  65.816  1.00  0.00    -0.140 C  
ENDBRANCH  29  30
ENDBRANCH  27  29
ENDBRANCH  18  27
ENDBRANCH  16  18
ENDBRANCH  14  16
ENDBRANCH   7  14
TORSDOF 9
ENDMDL
MODEL      222
REMARK 921   NORMALIZED FREE ENERGY PREDICTED BY IDOCK:   -3.43 KCAL/MOL
REMARK 922        TOTAL FREE ENERGY PREDICTED BY IDOCK:   -6.86 KCAL/MOL
REMARK 923 INTER-LIGAND FREE ENERGY PREDICTED BY IDOCK:   -6.46 KCAL/MOL
REMARK 924 INTRA-LIGAND FREE ENERGY PREDICTED BY IDOCK:   -0.41 KCAL/MOL
REMARK 927      BINDING AFFINITY PREDICTED BY RF-SCORE:    0.00 PKD
ROOT
HETATM    1  C   UNK A   1     -11.950  15.079  65.858  1.00  0.00     0.061 C  
HETATM    2  C   UNK A   1     -10.673  15.472  65.090  1.00  0.00    -0.460 C  
HETATM    3  C   UNK A   1      -9.506  15.080  65.987  1.00  0.00    -0.337 C  
HETATM    4  C   UNK A   1     -10.126  14.924  67.365  1.00  0.00    -0.228 C  
HETATM    5  C   UNK A   1     -11.485  14.285  67.090  1.00  0.00    -0.359 C  
HETATM    6  N   UNK A   1     -11.503  12.882  66.646  1.00  0.00    -0.324 N  
HETATM    7  C   UNK A   1     -11.278  11.754  67.434  1.00  0.00    -0.297 C  
HETATM    8  C   UNK A   1     -12.399  12.725  65.465  1.00  0.00    -0.434 C  
HETATM    9  C   UNK A   1     -11.819  12.063  64.199  1.00  0.00    -0.373 C  
HETATM   10  C   UNK A   1     -12.876  14.139  65.106  1.00  0.00    -0.321 C  
HETATM   11  O   UNK A   1     -11.551  10.643  66.963  1.00  0.00    -0.254 OA 
HETATM   12  O   UNK A   1     -10.523  11.690  64.315  1.00  0.00    -0.281 OA 
HETATM   13  O   UNK A   1     -12.444  11.920  63.163  1.00  0.00    -0.515 OA 
ENDROOT
BRANCH   7  14
HETATM   14  C   UNK A   1     -10.638  11.863  68.845  1.00  0.00    -0.173 C  
HETATM   15  C   UNK A   1     -11.347  12.967  69.648  1.00  0.00    -0.166 C  
BRANCH  14  16
HETATM   16  N   UNK A   1      -9.186  12.137  68.720  1.00  0.00    -0.398 NA 
HETATM   17  H   UNK A   1      -8.898  12.865  69.374  1.00  0.00     0.000 HD 
BRANCH  16  18
HETATM   18  C   UNK A   0      -8.334  10.918  68.876  1.00  0.00    -0.139 C  
BRANCH  18  19
HETATM   19  C   UNK A   0      -7.956  10.351  67.508  1.00  0.00    -0.106 C  
BRANCH  19  20
HETATM   20  C   UNK A   0      -8.429   8.910  67.260  1.00  0.00    -0.114 C  
BRANCH  20  21
HETATM   21  C   UNK A   0      -8.318   8.649  65.778  1.00  0.00    -0.148 A  
HETATM   22  C   UNK A   0      -7.862   9.653  64.914  1.00  0.00    -0.123 A  
HETATM   23  C   UNK A   0      -8.497   7.348  65.285  1.00  0.00    -0.066 A  
HETATM   24  C   UNK A   0      -7.538   9.351  63.592  1.00  0.00    -0.116 A  
HETATM   25  C   UNK A   0      -8.176   7.050  63.962  1.00  0.00     0.075 A  
HETATM   26  C   UNK A   0      -7.681   8.045  63.123  1.00  0.00    -0.139 A  
ENDBRANCH  20  21
ENDBRANCH  19  20
ENDBRANCH  18  19
BRANCH  18  27
HETATM   27  C   UNK A   0      -7.074  11.266  69.694  1.00  0.00    -0.007 C  
HETATM   28  O   UNK A   0      -6.588  10.578  70.581  1.00  0.00    -0.313 OA 
BRANCH  27  29
HETATM   29  O   UNK A   0      -6.579  12.467  69.266  1.00  0.00    -0.102 OA 
BRANCH  29  30
HETATM   30  C   UNK A   0      -5.484  13.007  70.022  1.00  0.00    -0.112 C  
HETATM   31  C   UNK A   0      -5.958  14.107  70.956  1.00  0.00    -0.187 C  
ENDBRANCH  29  30
ENDBRANCH  27  29
ENDBRANCH  18  27
ENDBRANCH  16  18
ENDBRANCH  14  16
ENDBRANCH   7  14
TORSDOF 9
ENDMDL
MODEL      223
REMARK 921   NORMALIZED FREE ENERGY PREDICTED BY IDOCK:   -3.41 KCAL/MOL
REMARK 922        TOTAL FREE ENERGY PREDICTED BY IDOCK:   -6.84 KCAL/MOL
REMARK 923 INTER-LIGAND FREE ENERGY PREDICTED BY IDOCK:   -5.43 KCAL/MOL
REMARK 924 INTRA-LIGAND FREE ENERGY PREDICTED BY IDOCK:   -1.40 KCAL/MOL
REMARK 927      BINDING AFFINITY PREDICTED BY RF-SCORE:    0.00 PKD
ROOT
HETATM    1  C   UNK A   1     -11.004  14.458  66.700  1.00  0.00    -0.318 C  
HETATM    2  C   UNK A   1     -12.440  14.244  66.183  1.00  0.00    -0.362 C  
HETATM    3  C   UNK A   1     -12.341  13.191  65.087  1.00  0.00    -0.525 C  
HETATM    4  C   UNK A   1     -10.871  13.186  64.704  1.00  0.00    -0.383 C  
HETATM    5  C   UNK A   1     -10.140  13.376  66.029  1.00  0.00    -0.304 C  
HETATM    6  N   UNK A   1     -10.154  12.257  66.985  1.00  0.00    -0.212 N  
HETATM    7  C   UNK A   1      -9.418  11.076  66.898  1.00  0.00    -0.177 C  
HETATM    8  C   UNK A   1     -10.509  12.745  68.348  1.00  0.00    -0.243 C  
HETATM    9  C   UNK A   1     -11.681  12.062  69.080  1.00  0.00    -0.330 C  
HETATM   10  C   UNK A   1     -10.828  14.237  68.192  1.00  0.00    -0.253 C  
HETATM   11  O   UNK A   1      -9.369  10.338  67.890  1.00  0.00    -0.137 OA 
HETATM   12  O   UNK A   1     -12.268  11.067  68.374  1.00  0.00    -0.586 OA 
HETATM   13  O   UNK A   1     -12.085  12.403  70.177  1.00  0.00    -0.335 OA 
ENDROOT
BRANCH   7  14
HETATM   14  C   UNK A   1      -8.723  10.646  65.576  1.00  0.00    -0.188 C  
HETATM   15  C   UNK A   1      -9.770  10.069  64.609  1.00  0.00    -0.339 C  
BRANCH  14  16
HETATM   16  N   UNK A   1      -7.655   9.659  65.866  1.00  0.00    -0.100 NA 
HETATM   17  H   UNK A   1      -7.959   8.717  65.622  1.00  0.00     0.000 HD 
BRANCH  16  18
HETATM   18  C   UNK A   0      -6.351   9.982  65.210  1.00  0.00    -0.107 C  
BRANCH  18  19
HETATM   19  C   UNK A   0      -5.210   9.917  66.226  1.00  0.00    -0.043 C  
BRANCH  19  20
HETATM   20  C   UNK A   0      -5.549  10.501  67.605  1.00  0.00    -0.044 C  
BRANCH  20  21
HETATM   21  C   UNK A   0      -5.262   9.430  68.630  1.00  0.00    -0.034 A  
HETATM   22  C   UNK A   0      -5.243   9.743  69.995  1.00  0.00    -0.032 A  
HETATM   23  C   UNK A   0      -5.195   8.086  68.232  1.00  0.00    -0.032 A  
HETATM   24  C   UNK A   0      -5.211   8.728  70.950  1.00  0.00    -0.028 A  
HETATM   25  C   UNK A   0      -5.159   7.074  69.189  1.00  0.00    -0.014 A  
HETATM   26  C   UNK A   0      -5.185   7.394  70.545  1.00  0.00    -0.023 A  
ENDBRANCH  20  21
ENDBRANCH  19  20
ENDBRANCH  18  19
BRANCH  18  27
HETATM   27  C   UNK A   0      -6.103   9.009  64.040  1.00  0.00    -0.072 C  
HETATM   28  O   UNK A   0      -5.194   9.090  63.226  1.00  0.00    -0.066 OA 
BRANCH  27  29
HETATM   29  O   UNK A   0      -7.059   8.030  64.061  1.00  0.00    -0.077 OA 
BRANCH  29  30
HETATM   30  C   UNK A   0      -6.603   6.693  63.804  1.00  0.00    -0.044 C  
HETATM   31  C   UNK A   0      -5.796   6.160  64.975  1.00  0.00    -0.025 C  
ENDBRANCH  29  30
ENDBRANCH  27  29
ENDBRANCH  18  27
ENDBRANCH  16  18
ENDBRANCH  14  16
ENDBRANCH   7  14
TORSDOF 9
ENDMDL
MODEL      224
REMARK 921   NORMALIZED FREE ENERGY PREDICTED BY IDOCK:   -3.41 KCAL/MOL
REMARK 922        TOTAL FREE ENERGY PREDICTED BY IDOCK:   -6.83 KCAL/MOL
REMARK 923 INTER-LIGAND FREE ENERGY PREDICTED BY IDOCK:   -7.38 KCAL/MOL
REMARK 924 INTRA-LIGAND FREE ENERGY PREDICTED BY IDOCK:    0.55 KCAL/MOL
REMARK 927      BINDING AFFINITY PREDICTED BY RF-SCORE:    0.00 PKD
ROOT
HETATM    1  C   UNK A   1     -10.940   7.847  72.565  1.00  0.00    -0.412 C  
HETATM    2  C   UNK A   1     -12.368   7.274  72.463  1.00  0.00     0.061 C  
HETATM    3  C   UNK A   1     -13.176   8.296  71.675  1.00  0.00    -0.349 C  
HETATM    4  C   UNK A   1     -12.355   9.571  71.759  1.00  0.00    -0.474 C  
HETATM    5  C   UNK A   1     -10.910   9.090  71.658  1.00  0.00    -0.366 C  
HETATM    6  N   UNK A   1     -10.449   8.579  70.358  1.00  0.00    -0.202 N  
HETATM    7  C   UNK A   1     -10.139   9.333  69.226  1.00  0.00    -0.200 C  
HETATM    8  C   UNK A   1      -9.732   7.284  70.535  1.00  0.00    -0.176 C  
HETATM    9  C   UNK A   1     -10.205   6.074  69.704  1.00  0.00    -0.208 C  
HETATM   10  C   UNK A   1      -9.853   6.935  72.024  1.00  0.00    -0.172 C  
HETATM   11  O   UNK A   1      -9.552   8.777  68.290  1.00  0.00    -0.143 OA 
HETATM   12  O   UNK A   1     -11.250   6.341  68.885  1.00  0.00    -0.370 OA 
HETATM   13  O   UNK A   1      -9.722   4.960  69.796  1.00  0.00    -0.154 OA 
ENDROOT
BRANCH   7  14
HETATM   14  C   UNK A   1     -10.571  10.820  69.098  1.00  0.00    -0.222 C  
HETATM   15  C   UNK A   1     -11.960  10.898  68.444  1.00  0.00    -0.081 C  
BRANCH  14  16
HETATM   16  N   UNK A   1      -9.562  11.571  68.312  1.00  0.00    -0.184 NA 
HETATM   17  H   UNK A   1      -8.719  11.013  68.180  1.00  0.00     0.000 HD 
BRANCH  16  18
HETATM   18  C   UNK A   0     -10.079  12.069  67.000  1.00  0.00    -0.203 C  
BRANCH  18  19
HETATM   19  C   UNK A   0     -10.030  13.596  66.949  1.00  0.00    -0.260 C  
BRANCH  19  20
HETATM   20  C   UNK A   0     -11.384  14.287  67.167  1.00  0.00    -0.352 C  
BRANCH  20  21
HETATM   21  C   UNK A   0     -11.526  14.542  68.648  1.00  0.00    -0.321 A  
HETATM   22  C   UNK A   0     -11.160  15.781  69.191  1.00  0.00    -0.283 A  
HETATM   23  C   UNK A   0     -12.192  13.608  69.456  1.00  0.00    -0.316 A  
HETATM   24  C   UNK A   0     -11.502  16.102  70.504  1.00  0.00    -0.363 A  
HETATM   25  C   UNK A   0     -12.529  13.931  70.769  1.00  0.00    -0.445 A  
HETATM   26  C   UNK A   0     -12.200  15.182  71.286  1.00  0.00    -0.395 A  
ENDBRANCH  20  21
ENDBRANCH  19  20
ENDBRANCH  18  19
BRANCH  18  27
HETATM   27  C   UNK A   0      -9.256  11.453  65.851  1.00  0.00    -0.216 C  
HETATM   28  O   UNK A   0      -9.564  11.466  64.667  1.00  0.00    -0.232 OA 
BRANCH  27  29
HETATM   29  O   UNK A   0      -8.118  10.894  66.363  1.00  0.00    -0.153 OA 
BRANCH  29  30
HETATM   30  C   UNK A   0      -8.087   9.460  66.423  1.00  0.00    -0.108 C  
HETATM   31  C   UNK A   0      -6.984   8.903  65.540  1.00  0.00    -0.080 C  
ENDBRANCH  29  30
ENDBRANCH  27  29
ENDBRANCH  18  27
ENDBRANCH  16  18
ENDBRANCH  14  16
ENDBRANCH   7  14
TORSDOF 9
ENDMDL
MODEL      225
REMARK 921   NORMALIZED FREE ENERGY PREDICTED BY IDOCK:   -3.40 KCAL/MOL
REMARK 922        TOTAL FREE ENERGY PREDICTED BY IDOCK:   -6.81 KCAL/MOL
REMARK 923 INTER-LIGAND FREE ENERGY PREDICTED BY IDOCK:   -6.35 KCAL/MOL
REMARK 924 INTRA-LIGAND FREE ENERGY PREDICTED BY IDOCK:   -0.46 KCAL/MOL
REMARK 927      BINDING AFFINITY PREDICTED BY RF-SCORE:    0.00 PKD
ROOT
HETATM    1  C   UNK A   1      -5.988   8.741  66.550  1.00  0.00    -0.052 C  
HETATM    2  C   UNK A   1      -6.663   7.356  66.509  1.00  0.00    -0.061 C  
HETATM    3  C   UNK A   1      -7.949   7.490  67.314  1.00  0.00    -0.118 C  
HETATM    4  C   UNK A   1      -7.743   8.745  68.145  1.00  0.00    -0.101 C  
HETATM    5  C   UNK A   1      -7.002   9.694  67.207  1.00  0.00    -0.085 C  
HETATM    6  N   UNK A   1      -7.752  10.262  66.076  1.00  0.00    -0.124 N  
HETATM    7  C   UNK A   1      -8.709  11.275  66.132  1.00  0.00    -0.179 C  
HETATM    8  C   UNK A   1      -6.965  10.132  64.816  1.00  0.00    -0.126 C  
HETATM    9  C   UNK A   1      -7.637   9.447  63.609  1.00  0.00    -0.116 C  
HETATM   10  C   UNK A   1      -5.701   9.346  65.187  1.00  0.00    -0.058 C  
HETATM   11  O   UNK A   1      -9.081  11.794  65.073  1.00  0.00     0.017 OA 
HETATM   12  O   UNK A   1      -8.904   9.031  63.845  1.00  0.00    -0.145 OA 
HETATM   13  O   UNK A   1      -7.079   9.249  62.545  1.00  0.00    -0.102 OA 
ENDROOT
BRANCH   7  14
HETATM   14  C   UNK A   1      -9.353  11.710  67.478  1.00  0.00    -0.168 C  
HETATM   15  C   UNK A   1      -8.257  12.200  68.438  1.00  0.00    -0.145 C  
BRANCH  14  16
HETATM   16  N   UNK A   1     -10.113  10.577  68.061  1.00  0.00    -0.161 NA 
HETATM   17  H   UNK A   1      -9.637  10.209  68.885  1.00  0.00     0.000 HD 
BRANCH  16  18
HETATM   18  C   UNK A   0     -11.535  10.915  68.378  1.00  0.00    -0.304 C  
BRANCH  18  19
HETATM   19  C   UNK A   0     -11.864  10.543  69.824  1.00  0.00    -0.329 C  
BRANCH  19  20
HETATM   20  C   UNK A   0     -10.668  10.031  70.639  1.00  0.00    -0.325 C  
BRANCH  20  21
HETATM   21  C   UNK A   0     -10.975   8.609  71.043  1.00  0.00    -0.314 A  
HETATM   22  C   UNK A   0     -11.009   7.591  70.081  1.00  0.00    -0.267 A  
HETATM   23  C   UNK A   0     -11.048   8.271  72.403  1.00  0.00    -0.447 A  
HETATM   24  C   UNK A   0     -11.060   6.254  70.472  1.00  0.00    -0.399 A  
HETATM   25  C   UNK A   0     -11.103   6.934  72.791  1.00  0.00    -0.304 A  
HETATM   26  C   UNK A   0     -11.091   5.928  71.828  1.00  0.00    -0.324 A  
ENDBRANCH  20  21
ENDBRANCH  19  20
ENDBRANCH  18  19
BRANCH  18  27
HETATM   27  C   UNK A   0     -11.780  12.416  68.126  1.00  0.00    -0.353 C  
HETATM   28  O   UNK A   0     -12.175  12.908  67.078  1.00  0.00    -0.391 OA 
BRANCH  27  29
HETATM   29  O   UNK A   0     -11.494  13.115  69.267  1.00  0.00    -0.273 OA 
BRANCH  29  30
HETATM   30  C   UNK A   0     -11.129  14.493  69.092  1.00  0.00    -0.263 C  
HETATM   31  C   UNK A   0     -11.538  15.321  70.298  1.00  0.00    -0.332 C  
ENDBRANCH  29  30
ENDBRANCH  27  29
ENDBRANCH  18  27
ENDBRANCH  16  18
ENDBRANCH  14  16
ENDBRANCH   7  14
TORSDOF 9
ENDMDL
MODEL      226
REMARK 921   NORMALIZED FREE ENERGY PREDICTED BY IDOCK:   -3.38 KCAL/MOL
REMARK 922        TOTAL FREE ENERGY PREDICTED BY IDOCK:   -6.79 KCAL/MOL
REMARK 923 INTER-LIGAND FREE ENERGY PREDICTED BY IDOCK:   -6.87 KCAL/MOL
REMARK 924 INTRA-LIGAND FREE ENERGY PREDICTED BY IDOCK:    0.09 KCAL/MOL
REMARK 927      BINDING AFFINITY PREDICTED BY RF-SCORE:    0.00 PKD
ROOT
HETATM    1  C   UNK A   1      -6.232   8.685  66.392  1.00  0.00    -0.060 C  
HETATM    2  C   UNK A   1      -5.628   9.346  67.647  1.00  0.00    -0.037 C  
HETATM    3  C   UNK A   1      -6.331  10.689  67.795  1.00  0.00    -0.059 C  
HETATM    4  C   UNK A   1      -6.938  10.948  66.427  1.00  0.00    -0.134 C  
HETATM    5  C   UNK A   1      -7.413   9.574  65.964  1.00  0.00    -0.100 C  
HETATM    6  N   UNK A   1      -8.575   8.986  66.648  1.00  0.00    -0.125 N  
HETATM    7  C   UNK A   1      -9.911   9.356  66.491  1.00  0.00    -0.269 C  
HETATM    8  C   UNK A   1      -8.296   7.570  67.021  1.00  0.00    -0.121 C  
HETATM    9  C   UNK A   1      -8.494   7.155  68.492  1.00  0.00    -0.125 C  
HETATM   10  C   UNK A   1      -6.835   7.311  66.629  1.00  0.00    -0.065 C  
HETATM   11  O   UNK A   1     -10.786   8.619  66.963  1.00  0.00    -0.271 OA 
HETATM   12  O   UNK A   1      -8.913   8.160  69.298  1.00  0.00    -0.146 OA 
HETATM   13  O   UNK A   1      -8.258   6.039  68.919  1.00  0.00    -0.103 OA 
ENDROOT
BRANCH   7  14
HETATM   14  C   UNK A   1     -10.309  10.691  65.803  1.00  0.00    -0.219 C  
HETATM   15  C   UNK A   1      -9.996  10.607  64.300  1.00  0.00    -0.413 C  
BRANCH  14  16
HETATM   16  N   UNK A   1      -9.590  11.821  66.441  1.00  0.00    -0.212 NA 
HETATM   17  H   UNK A   1      -8.897  12.213  65.804  1.00  0.00     0.000 HD 
BRANCH  16  18
HETATM   18  C   UNK A   0     -10.499  12.890  66.958  1.00  0.00    -0.238 C  
BRANCH  18  19
HETATM   19  C   UNK A   0     -11.422  13.390  65.847  1.00  0.00    -0.344 C  
BRANCH  19  20
HETATM   20  C   UNK A   0     -10.740  14.292  64.807  1.00  0.00    -0.435 C  
BRANCH  20  21
HETATM   21  C   UNK A   0     -10.223  15.508  65.537  1.00  0.00    -0.415 A  
HETATM   22  C   UNK A   0      -8.957  15.489  66.137  1.00  0.00    -0.329 A  
HETATM   23  C   UNK A   0     -10.929  16.718  65.461  1.00  0.00    -0.033 A  
HETATM   24  C   UNK A   0      -8.382  16.669  66.606  1.00  0.00    -0.296 A  
HETATM   25  C   UNK A   0     -10.353  17.896  65.934  1.00  0.00    -0.259 A  
HETATM   26  C   UNK A   0      -9.076  17.874  66.489  1.00  0.00    -0.276 A  
ENDBRANCH  20  21
ENDBRANCH  19  20
ENDBRANCH  18  19
BRANCH  18  27
HETATM   27  C   UNK A   0     -11.315  12.346  68.148  1.00  0.00    -0.291 C  
HETATM   28  O   UNK A   0     -12.147  11.452  68.092  1.00  0.00    -0.623 OA 
BRANCH  27  29
HETATM   29  O   UNK A   0     -10.953  13.018  69.284  1.00  0.00    -0.181 OA 
BRANCH  29  30
HETATM   30  C   UNK A   0     -11.889  13.994  69.768  1.00  0.00    -0.324 C  
HETATM   31  C   UNK A   0     -11.752  15.301  69.007  1.00  0.00    -0.368 C  
ENDBRANCH  29  30
ENDBRANCH  27  29
ENDBRANCH  18  27
ENDBRANCH  16  18
ENDBRANCH  14  16
ENDBRANCH   7  14
TORSDOF 9
ENDMDL
MODEL      227
REMARK 921   NORMALIZED FREE ENERGY PREDICTED BY IDOCK:   -3.37 KCAL/MOL
REMARK 922        TOTAL FREE ENERGY PREDICTED BY IDOCK:   -6.77 KCAL/MOL
REMARK 923 INTER-LIGAND FREE ENERGY PREDICTED BY IDOCK:   -5.02 KCAL/MOL
REMARK 924 INTRA-LIGAND FREE ENERGY PREDICTED BY IDOCK:   -1.75 KCAL/MOL
REMARK 927      BINDING AFFINITY PREDICTED BY RF-SCORE:    0.00 PKD
ROOT
HETATM    1  C   UNK A   1      -9.537  11.244  67.379  1.00  0.00    -0.182 C  
HETATM    2  C   UNK A   1      -8.648  12.466  67.072  1.00  0.00    -0.191 C  
HETATM    3  C   UNK A   1      -7.224  11.935  66.968  1.00  0.00    -0.118 C  
HETATM    4  C   UNK A   1      -7.277  10.581  67.654  1.00  0.00    -0.086 C  
HETATM    5  C   UNK A   1      -8.631  10.008  67.243  1.00  0.00    -0.125 C  
HETATM    6  N   UNK A   1      -8.798   9.588  65.843  1.00  0.00    -0.155 N  
HETATM    7  C   UNK A   1      -8.278   8.439  65.248  1.00  0.00    -0.151 C  
HETATM    8  C   UNK A   1     -10.071  10.130  65.288  1.00  0.00    -0.274 C  
HETATM    9  C   UNK A   1     -10.005  10.942  63.979  1.00  0.00    -0.344 C  
HETATM   10  C   UNK A   1     -10.666  11.019  66.389  1.00  0.00    -0.286 C  
HETATM   11  O   UNK A   1      -8.695   8.114  64.129  1.00  0.00     0.101 OA 
HETATM   12  O   UNK A   1      -8.756  11.070  63.472  1.00  0.00    -0.105 OA 
HETATM   13  O   UNK A   1     -10.972  11.466  63.457  1.00  0.00    -0.398 OA 
ENDROOT
BRANCH   7  14
HETATM   14  C   UNK A   1      -7.154   7.610  65.928  1.00  0.00    -0.065 C  
HETATM   15  C   UNK A   1      -5.846   7.770  65.137  1.00  0.00    -0.038 C  
BRANCH  14  16
HETATM   16  N   UNK A   1      -7.560   6.186  66.014  1.00  0.00    -0.085 NA 
HETATM   17  H   UNK A   1      -6.924   5.596  65.479  1.00  0.00     0.000 HD 
BRANCH  16  18
HETATM   18  C   UNK A   0      -7.689   5.687  67.419  1.00  0.00    -0.100 C  
BRANCH  18  19
HETATM   19  C   UNK A   0      -8.599   6.609  68.232  1.00  0.00    -0.119 C  
BRANCH  19  20
HETATM   20  C   UNK A   0      -8.148   6.833  69.683  1.00  0.00    -0.126 C  
BRANCH  20  21
HETATM   21  C   UNK A   0      -9.202   7.680  70.355  1.00  0.00    -0.156 A  
HETATM   22  C   UNK A   0     -10.290   8.170  69.622  1.00  0.00    -0.221 A  
HETATM   23  C   UNK A   0      -9.192   7.827  71.750  1.00  0.00    -0.177 A  
HETATM   24  C   UNK A   0     -11.376   8.750  70.275  1.00  0.00    -0.162 A  
HETATM   25  C   UNK A   0     -10.277   8.411  72.401  1.00  0.00    -0.399 A  
HETATM   26  C   UNK A   0     -11.374   8.855  71.667  1.00  0.00    -0.407 A  
ENDBRANCH  20  21
ENDBRANCH  19  20
ENDBRANCH  18  19
BRANCH  18  27
HETATM   27  C   UNK A   0      -8.234   4.245  67.409  1.00  0.00    -0.099 C  
HETATM   28  O   UNK A   0      -8.635   3.641  66.425  1.00  0.00    -0.108 OA 
BRANCH  27  29
HETATM   29  O   UNK A   0      -8.189   3.740  68.680  1.00  0.00    -0.073 OA 
BRANCH  29  30
HETATM   30  C   UNK A   0      -9.441   3.303  69.234  1.00  0.00    -0.129 C  
HETATM   31  C   UNK A   0      -9.473   3.513  70.737  1.00  0.00    -0.240 C  
ENDBRANCH  29  30
ENDBRANCH  27  29
ENDBRANCH  18  27
ENDBRANCH  16  18
ENDBRANCH  14  16
ENDBRANCH   7  14
TORSDOF 9
ENDMDL
MODEL      228
REMARK 921   NORMALIZED FREE ENERGY PREDICTED BY IDOCK:   -3.32 KCAL/MOL
REMARK 922        TOTAL FREE ENERGY PREDICTED BY IDOCK:   -6.70 KCAL/MOL
REMARK 923 INTER-LIGAND FREE ENERGY PREDICTED BY IDOCK:   -6.59 KCAL/MOL
REMARK 924 INTRA-LIGAND FREE ENERGY PREDICTED BY IDOCK:   -0.11 KCAL/MOL
REMARK 927      BINDING AFFINITY PREDICTED BY RF-SCORE:    0.00 PKD
ROOT
HETATM    1  C   UNK A   1      -7.036   7.962  68.862  1.00  0.00    -0.074 C  
HETATM    2  C   UNK A   1      -7.484   7.993  70.337  1.00  0.00    -0.075 C  
HETATM    3  C   UNK A   1      -7.611   9.465  70.707  1.00  0.00    -0.138 C  
HETATM    4  C   UNK A   1      -6.815  10.192  69.637  1.00  0.00    -0.087 C  
HETATM    5  C   UNK A   1      -7.113   9.414  68.358  1.00  0.00    -0.072 C  
HETATM    6  N   UNK A   1      -8.465   9.528  67.788  1.00  0.00    -0.119 N  
HETATM    7  C   UNK A   1      -8.987  10.618  67.091  1.00  0.00    -0.136 C  
HETATM    8  C   UNK A   1      -9.000   8.178  67.451  1.00  0.00    -0.137 C  
HETATM    9  C   UNK A   1     -10.373   7.779  68.027  1.00  0.00    -0.209 C  
HETATM   10  C   UNK A   1      -7.950   7.173  67.940  1.00  0.00    -0.115 C  
HETATM   11  O   UNK A   1     -10.054  10.471  66.483  1.00  0.00    -0.210 OA 
HETATM   12  O   UNK A   1     -10.948   8.733  68.796  1.00  0.00    -0.048 OA 
HETATM   13  O   UNK A   1     -10.890   6.690  67.853  1.00  0.00    -0.246 OA 
ENDROOT
BRANCH   7  14
HETATM   14  C   UNK A   1      -8.295  12.008  67.121  1.00  0.00    -0.181 C  
HETATM   15  C   UNK A   1      -6.770  11.826  67.050  1.00  0.00    -0.139 C  
BRANCH  14  16
HETATM   16  N   UNK A   1      -8.694  12.743  68.347  1.00  0.00    -0.304 NA 
HETATM   17  H   UNK A   1      -8.020  12.587  69.096  1.00  0.00     0.000 HD 
BRANCH  16  18
HETATM   18  C   UNK A   0      -8.907  14.206  68.121  1.00  0.00    -0.183 C  
BRANCH  18  19
HETATM   19  C   UNK A   0      -9.134  14.491  66.637  1.00  0.00    -0.277 C  
BRANCH  19  20
HETATM   20  C   UNK A   0     -10.583  14.841  66.267  1.00  0.00    -0.306 C  
BRANCH  20  21
HETATM   21  C   UNK A   0     -11.112  13.719  65.408  1.00  0.00    -0.304 A  
HETATM   22  C   UNK A   0     -12.456  13.334  65.495  1.00  0.00    -0.531 A  
HETATM   23  C   UNK A   0     -10.308  13.181  64.392  1.00  0.00    -0.390 A  
HETATM   24  C   UNK A   0     -13.003  12.467  64.550  1.00  0.00    -0.215 A  
HETATM   25  C   UNK A   0     -10.857  12.311  63.451  1.00  0.00    -0.457 A  
HETATM   26  C   UNK A   0     -12.205  11.970  63.520  1.00  0.00    -0.653 A  
ENDBRANCH  20  21
ENDBRANCH  19  20
ENDBRANCH  18  19
BRANCH  18  27
HETATM   27  C   UNK A   0     -10.103  14.692  68.964  1.00  0.00    -0.209 C  
HETATM   28  O   UNK A   0     -10.489  15.849  69.053  1.00  0.00    -0.210 OA 
BRANCH  27  29
HETATM   29  O   UNK A   0     -10.674  13.620  69.594  1.00  0.00     0.047 OA 
BRANCH  29  30
HETATM   30  C   UNK A   0     -11.922  13.158  69.055  1.00  0.00    -0.285 C  
HETATM   31  C   UNK A   0     -12.075  11.659  69.246  1.00  0.00    -0.323 C  
ENDBRANCH  29  30
ENDBRANCH  27  29
ENDBRANCH  18  27
ENDBRANCH  16  18
ENDBRANCH  14  16
ENDBRANCH   7  14
TORSDOF 9
ENDMDL
MODEL      229
REMARK 921   NORMALIZED FREE ENERGY PREDICTED BY IDOCK:   -3.31 KCAL/MOL
REMARK 922        TOTAL FREE ENERGY PREDICTED BY IDOCK:   -6.68 KCAL/MOL
REMARK 923 INTER-LIGAND FREE ENERGY PREDICTED BY IDOCK:   -6.69 KCAL/MOL
REMARK 924 INTRA-LIGAND FREE ENERGY PREDICTED BY IDOCK:    0.00 KCAL/MOL
REMARK 927      BINDING AFFINITY PREDICTED BY RF-SCORE:    0.00 PKD
ROOT
HETATM    1  C   UNK A   1     -10.386   8.555  72.620  1.00  0.00    -0.235 C  
HETATM    2  C   UNK A   1     -11.717   7.838  72.918  1.00  0.00    -0.231 C  
HETATM    3  C   UNK A   1     -12.576   8.011  71.671  1.00  0.00    -0.346 C  
HETATM    4  C   UNK A   1     -11.929   9.165  70.926  1.00  0.00    -0.299 C  
HETATM    5  C   UNK A   1     -10.432   8.950  71.133  1.00  0.00    -0.266 C  
HETATM    6  N   UNK A   1      -9.802   7.816  70.438  1.00  0.00    -0.183 N  
HETATM    7  C   UNK A   1      -9.493   7.738  69.080  1.00  0.00    -0.151 C  
HETATM    8  C   UNK A   1      -8.948   7.040  71.382  1.00  0.00    -0.139 C  
HETATM    9  C   UNK A   1      -9.195   5.523  71.501  1.00  0.00    -0.146 C  
HETATM   10  C   UNK A   1      -9.151   7.682  72.760  1.00  0.00    -0.217 C  
HETATM   11  O   UNK A   1      -8.764   6.816  68.695  1.00  0.00    -0.125 OA 
HETATM   12  O   UNK A   1     -10.190   5.061  70.708  1.00  0.00    -0.232 OA 
HETATM   13  O   UNK A   1      -8.587   4.797  72.267  1.00  0.00    -0.117 OA 
ENDROOT
BRANCH   7  14
HETATM   14  C   UNK A   1     -10.093   8.735  68.051  1.00  0.00    -0.196 C  
HETATM   15  C   UNK A   1     -10.246   8.039  66.689  1.00  0.00    -0.315 C  
BRANCH  14  16
HETATM   16  N   UNK A   1      -9.226   9.935  67.948  1.00  0.00    -0.131 NA 
HETATM   17  H   UNK A   1      -8.280   9.674  67.675  1.00  0.00     0.000 HD 
BRANCH  16  18
HETATM   18  C   UNK A   0      -9.771  10.987  67.035  1.00  0.00    -0.182 C  
BRANCH  18  19
HETATM   19  C   UNK A   0     -10.182  10.372  65.697  1.00  0.00    -0.308 C  
BRANCH  19  20
HETATM   20  C   UNK A   0      -9.635  11.105  64.463  1.00  0.00    -0.288 C  
BRANCH  20  21
HETATM   21  C   UNK A   0      -8.572  10.225  63.851  1.00  0.00    -0.191 A  
HETATM   22  C   UNK A   0      -7.303  10.135  64.439  1.00  0.00    -0.116 A  
HETATM   23  C   UNK A   0      -8.905   9.357  62.801  1.00  0.00    -0.224 A  
HETATM   24  C   UNK A   0      -6.401   9.158  64.021  1.00  0.00    -0.088 A  
HETATM   25  C   UNK A   0      -8.000   8.383  62.383  1.00  0.00    -0.154 A  
HETATM   26  C   UNK A   0      -6.758   8.273  63.003  1.00  0.00    -0.086 A  
ENDBRANCH  20  21
ENDBRANCH  19  20
ENDBRANCH  18  19
BRANCH  18  27
HETATM   27  C   UNK A   0     -10.967  11.689  67.708  1.00  0.00    -0.233 C  
HETATM   28  O   UNK A   0     -11.968  11.136  68.139  1.00  0.00    -0.615 OA 
BRANCH  27  29
HETATM   29  O   UNK A   0     -10.728  13.036  67.754  1.00  0.00    -0.223 OA 
BRANCH  29  30
HETATM   30  C   UNK A   0     -11.375  13.830  66.747  1.00  0.00    -0.330 C  
HETATM   31  C   UNK A   0     -10.375  14.720  66.032  1.00  0.00    -0.318 C  
ENDBRANCH  29  30
ENDBRANCH  27  29
ENDBRANCH  18  27
ENDBRANCH  16  18
ENDBRANCH  14  16
ENDBRANCH   7  14
TORSDOF 9
ENDMDL
MODEL      230
REMARK 921   NORMALIZED FREE ENERGY PREDICTED BY IDOCK:   -3.31 KCAL/MOL
REMARK 922        TOTAL FREE ENERGY PREDICTED BY IDOCK:   -6.68 KCAL/MOL
REMARK 923 INTER-LIGAND FREE ENERGY PREDICTED BY IDOCK:   -6.40 KCAL/MOL
REMARK 924 INTRA-LIGAND FREE ENERGY PREDICTED BY IDOCK:   -0.28 KCAL/MOL
REMARK 927      BINDING AFFINITY PREDICTED BY RF-SCORE:    0.00 PKD
ROOT
HETATM    1  C   UNK A   1     -13.892  13.456  71.080  1.00  0.00     0.450 C  
HETATM    2  C   UNK A   1     -13.245  12.375  71.968  1.00  0.00    -0.514 C  
HETATM    3  C   UNK A   1     -11.926  12.014  71.298  1.00  0.00     0.490 C  
HETATM    4  C   UNK A   1     -12.076  12.523  69.875  1.00  0.00    -0.322 C  
HETATM    5  C   UNK A   1     -12.837  13.838  70.028  1.00  0.00     0.133 C  
HETATM    6  N   UNK A   1     -12.121  14.975  70.629  1.00  0.00    -0.295 N  
HETATM    7  C   UNK A   1     -11.144  15.762  70.019  1.00  0.00    -0.344 C  
HETATM    8  C   UNK A   1     -12.959  15.616  71.682  1.00  0.00    -0.476 C  
HETATM    9  C   UNK A   1     -12.348  15.792  73.086  1.00  0.00    -0.483 C  
HETATM   10  C   UNK A   1     -14.222  14.752  71.800  1.00  0.00    -0.629 C  
HETATM   11  O   UNK A   1     -10.805  16.814  70.575  1.00  0.00    -0.094 OA 
HETATM   12  O   UNK A   1     -11.081  15.329  73.199  1.00  0.00     0.174 OA 
HETATM   13  O   UNK A   1     -12.952  16.264  74.033  1.00  0.00    -0.689 OA 
ENDROOT
BRANCH   7  14
HETATM   14  C   UNK A   1     -10.440  15.314  68.709  1.00  0.00    -0.237 C  
HETATM   15  C   UNK A   1     -11.433  15.391  67.538  1.00  0.00    -0.228 C  
BRANCH  14  16
HETATM   16  N   UNK A   1      -9.904  13.940  68.871  1.00  0.00    -0.410 NA 
HETATM   17  H   UNK A   1     -10.600  13.246  68.601  1.00  0.00     0.000 HD 
BRANCH  16  18
HETATM   18  C   UNK A   0      -8.618  13.713  68.141  1.00  0.00    -0.176 C  
BRANCH  18  19
HETATM   19  C   UNK A   0      -7.507  14.580  68.732  1.00  0.00    -0.132 C  
BRANCH  19  20
HETATM   20  C   UNK A   0      -6.689  15.365  67.696  1.00  0.00    -0.198 C  
BRANCH  20  21
HETATM   21  C   UNK A   0      -6.785  16.826  68.060  1.00  0.00    -0.151 A  
HETATM   22  C   UNK A   0      -8.028  17.474  68.064  1.00  0.00    -0.234 A  
HETATM   23  C   UNK A   0      -5.662  17.493  68.571  1.00  0.00    -0.157 A  
HETATM   24  C   UNK A   0      -8.156  18.747  68.618  1.00  0.00    -0.367 A  
HETATM   25  C   UNK A   0      -5.793  18.766  69.121  1.00  0.00    -0.235 A  
HETATM   26  C   UNK A   0      -7.041  19.384  69.160  1.00  0.00    -0.384 A  
ENDBRANCH  20  21
ENDBRANCH  19  20
ENDBRANCH  18  19
BRANCH  18  27
HETATM   27  C   UNK A   0      -8.243  12.219  68.203  1.00  0.00    -0.168 C  
HETATM   28  O   UNK A   0      -7.180  11.767  68.605  1.00  0.00    -0.098 OA 
BRANCH  27  29
HETATM   29  O   UNK A   0      -9.294  11.473  67.743  1.00  0.00    -0.161 OA 
BRANCH  29  30
HETATM   30  C   UNK A   0      -9.019  10.608  66.630  1.00  0.00    -0.150 C  
HETATM   31  C   UNK A   0     -10.235  10.480  65.729  1.00  0.00    -0.310 C  
ENDBRANCH  29  30
ENDBRANCH  27  29
ENDBRANCH  18  27
ENDBRANCH  16  18
ENDBRANCH  14  16
ENDBRANCH   7  14
TORSDOF 9
ENDMDL
MODEL      231
REMARK 921   NORMALIZED FREE ENERGY PREDICTED BY IDOCK:   -3.30 KCAL/MOL
REMARK 922        TOTAL FREE ENERGY PREDICTED BY IDOCK:   -6.67 KCAL/MOL
REMARK 923 INTER-LIGAND FREE ENERGY PREDICTED BY IDOCK:   -4.83 KCAL/MOL
REMARK 924 INTRA-LIGAND FREE ENERGY PREDICTED BY IDOCK:   -1.84 KCAL/MOL
REMARK 927      BINDING AFFINITY PREDICTED BY RF-SCORE:    0.00 PKD
ROOT
HETATM    1  C   UNK A   1      -8.648   6.962  68.077  1.00  0.00    -0.123 C  
HETATM    2  C   UNK A   1      -9.730   6.055  67.458  1.00  0.00    -0.122 C  
HETATM    3  C   UNK A   1     -10.859   6.982  67.025  1.00  0.00    -0.413 C  
HETATM    4  C   UNK A   1     -10.609   8.265  67.800  1.00  0.00    -0.236 C  
HETATM    5  C   UNK A   1      -9.090   8.409  67.801  1.00  0.00    -0.135 C  
HETATM    6  N   UNK A   1      -8.435   8.753  66.529  1.00  0.00    -0.113 N  
HETATM    7  C   UNK A   1      -8.422  10.001  65.907  1.00  0.00    -0.133 C  
HETATM    8  C   UNK A   1      -7.269   7.855  66.289  1.00  0.00    -0.074 C  
HETATM    9  C   UNK A   1      -7.206   7.092  64.951  1.00  0.00    -0.078 C  
HETATM   10  C   UNK A   1      -7.276   6.837  67.436  1.00  0.00    -0.090 C  
HETATM   11  O   UNK A   1      -7.642  10.181  64.964  1.00  0.00    -0.136 OA 
HETATM   12  O   UNK A   1      -8.252   7.336  64.126  1.00  0.00    -0.077 OA 
HETATM   13  O   UNK A   1      -6.325   6.302  64.662  1.00  0.00    -0.032 OA 
ENDROOT
BRANCH   7  14
HETATM   14  C   UNK A   1      -9.403  11.129  66.329  1.00  0.00    -0.195 C  
HETATM   15  C   UNK A   1     -10.617  11.136  65.386  1.00  0.00    -0.291 C  
BRANCH  14  16
HETATM   16  N   UNK A   1      -8.703  12.437  66.315  1.00  0.00    -0.414 NA 
HETATM   17  H   UNK A   1      -9.141  13.074  65.650  1.00  0.00     0.000 HD 
BRANCH  16  18
HETATM   18  C   UNK A   0      -8.598  13.071  67.666  1.00  0.00    -0.190 C  
BRANCH  18  19
HETATM   19  C   UNK A   0      -7.263  13.800  67.813  1.00  0.00    -0.169 C  
BRANCH  19  20
HETATM   20  C   UNK A   0      -6.033  12.966  67.424  1.00  0.00    -0.082 C  
BRANCH  20  21
HETATM   21  C   UNK A   0      -5.928  11.832  68.415  1.00  0.00    -0.049 A  
HETATM   22  C   UNK A   0      -5.538  10.555  67.990  1.00  0.00    -0.040 A  
HETATM   23  C   UNK A   0      -6.042  12.094  69.788  1.00  0.00    -0.143 A  
HETATM   24  C   UNK A   0      -5.215   9.571  68.922  1.00  0.00    -0.037 A  
HETATM   25  C   UNK A   0      -5.722  11.106  70.718  1.00  0.00    -0.089 A  
HETATM   26  C   UNK A   0      -5.293   9.854  70.286  1.00  0.00    -0.043 A  
ENDBRANCH  20  21
ENDBRANCH  19  20
ENDBRANCH  18  19
BRANCH  18  27
HETATM   27  C   UNK A   0      -9.780  14.038  67.878  1.00  0.00    -0.229 C  
HETATM   28  O   UNK A   0     -10.803  13.788  68.499  1.00  0.00    -0.248 OA 
BRANCH  27  29
HETATM   29  O   UNK A   0      -9.500  15.229  67.266  1.00  0.00    -0.203 OA 
BRANCH  29  30
HETATM   30  C   UNK A   0     -10.533  16.226  67.317  1.00  0.00    -0.300 C  
HETATM   31  C   UNK A   0     -10.177  17.327  68.301  1.00  0.00    -0.348 C  
ENDBRANCH  29  30
ENDBRANCH  27  29
ENDBRANCH  18  27
ENDBRANCH  16  18
ENDBRANCH  14  16
ENDBRANCH   7  14
TORSDOF 9
ENDMDL
MODEL      232
REMARK 921   NORMALIZED FREE ENERGY PREDICTED BY IDOCK:   -3.30 KCAL/MOL
REMARK 922        TOTAL FREE ENERGY PREDICTED BY IDOCK:   -6.67 KCAL/MOL
REMARK 923 INTER-LIGAND FREE ENERGY PREDICTED BY IDOCK:   -6.01 KCAL/MOL
REMARK 924 INTRA-LIGAND FREE ENERGY PREDICTED BY IDOCK:   -0.66 KCAL/MOL
REMARK 927      BINDING AFFINITY PREDICTED BY RF-SCORE:    0.00 PKD
ROOT
HETATM    1  C   UNK A   1      -8.188  13.614  67.186  1.00  0.00    -0.123 C  
HETATM    2  C   UNK A   1      -7.350  12.345  66.933  1.00  0.00     0.070 C  
HETATM    3  C   UNK A   1      -7.800  11.330  67.976  1.00  0.00    -0.115 C  
HETATM    4  C   UNK A   1      -8.499  12.164  69.035  1.00  0.00     0.347 C  
HETATM    5  C   UNK A   1      -9.243  13.231  68.238  1.00  0.00    -0.197 C  
HETATM    6  N   UNK A   1     -10.407  12.804  67.445  1.00  0.00    -0.221 N  
HETATM    7  C   UNK A   1     -11.671  12.472  67.931  1.00  0.00    -0.359 C  
HETATM    8  C   UNK A   1     -10.328  13.367  66.067  1.00  0.00    -0.297 C  
HETATM    9  C   UNK A   1     -10.433  12.390  64.879  1.00  0.00    -0.298 C  
HETATM   10  C   UNK A   1      -8.982  14.098  65.985  1.00  0.00     0.293 C  
HETATM   11  O   UNK A   1     -12.600  12.354  67.123  1.00  0.00     0.068 OA 
HETATM   12  O   UNK A   1     -10.590  11.095  65.241  1.00  0.00    -0.273 OA 
HETATM   13  O   UNK A   1     -10.342  12.730  63.713  1.00  0.00    -0.402 OA 
ENDROOT
BRANCH   7  14
HETATM   14  C   UNK A   1     -11.913  12.187  69.439  1.00  0.00    -0.270 C  
HETATM   15  C   UNK A   1     -11.802  13.498  70.234  1.00  0.00    -0.327 C  
BRANCH  14  16
HETATM   16  N   UNK A   1     -10.939  11.179  69.924  1.00  0.00    -0.466 NA 
HETATM   17  H   UNK A   1     -10.489  11.496  70.782  1.00  0.00     0.000 HD 
BRANCH  16  18
HETATM   18  C   UNK A   0     -11.532   9.818  70.107  1.00  0.00    -0.216 C  
BRANCH  18  19
HETATM   19  C   UNK A   0     -10.570   8.743  69.602  1.00  0.00    -0.220 C  
BRANCH  19  20
HETATM   20  C   UNK A   0     -10.400   8.704  68.076  1.00  0.00    -0.277 C  
BRANCH  20  21
HETATM   21  C   UNK A   0      -9.785   7.371  67.725  1.00  0.00    -0.171 A  
HETATM   22  C   UNK A   0      -8.621   6.936  68.373  1.00  0.00    -0.125 A  
HETATM   23  C   UNK A   0     -10.475   6.484  66.885  1.00  0.00    -0.347 A  
HETATM   24  C   UNK A   0      -8.182   5.622  68.226  1.00  0.00    -0.103 A  
HETATM   25  C   UNK A   0     -10.032   5.171  66.738  1.00  0.00    -0.231 A  
HETATM   26  C   UNK A   0      -8.898   4.736  67.420  1.00  0.00    -0.106 A  
ENDBRANCH  20  21
ENDBRANCH  19  20
ENDBRANCH  18  19
BRANCH  18  27
HETATM   27  C   UNK A   0     -11.872   9.597  71.595  1.00  0.00    -0.384 C  
HETATM   28  O   UNK A   0     -12.872  10.007  72.166  1.00  0.00    -0.389 OA 
BRANCH  27  29
HETATM   29  O   UNK A   0     -10.878   8.859  72.178  1.00  0.00    -0.355 OA 
BRANCH  29  30
HETATM   30  C   UNK A   0     -11.302   7.743  72.977  1.00  0.00    -0.273 C  
HETATM   31  C   UNK A   0     -10.532   6.488  72.608  1.00  0.00    -0.236 C  
ENDBRANCH  29  30
ENDBRANCH  27  29
ENDBRANCH  18  27
ENDBRANCH  16  18
ENDBRANCH  14  16
ENDBRANCH   7  14
TORSDOF 9
ENDMDL
MODEL      233
REMARK 921   NORMALIZED FREE ENERGY PREDICTED BY IDOCK:   -3.30 KCAL/MOL
REMARK 922        TOTAL FREE ENERGY PREDICTED BY IDOCK:   -6.66 KCAL/MOL
REMARK 923 INTER-LIGAND FREE ENERGY PREDICTED BY IDOCK:   -5.97 KCAL/MOL
REMARK 924 INTRA-LIGAND FREE ENERGY PREDICTED BY IDOCK:   -0.70 KCAL/MOL
REMARK 927      BINDING AFFINITY PREDICTED BY RF-SCORE:    0.00 PKD
ROOT
HETATM    1  C   UNK A   1      -6.349   9.643  67.508  1.00  0.00    -0.064 C  
HETATM    2  C   UNK A   1      -5.822   8.241  67.871  1.00  0.00    -0.042 C  
HETATM    3  C   UNK A   1      -6.789   7.682  68.906  1.00  0.00    -0.061 C  
HETATM    4  C   UNK A   1      -7.526   8.903  69.428  1.00  0.00    -0.077 C  
HETATM    5  C   UNK A   1      -7.720   9.777  68.192  1.00  0.00    -0.082 C  
HETATM    6  N   UNK A   1      -8.680   9.319  67.175  1.00  0.00    -0.127 N  
HETATM    7  C   UNK A   1     -10.071   9.360  67.261  1.00  0.00    -0.226 C  
HETATM    8  C   UNK A   1      -8.075   9.409  65.816  1.00  0.00    -0.114 C  
HETATM    9  C   UNK A   1      -8.081   8.143  64.935  1.00  0.00    -0.153 C  
HETATM   10  C   UNK A   1      -6.622   9.853  66.028  1.00  0.00    -0.086 C  
HETATM   11  O   UNK A   1     -10.732   9.149  66.237  1.00  0.00     0.022 OA 
HETATM   12  O   UNK A   1      -8.654   7.066  65.521  1.00  0.00    -0.146 OA 
HETATM   13  O   UNK A   1      -7.580   8.087  63.827  1.00  0.00    -0.113 OA 
ENDROOT
BRANCH   7  14
HETATM   14  C   UNK A   1     -10.794   9.597  68.616  1.00  0.00    -0.167 C  
HETATM   15  C   UNK A   1     -10.356  10.949  69.203  1.00  0.00    -0.228 C  
BRANCH  14  16
HETATM   16  N   UNK A   1     -10.496   8.483  69.548  1.00  0.00    -0.220 NA 
HETATM   17  H   UNK A   1      -9.651   8.677  70.085  1.00  0.00     0.000 HD 
BRANCH  16  18
HETATM   18  C   UNK A   0     -11.634   8.145  70.457  1.00  0.00    -0.127 C  
BRANCH  18  19
HETATM   19  C   UNK A   0     -11.891   6.638  70.457  1.00  0.00    -0.430 C  
BRANCH  19  20
HETATM   20  C   UNK A   0     -10.658   5.780  70.137  1.00  0.00    -0.377 C  
BRANCH  20  21
HETATM   21  C   UNK A   0     -10.115   5.267  71.449  1.00  0.00    -0.266 A  
HETATM   22  C   UNK A   0     -10.933   5.226  72.586  1.00  0.00    -0.316 A  
HETATM   23  C   UNK A   0      -8.851   4.661  71.491  1.00  0.00    -0.149 A  
HETATM   24  C   UNK A   0     -10.517   4.545  73.729  1.00  0.00    -0.292 A  
HETATM   25  C   UNK A   0      -8.436   3.983  72.636  1.00  0.00    -0.100 A  
HETATM   26  C   UNK A   0      -9.275   3.911  73.746  1.00  0.00    -0.099 A  
ENDBRANCH  20  21
ENDBRANCH  19  20
ENDBRANCH  18  19
BRANCH  18  27
HETATM   27  C   UNK A   0     -11.329   8.651  71.881  1.00  0.00    -0.347 C  
HETATM   28  O   UNK A   0     -10.214   8.827  72.351  1.00  0.00    -0.293 OA 
BRANCH  27  29
HETATM   29  O   UNK A   0     -12.506   8.881  72.539  1.00  0.00    -0.361 OA 
BRANCH  29  30
HETATM   30  C   UNK A   0     -13.473   9.686  71.847  1.00  0.00    -0.413 C  
HETATM   31  C   UNK A   0     -13.090  11.154  71.894  1.00  0.00    -0.513 C  
ENDBRANCH  29  30
ENDBRANCH  27  29
ENDBRANCH  18  27
ENDBRANCH  16  18
ENDBRANCH  14  16
ENDBRANCH   7  14
TORSDOF 9
ENDMDL
MODEL      234
REMARK 921   NORMALIZED FREE ENERGY PREDICTED BY IDOCK:   -3.29 KCAL/MOL
REMARK 922        TOTAL FREE ENERGY PREDICTED BY IDOCK:   -6.65 KCAL/MOL
REMARK 923 INTER-LIGAND FREE ENERGY PREDICTED BY IDOCK:   -6.52 KCAL/MOL
REMARK 924 INTRA-LIGAND FREE ENERGY PREDICTED BY IDOCK:   -0.14 KCAL/MOL
REMARK 927      BINDING AFFINITY PREDICTED BY RF-SCORE:    0.00 PKD
ROOT
HETATM    1  C   UNK A   1     -11.955  13.229  65.148  1.00  0.00    -0.413 C  
HETATM    2  C   UNK A   1     -10.833  14.276  65.298  1.00  0.00    -0.363 C  
HETATM    3  C   UNK A   1     -10.620  14.453  66.796  1.00  0.00    -0.282 C  
HETATM    4  C   UNK A   1     -11.884  13.890  67.424  1.00  0.00    -0.437 C  
HETATM    5  C   UNK A   1     -12.221  12.678  66.559  1.00  0.00    -0.060 C  
HETATM    6  N   UNK A   1     -11.344  11.501  66.660  1.00  0.00    -0.279 N  
HETATM    7  C   UNK A   1     -11.301  10.579  67.706  1.00  0.00    -0.190 C  
HETATM    8  C   UNK A   1     -10.973  11.013  65.301  1.00  0.00    -0.027 C  
HETATM    9  C   UNK A   1      -9.476  10.843  64.976  1.00  0.00    -0.233 C  
HETATM   10  C   UNK A   1     -11.581  12.017  64.313  1.00  0.00    -0.435 C  
HETATM   11  O   UNK A   1     -10.673   9.527  67.538  1.00  0.00    -0.282 OA 
HETATM   12  O   UNK A   1      -8.648  11.168  65.997  1.00  0.00    -0.172 OA 
HETATM   13  O   UNK A   1      -9.055  10.492  63.888  1.00  0.00    -0.198 OA 
ENDROOT
BRANCH   7  14
HETATM   14  C   UNK A   1     -11.962  10.878  69.080  1.00  0.00    -0.288 C  
HETATM   15  C   UNK A   1     -11.051  11.808  69.898  1.00  0.00     0.030 C  
BRANCH  14  16
HETATM   16  N   UNK A   1     -12.221   9.608  69.801  1.00  0.00    -0.230 NA 
HETATM   17  H   UNK A   1     -12.962   9.078  69.343  1.00  0.00     0.000 HD 
BRANCH  16  18
HETATM   18  C   UNK A   0     -10.999   8.764  69.980  1.00  0.00    -0.209 C  
BRANCH  18  19
HETATM   19  C   UNK A   0     -10.138   9.306  71.120  1.00  0.00    -0.374 C  
BRANCH  19  20
HETATM   20  C   UNK A   0      -8.624   9.233  70.868  1.00  0.00    -0.220 C  
BRANCH  20  21
HETATM   21  C   UNK A   0      -8.117   7.977  71.534  1.00  0.00    -0.126 A  
HETATM   22  C   UNK A   0      -8.089   7.878  72.931  1.00  0.00    -0.189 A  
HETATM   23  C   UNK A   0      -7.845   6.839  70.760  1.00  0.00    -0.101 A  
HETATM   24  C   UNK A   0      -7.845   6.651  73.546  1.00  0.00    -0.095 A  
HETATM   25  C   UNK A   0      -7.599   5.614  71.377  1.00  0.00    -0.104 A  
HETATM   26  C   UNK A   0      -7.616   5.517  72.766  1.00  0.00    -0.098 A  
ENDBRANCH  20  21
ENDBRANCH  19  20
ENDBRANCH  18  19
BRANCH  18  27
HETATM   27  C   UNK A   0     -11.412   7.303  70.248  1.00  0.00    -0.210 C  
HETATM   28  O   UNK A   0     -11.745   6.489  69.398  1.00  0.00    -0.295 OA 
BRANCH  27  29
HETATM   29  O   UNK A   0     -11.339   7.055  71.591  1.00  0.00    -0.243 OA 
BRANCH  29  30
HETATM   30  C   UNK A   0     -12.027   5.885  72.059  1.00  0.00    -0.077 C  
HETATM   31  C   UNK A   0     -11.311   5.273  73.249  1.00  0.00    -0.318 C  
ENDBRANCH  29  30
ENDBRANCH  27  29
ENDBRANCH  18  27
ENDBRANCH  16  18
ENDBRANCH  14  16
ENDBRANCH   7  14
TORSDOF 9
ENDMDL
MODEL      235
REMARK 921   NORMALIZED FREE ENERGY PREDICTED BY IDOCK:   -3.29 KCAL/MOL
REMARK 922        TOTAL FREE ENERGY PREDICTED BY IDOCK:   -6.65 KCAL/MOL
REMARK 923 INTER-LIGAND FREE ENERGY PREDICTED BY IDOCK:   -5.60 KCAL/MOL
REMARK 924 INTRA-LIGAND FREE ENERGY PREDICTED BY IDOCK:   -1.06 KCAL/MOL
REMARK 927      BINDING AFFINITY PREDICTED BY RF-SCORE:    0.00 PKD
ROOT
HETATM    1  C   UNK A   1      -8.340   7.023  68.095  1.00  0.00    -0.123 C  
HETATM    2  C   UNK A   1      -9.373   6.007  67.570  1.00  0.00    -0.113 C  
HETATM    3  C   UNK A   1     -10.563   6.828  67.089  1.00  0.00    -0.401 C  
HETATM    4  C   UNK A   1     -10.382   8.180  67.757  1.00  0.00    -0.295 C  
HETATM    5  C   UNK A   1      -8.874   8.415  67.717  1.00  0.00    -0.137 C  
HETATM    6  N   UNK A   1      -8.261   8.696  66.409  1.00  0.00    -0.109 N  
HETATM    7  C   UNK A   1      -8.334   9.890  65.692  1.00  0.00    -0.137 C  
HETATM    8  C   UNK A   1      -7.046   7.855  66.216  1.00  0.00    -0.063 C  
HETATM    9  C   UNK A   1      -6.956   6.993  64.940  1.00  0.00    -0.051 C  
HETATM   10  C   UNK A   1      -6.973   6.932  67.439  1.00  0.00    -0.079 C  
HETATM   11  O   UNK A   1      -7.581  10.042  64.722  1.00  0.00    -0.135 OA 
HETATM   12  O   UNK A   1      -8.027   7.108  64.120  1.00  0.00    -0.129 OA 
HETATM   13  O   UNK A   1      -6.033   6.238  64.697  1.00  0.00    -0.025 OA 
ENDROOT
BRANCH   7  14
HETATM   14  C   UNK A   1      -9.376  10.987  66.045  1.00  0.00    -0.201 C  
HETATM   15  C   UNK A   1     -10.587  10.869  65.104  1.00  0.00    -0.268 C  
BRANCH  14  16
HETATM   16  N   UNK A   1      -8.748  12.328  65.949  1.00  0.00    -0.361 NA 
HETATM   17  H   UNK A   1      -9.202  12.888  65.229  1.00  0.00     0.000 HD 
BRANCH  16  18
HETATM   18  C   UNK A   0      -8.715  13.064  67.251  1.00  0.00    -0.209 C  
BRANCH  18  19
HETATM   19  C   UNK A   0      -9.680  12.427  68.251  1.00  0.00    -0.218 C  
BRANCH  19  20
HETATM   20  C   UNK A   0     -11.008  13.179  68.424  1.00  0.00    -0.287 C  
BRANCH  20  21
HETATM   21  C   UNK A   0     -10.702  14.655  68.353  1.00  0.00    -0.242 A  
HETATM   22  C   UNK A   0      -9.968  15.276  69.373  1.00  0.00    -0.257 A  
HETATM   23  C   UNK A   0     -10.992  15.372  67.182  1.00  0.00    -0.317 A  
HETATM   24  C   UNK A   0      -9.486  16.573  69.204  1.00  0.00    -0.212 A  
HETATM   25  C   UNK A   0     -10.511  16.669  67.018  1.00  0.00    -0.283 A  
HETATM   26  C   UNK A   0      -9.745  17.262  68.019  1.00  0.00    -0.277 A  
ENDBRANCH  20  21
ENDBRANCH  19  20
ENDBRANCH  18  19
BRANCH  18  27
HETATM   27  C   UNK A   0      -7.276  13.073  67.805  1.00  0.00    -0.139 C  
HETATM   28  O   UNK A   0      -6.288  13.489  67.216  1.00  0.00    -0.294 OA 
BRANCH  27  29
HETATM   29  O   UNK A   0      -7.278  12.548  69.068  1.00  0.00    -0.084 OA 
BRANCH  29  30
HETATM   30  C   UNK A   0      -6.911  11.164  69.180  1.00  0.00    -0.108 C  
HETATM   31  C   UNK A   0      -5.449  11.018  69.562  1.00  0.00    -0.042 C  
ENDBRANCH  29  30
ENDBRANCH  27  29
ENDBRANCH  18  27
ENDBRANCH  16  18
ENDBRANCH  14  16
ENDBRANCH   7  14
TORSDOF 9
ENDMDL
MODEL      236
REMARK 921   NORMALIZED FREE ENERGY PREDICTED BY IDOCK:   -3.24 KCAL/MOL
REMARK 922        TOTAL FREE ENERGY PREDICTED BY IDOCK:   -6.58 KCAL/MOL
REMARK 923 INTER-LIGAND FREE ENERGY PREDICTED BY IDOCK:   -6.03 KCAL/MOL
REMARK 924 INTRA-LIGAND FREE ENERGY PREDICTED BY IDOCK:   -0.55 KCAL/MOL
REMARK 927      BINDING AFFINITY PREDICTED BY RF-SCORE:    0.00 PKD
ROOT
HETATM    1  C   UNK A   1     -11.328  14.348  66.553  1.00  0.00    -0.353 C  
HETATM    2  C   UNK A   1      -9.993  14.988  66.123  1.00  0.00    -0.313 C  
HETATM    3  C   UNK A   1      -8.945  14.472  67.101  1.00  0.00    -0.244 C  
HETATM    4  C   UNK A   1      -9.752  13.961  68.282  1.00  0.00    -0.223 C  
HETATM    5  C   UNK A   1     -10.981  13.320  67.643  1.00  0.00    -0.262 C  
HETATM    6  N   UNK A   1     -10.789  12.061  66.906  1.00  0.00    -0.247 N  
HETATM    7  C   UNK A   1     -10.576  10.796  67.454  1.00  0.00    -0.242 C  
HETATM    8  C   UNK A   1     -11.471  12.127  65.582  1.00  0.00    -0.355 C  
HETATM    9  C   UNK A   1     -10.640  11.816  64.322  1.00  0.00    -0.335 C  
HETATM   10  C   UNK A   1     -12.027  13.552  65.465  1.00  0.00    -0.420 C  
HETATM   11  O   UNK A   1     -10.660   9.810  66.712  1.00  0.00    -0.206 OA 
HETATM   12  O   UNK A   1      -9.346  11.508  64.576  1.00  0.00    -0.143 OA 
HETATM   13  O   UNK A   1     -11.080  11.878  63.188  1.00  0.00    -0.312 OA 
ENDROOT
BRANCH   7  14
HETATM   14  C   UNK A   1     -10.176  10.614  68.945  1.00  0.00    -0.201 C  
HETATM   15  C   UNK A   1     -11.329  11.081  69.848  1.00  0.00    -0.364 C  
BRANCH  14  16
HETATM   16  N   UNK A   1      -8.930  11.369  69.227  1.00  0.00    -0.360 NA 
HETATM   17  H   UNK A   1      -9.083  12.053  69.968  1.00  0.00     0.000 HD 
BRANCH  16  18
HETATM   18  C   UNK A   0      -7.762  10.491  69.548  1.00  0.00    -0.136 C  
BRANCH  18  19
HETATM   19  C   UNK A   0      -8.144   9.018  69.404  1.00  0.00    -0.108 C  
BRANCH  19  20
HETATM   20  C   UNK A   0      -7.214   8.042  70.139  1.00  0.00    -0.056 C  
BRANCH  20  21
HETATM   21  C   UNK A   0      -8.051   6.863  70.572  1.00  0.00    -0.115 A  
HETATM   22  C   UNK A   0      -9.383   7.047  70.966  1.00  0.00    -0.159 A  
HETATM   23  C   UNK A   0      -7.557   5.560  70.409  1.00  0.00    -0.081 A  
HETATM   24  C   UNK A   0     -10.223   5.949  71.142  1.00  0.00    -0.266 A  
HETATM   25  C   UNK A   0      -8.398   4.464  70.589  1.00  0.00    -0.086 A  
HETATM   26  C   UNK A   0      -9.733   4.659  70.938  1.00  0.00    -0.262 A  
ENDBRANCH  20  21
ENDBRANCH  19  20
ENDBRANCH  18  19
BRANCH  18  27
HETATM   27  C   UNK A   0      -6.578  10.846  68.627  1.00  0.00    -0.057 C  
HETATM   28  O   UNK A   0      -5.421  11.014  68.985  1.00  0.00    -0.041 OA 
BRANCH  27  29
HETATM   29  O   UNK A   0      -7.025  10.936  67.337  1.00  0.00    -0.078 OA 
BRANCH  29  30
HETATM   30  C   UNK A   0      -6.208  11.697  66.434  1.00  0.00     0.084 C  
HETATM   31  C   UNK A   0      -5.711  10.832  65.289  1.00  0.00    -0.085 C  
ENDBRANCH  29  30
ENDBRANCH  27  29
ENDBRANCH  18  27
ENDBRANCH  16  18
ENDBRANCH  14  16
ENDBRANCH   7  14
TORSDOF 9
ENDMDL
MODEL      237
REMARK 921   NORMALIZED FREE ENERGY PREDICTED BY IDOCK:   -3.23 KCAL/MOL
REMARK 922        TOTAL FREE ENERGY PREDICTED BY IDOCK:   -6.55 KCAL/MOL
REMARK 923 INTER-LIGAND FREE ENERGY PREDICTED BY IDOCK:   -6.13 KCAL/MOL
REMARK 924 INTRA-LIGAND FREE ENERGY PREDICTED BY IDOCK:   -0.43 KCAL/MOL
REMARK 927      BINDING AFFINITY PREDICTED BY RF-SCORE:    0.00 PKD
ROOT
HETATM    1  C   UNK A   1      -7.371   7.381  64.220  1.00  0.00    -0.090 C  
HETATM    2  C   UNK A   1      -5.997   7.666  64.859  1.00  0.00    -0.038 C  
HETATM    3  C   UNK A   1      -5.970   9.161  65.150  1.00  0.00    -0.059 C  
HETATM    4  C   UNK A   1      -7.075   9.733  64.278  1.00  0.00    -0.126 C  
HETATM    5  C   UNK A   1      -8.181   8.683  64.343  1.00  0.00    -0.162 C  
HETATM    6  N   UNK A   1      -8.911   8.537  65.612  1.00  0.00    -0.285 N  
HETATM    7  C   UNK A   1      -9.881   9.400  66.121  1.00  0.00    -0.285 C  
HETATM    8  C   UNK A   1      -9.007   7.099  65.992  1.00  0.00    -0.111 C  
HETATM    9  C   UNK A   1      -8.517   6.684  67.393  1.00  0.00    -0.120 C  
HETATM   10  C   UNK A   1      -8.198   6.330  64.939  1.00  0.00    -0.119 C  
HETATM   11  O   UNK A   1     -10.559   9.022  67.084  1.00  0.00    -0.272 OA 
HETATM   12  O   UNK A   1      -8.041   7.711  68.137  1.00  0.00    -0.121 OA 
HETATM   13  O   UNK A   1      -8.509   5.535  67.796  1.00  0.00    -0.100 OA 
ENDROOT
BRANCH   7  14
HETATM   14  C   UNK A   1     -10.074  10.832  65.550  1.00  0.00    -0.274 C  
HETATM   15  C   UNK A   1     -10.335  10.752  64.037  1.00  0.00    -0.357 C  
BRANCH  14  16
HETATM   16  N   UNK A   1      -8.879  11.659  65.847  1.00  0.00    -0.378 NA 
HETATM   17  H   UNK A   1      -8.700  12.319  65.092  1.00  0.00     0.000 HD 
BRANCH  16  18
HETATM   18  C   UNK A   0      -8.956  12.367  67.163  1.00  0.00    -0.195 C  
BRANCH  18  19
HETATM   19  C   UNK A   0      -8.110  13.639  67.136  1.00  0.00    -0.094 C  
BRANCH  19  20
HETATM   20  C   UNK A   0      -7.929  14.315  68.503  1.00  0.00    -0.145 C  
BRANCH  20  21
HETATM   21  C   UNK A   0      -7.870  15.805  68.264  1.00  0.00    -0.129 A  
HETATM   22  C   UNK A   0      -7.215  16.643  69.176  1.00  0.00    -0.220 A  
HETATM   23  C   UNK A   0      -8.311  16.332  67.041  1.00  0.00    -0.237 A  
HETATM   24  C   UNK A   0      -6.957  17.973  68.850  1.00  0.00    -0.263 A  
HETATM   25  C   UNK A   0      -8.054  17.663  66.719  1.00  0.00    -0.264 A  
HETATM   26  C   UNK A   0      -7.363  18.477  67.614  1.00  0.00    -0.223 A  
ENDBRANCH  20  21
ENDBRANCH  19  20
ENDBRANCH  18  19
BRANCH  18  27
HETATM   27  C   UNK A   0     -10.427  12.691  67.491  1.00  0.00    -0.221 C  
HETATM   28  O   UNK A   0     -11.132  12.080  68.282  1.00  0.00    -0.211 OA 
BRANCH  27  29
HETATM   29  O   UNK A   0     -10.821  13.780  66.762  1.00  0.00    -0.282 OA 
BRANCH  29  30
HETATM   30  C   UNK A   0     -11.993  14.466  67.229  1.00  0.00    -0.377 C  
HETATM   31  C   UNK A   0     -11.660  15.374  68.400  1.00  0.00    -0.368 C  
ENDBRANCH  29  30
ENDBRANCH  27  29
ENDBRANCH  18  27
ENDBRANCH  16  18
ENDBRANCH  14  16
ENDBRANCH   7  14
TORSDOF 9
ENDMDL
MODEL      238
REMARK 921   NORMALIZED FREE ENERGY PREDICTED BY IDOCK:   -3.22 KCAL/MOL
REMARK 922        TOTAL FREE ENERGY PREDICTED BY IDOCK:   -6.55 KCAL/MOL
REMARK 923 INTER-LIGAND FREE ENERGY PREDICTED BY IDOCK:   -5.15 KCAL/MOL
REMARK 924 INTRA-LIGAND FREE ENERGY PREDICTED BY IDOCK:   -1.40 KCAL/MOL
REMARK 927      BINDING AFFINITY PREDICTED BY RF-SCORE:    0.00 PKD
ROOT
HETATM    1  C   UNK A   1      -9.765   9.892  64.663  1.00  0.00    -0.265 C  
HETATM    2  C   UNK A   1      -9.894  11.422  64.793  1.00  0.00    -0.302 C  
HETATM    3  C   UNK A   1     -10.133  11.700  66.271  1.00  0.00    -0.254 C  
HETATM    4  C   UNK A   1     -10.586  10.365  66.836  1.00  0.00    -0.293 C  
HETATM    5  C   UNK A   1      -9.730   9.339  66.098  1.00  0.00    -0.279 C  
HETATM    6  N   UNK A   1      -8.298   9.280  66.429  1.00  0.00    -0.117 N  
HETATM    7  C   UNK A   1      -7.729   8.733  67.580  1.00  0.00    -0.101 C  
HETATM    8  C   UNK A   1      -7.479   9.259  65.184  1.00  0.00    -0.105 C  
HETATM    9  C   UNK A   1      -6.366  10.315  65.031  1.00  0.00    -0.123 C  
HETATM   10  C   UNK A   1      -8.470   9.418  64.024  1.00  0.00    -0.203 C  
HETATM   11  O   UNK A   1      -6.505   8.557  67.605  1.00  0.00    -0.055 OA 
HETATM   12  O   UNK A   1      -6.261  11.163  66.081  1.00  0.00    -0.133 OA 
HETATM   13  O   UNK A   1      -5.663  10.419  64.042  1.00  0.00    -0.138 OA 
ENDROOT
BRANCH   7  14
HETATM   14  C   UNK A   1      -8.586   8.409  68.834  1.00  0.00    -0.135 C  
HETATM   15  C   UNK A   1      -8.596   9.622  69.778  1.00  0.00    -0.211 C  
BRANCH  14  16
HETATM   16  N   UNK A   1      -8.050   7.203  69.512  1.00  0.00    -0.128 NA 
HETATM   17  H   UNK A   1      -7.553   7.459  70.365  1.00  0.00     0.000 HD 
BRANCH  16  18
HETATM   18  C   UNK A   0      -9.091   6.168  69.797  1.00  0.00    -0.141 C  
BRANCH  18  19
HETATM   19  C   UNK A   0      -8.543   4.768  69.520  1.00  0.00    -0.103 C  
BRANCH  19  20
HETATM   20  C   UNK A   0      -9.453   3.885  68.654  1.00  0.00    -0.217 C  
BRANCH  20  21
HETATM   21  C   UNK A   0      -9.082   4.135  67.212  1.00  0.00    -0.161 A  
HETATM   22  C   UNK A   0      -7.744   4.058  66.802  1.00  0.00    -0.089 A  
HETATM   23  C   UNK A   0     -10.090   4.263  66.246  1.00  0.00    -0.196 A  
HETATM   24  C   UNK A   0      -7.423   4.057  65.446  1.00  0.00    -0.081 A  
HETATM   25  C   UNK A   0      -9.765   4.265  64.891  1.00  0.00    -0.182 A  
HETATM   26  C   UNK A   0      -8.436   4.145  64.491  1.00  0.00    -0.107 A  
ENDBRANCH  20  21
ENDBRANCH  19  20
ENDBRANCH  18  19
BRANCH  18  27
HETATM   27  C   UNK A   0      -9.563   6.295  71.259  1.00  0.00    -0.174 C  
HETATM   28  O   UNK A   0      -8.995   6.926  72.139  1.00  0.00    -0.133 OA 
BRANCH  27  29
HETATM   29  O   UNK A   0     -10.728   5.595  71.417  1.00  0.00    -0.247 OA 
BRANCH  29  30
HETATM   30  C   UNK A   0     -11.239   5.507  72.756  1.00  0.00    -0.305 C  
HETATM   31  C   UNK A   0     -11.351   4.059  73.200  1.00  0.00    -0.176 C  
ENDBRANCH  29  30
ENDBRANCH  27  29
ENDBRANCH  18  27
ENDBRANCH  16  18
ENDBRANCH  14  16
ENDBRANCH   7  14
TORSDOF 9
ENDMDL
MODEL      239
REMARK 921   NORMALIZED FREE ENERGY PREDICTED BY IDOCK:   -3.22 KCAL/MOL
REMARK 922        TOTAL FREE ENERGY PREDICTED BY IDOCK:   -6.54 KCAL/MOL
REMARK 923 INTER-LIGAND FREE ENERGY PREDICTED BY IDOCK:   -5.52 KCAL/MOL
REMARK 924 INTRA-LIGAND FREE ENERGY PREDICTED BY IDOCK:   -1.03 KCAL/MOL
REMARK 927      BINDING AFFINITY PREDICTED BY RF-SCORE:    0.00 PKD
ROOT
HETATM    1  C   UNK A   1     -10.595   6.677  72.318  1.00  0.00    -0.241 C  
HETATM    2  C   UNK A   1     -10.582   5.291  71.644  1.00  0.00    -0.261 C  
HETATM    3  C   UNK A   1     -10.082   5.519  70.223  1.00  0.00    -0.305 C  
HETATM    4  C   UNK A   1     -10.272   7.008  69.993  1.00  0.00    -0.206 C  
HETATM    5  C   UNK A   1      -9.911   7.641  71.334  1.00  0.00    -0.174 C  
HETATM    6  N   UNK A   1      -8.496   7.627  71.737  1.00  0.00    -0.106 N  
HETATM    7  C   UNK A   1      -7.475   8.432  71.231  1.00  0.00    -0.089 C  
HETATM    8  C   UNK A   1      -8.364   7.159  73.146  1.00  0.00    -0.112 C  
HETATM    9  C   UNK A   1      -7.411   5.982  73.433  1.00  0.00    -0.089 C  
HETATM   10  C   UNK A   1      -9.778   6.768  73.595  1.00  0.00    -0.247 C  
HETATM   11  O   UNK A   1      -6.393   8.457  71.830  1.00  0.00    -0.050 OA 
HETATM   12  O   UNK A   1      -6.786   5.497  72.333  1.00  0.00    -0.066 OA 
HETATM   13  O   UNK A   1      -7.254   5.490  74.535  1.00  0.00    -0.081 OA 
ENDROOT
BRANCH   7  14
HETATM   14  C   UNK A   1      -7.652   9.233  69.911  1.00  0.00    -0.093 C  
HETATM   15  C   UNK A   1      -6.310   9.870  69.513  1.00  0.00    -0.047 C  
BRANCH  14  16
HETATM   16  N   UNK A   1      -8.707  10.261  70.083  1.00  0.00    -0.305 NA 
HETATM   17  H   UNK A   1      -8.365  11.037  70.651  1.00  0.00     0.000 HD 
BRANCH  16  18
HETATM   18  C   UNK A   0      -9.270  10.759  68.790  1.00  0.00    -0.189 C  
BRANCH  18  19
HETATM   19  C   UNK A   0      -9.151   9.686  67.707  1.00  0.00    -0.132 C  
BRANCH  19  20
HETATM   20  C   UNK A   0     -10.484   9.044  67.295  1.00  0.00    -0.343 C  
BRANCH  20  21
HETATM   21  C   UNK A   0     -10.159   7.769  66.555  1.00  0.00    -0.224 A  
HETATM   22  C   UNK A   0      -8.926   7.622  65.905  1.00  0.00    -0.144 A  
HETATM   23  C   UNK A   0     -11.012   6.661  66.667  1.00  0.00    -0.121 A  
HETATM   24  C   UNK A   0      -8.528   6.377  65.423  1.00  0.00    -0.126 A  
HETATM   25  C   UNK A   0     -10.613   5.418  66.181  1.00  0.00    -0.197 A  
HETATM   26  C   UNK A   0      -9.367   5.272  65.576  1.00  0.00    -0.093 A  
ENDBRANCH  20  21
ENDBRANCH  19  20
ENDBRANCH  18  19
BRANCH  18  27
HETATM   27  C   UNK A   0     -10.740  11.177  68.992  1.00  0.00    -0.225 C  
HETATM   28  O   UNK A   0     -11.460  10.828  69.917  1.00  0.00    -0.268 OA 
BRANCH  27  29
HETATM   29  O   UNK A   0     -11.114  12.010  67.973  1.00  0.00    -0.213 OA 
BRANCH  29  30
HETATM   30  C   UNK A   0     -11.525  13.332  68.353  1.00  0.00    -0.314 C  
HETATM   31  C   UNK A   0     -11.804  14.187  67.129  1.00  0.00    -0.454 C  
ENDBRANCH  29  30
ENDBRANCH  27  29
ENDBRANCH  18  27
ENDBRANCH  16  18
ENDBRANCH  14  16
ENDBRANCH   7  14
TORSDOF 9
ENDMDL
MODEL      240
REMARK 921   NORMALIZED FREE ENERGY PREDICTED BY IDOCK:   -3.20 KCAL/MOL
REMARK 922        TOTAL FREE ENERGY PREDICTED BY IDOCK:   -6.51 KCAL/MOL
REMARK 923 INTER-LIGAND FREE ENERGY PREDICTED BY IDOCK:   -5.84 KCAL/MOL
REMARK 924 INTRA-LIGAND FREE ENERGY PREDICTED BY IDOCK:   -0.67 KCAL/MOL
REMARK 927      BINDING AFFINITY PREDICTED BY RF-SCORE:    0.00 PKD
ROOT
HETATM    1  C   UNK A   1      -9.628   9.976  64.096  1.00  0.00    -0.274 C  
HETATM    2  C   UNK A   1      -9.292  11.473  63.952  1.00  0.00    -0.048 C  
HETATM    3  C   UNK A   1      -9.575  12.100  65.311  1.00  0.00    -0.078 C  
HETATM    4  C   UNK A   1     -10.469  11.091  66.012  1.00  0.00    -0.304 C  
HETATM    5  C   UNK A   1      -9.903   9.738  65.591  1.00  0.00    -0.301 C  
HETATM    6  N   UNK A   1      -8.597   9.342  66.141  1.00  0.00    -0.132 N  
HETATM    7  C   UNK A   1      -8.337   8.901  67.439  1.00  0.00    -0.108 C  
HETATM    8  C   UNK A   1      -7.708   8.839  65.055  1.00  0.00    -0.105 C  
HETATM    9  C   UNK A   1      -6.315   9.482  64.902  1.00  0.00    -0.081 C  
HETATM   10  C   UNK A   1      -8.487   9.035  63.748  1.00  0.00    -0.168 C  
HETATM   11  O   UNK A   1      -7.234   8.394  67.678  1.00  0.00    -0.085 OA 
HETATM   12  O   UNK A   1      -6.056  10.459  65.803  1.00  0.00    -0.099 OA 
HETATM   13  O   UNK A   1      -5.523   9.181  64.028  1.00  0.00    -0.060 OA 
ENDROOT
BRANCH   7  14
HETATM   14  C   UNK A   1      -9.368   9.093  68.584  1.00  0.00    -0.135 C  
HETATM   15  C   UNK A   1      -9.226  10.506  69.173  1.00  0.00    -0.183 C  
BRANCH  14  16
HETATM   16  N   UNK A   1      -9.167   8.054  69.623  1.00  0.00    -0.152 NA 
HETATM   17  H   UNK A   1      -8.632   8.426  70.408  1.00  0.00     0.000 HD 
BRANCH  16  18
HETATM   18  C   UNK A   0     -10.441   7.431  70.098  1.00  0.00    -0.220 C  
BRANCH  18  19
HETATM   19  C   UNK A   0     -10.198   5.991  70.547  1.00  0.00    -0.262 C  
BRANCH  19  20
HETATM   20  C   UNK A   0     -10.105   5.802  72.069  1.00  0.00    -0.225 C  
BRANCH  20  21
HETATM   21  C   UNK A   0     -10.221   4.323  72.347  1.00  0.00    -0.248 A  
HETATM   22  C   UNK A   0      -9.956   3.390  71.336  1.00  0.00    -0.135 A  
HETATM   23  C   UNK A   0     -10.415   3.875  73.662  1.00  0.00    -0.263 A  
HETATM   24  C   UNK A   0      -9.835   2.036  71.643  1.00  0.00    -0.218 A  
HETATM   25  C   UNK A   0     -10.296   2.520  73.965  1.00  0.00    -0.202 A  
HETATM   26  C   UNK A   0      -9.989   1.605  72.960  1.00  0.00    -0.156 A  
ENDBRANCH  20  21
ENDBRANCH  19  20
ENDBRANCH  18  19
BRANCH  18  27
HETATM   27  C   UNK A   0     -11.033   8.273  71.246  1.00  0.00    -0.243 C  
HETATM   28  O   UNK A   0     -10.391   8.855  72.108  1.00  0.00    -0.333 OA 
BRANCH  27  29
HETATM   29  O   UNK A   0     -12.398   8.274  71.144  1.00  0.00    -0.289 OA 
BRANCH  29  30
HETATM   30  C   UNK A   0     -13.119   8.770  72.283  1.00  0.00    -0.409 C  
HETATM   31  C   UNK A   0     -13.555  10.208  72.066  1.00  0.00    -0.328 C  
ENDBRANCH  29  30
ENDBRANCH  27  29
ENDBRANCH  18  27
ENDBRANCH  16  18
ENDBRANCH  14  16
ENDBRANCH   7  14
TORSDOF 9
ENDMDL
MODEL      241
REMARK 921   NORMALIZED FREE ENERGY PREDICTED BY IDOCK:   -3.14 KCAL/MOL
REMARK 922        TOTAL FREE ENERGY PREDICTED BY IDOCK:   -6.43 KCAL/MOL
REMARK 923 INTER-LIGAND FREE ENERGY PREDICTED BY IDOCK:   -5.41 KCAL/MOL
REMARK 924 INTRA-LIGAND FREE ENERGY PREDICTED BY IDOCK:   -1.02 KCAL/MOL
REMARK 927      BINDING AFFINITY PREDICTED BY RF-SCORE:    0.00 PKD
ROOT
HETATM    1  C   UNK A   1      -6.003   9.794  67.567  1.00  0.00    -0.051 C  
HETATM    2  C   UNK A   1      -5.137   8.518  67.551  1.00  0.00    -0.034 C  
HETATM    3  C   UNK A   1      -5.884   7.492  68.393  1.00  0.00    -0.027 C  
HETATM    4  C   UNK A   1      -6.860   8.318  69.213  1.00  0.00    -0.050 C  
HETATM    5  C   UNK A   1      -7.326   9.407  68.250  1.00  0.00    -0.078 C  
HETATM    6  N   UNK A   1      -8.205   9.008  67.140  1.00  0.00    -0.109 N  
HETATM    7  C   UNK A   1      -9.559   8.683  67.222  1.00  0.00    -0.167 C  
HETATM    8  C   UNK A   1      -7.716   9.590  65.858  1.00  0.00    -0.100 C  
HETATM    9  C   UNK A   1      -7.471   8.633  64.674  1.00  0.00    -0.102 C  
HETATM   10  C   UNK A   1      -6.401  10.306  66.193  1.00  0.00    -0.094 C  
HETATM   11  O   UNK A   1     -10.207   8.589  66.173  1.00  0.00    -0.173 OA 
HETATM   12  O   UNK A   1      -7.737   7.335  64.950  1.00  0.00    -0.101 OA 
HETATM   13  O   UNK A   1      -7.035   8.990  63.595  1.00  0.00    -0.089 OA 
ENDROOT
BRANCH   7  14
HETATM   14  C   UNK A   1     -10.240   8.378  68.585  1.00  0.00    -0.201 C  
HETATM   15  C   UNK A   1     -10.565   6.878  68.673  1.00  0.00    -0.254 C  
BRANCH  14  16
HETATM   16  N   UNK A   1     -11.463   9.205  68.733  1.00  0.00    -0.128 NA 
HETATM   17  H   UNK A   1     -12.259   8.626  69.000  1.00  0.00     0.000 HD 
BRANCH  16  18
HETATM   18  C   UNK A   0     -11.297  10.349  69.682  1.00  0.00    -0.272 C  
BRANCH  18  19
HETATM   19  C   UNK A   0     -12.161  11.533  69.247  1.00  0.00    -0.344 C  
BRANCH  19  20
HETATM   20  C   UNK A   0     -11.575  12.361  68.093  1.00  0.00    -0.395 C  
BRANCH  20  21
HETATM   21  C   UNK A   0     -11.348  13.760  68.614  1.00  0.00    -0.321 A  
HETATM   22  C   UNK A   0     -10.587  13.969  69.772  1.00  0.00     0.264 A  
HETATM   23  C   UNK A   0     -11.740  14.863  67.842  1.00  0.00    -0.344 A  
HETATM   24  C   UNK A   0     -10.181  15.255  70.125  1.00  0.00    -0.166 A  
HETATM   25  C   UNK A   0     -11.336  16.148  68.199  1.00  0.00    -0.270 A  
HETATM   26  C   UNK A   0     -10.543  16.341  69.328  1.00  0.00    -0.293 A  
ENDBRANCH  20  21
ENDBRANCH  19  20
ENDBRANCH  18  19
BRANCH  18  27
HETATM   27  C   UNK A   0     -11.663   9.896  71.109  1.00  0.00    -0.396 C  
HETATM   28  O   UNK A   0     -12.793   9.852  71.576  1.00  0.00    -0.355 OA 
BRANCH  27  29
HETATM   29  O   UNK A   0     -10.521   9.542  71.774  1.00  0.00    -0.182 OA 
BRANCH  29  30
HETATM   30  C   UNK A   0     -10.268   8.133  71.895  1.00  0.00    -0.224 C  
HETATM   31  C   UNK A   0      -9.732   7.794  73.274  1.00  0.00    -0.357 C  
ENDBRANCH  29  30
ENDBRANCH  27  29
ENDBRANCH  18  27
ENDBRANCH  16  18
ENDBRANCH  14  16
ENDBRANCH   7  14
TORSDOF 9
ENDMDL
MODEL      242
REMARK 921   NORMALIZED FREE ENERGY PREDICTED BY IDOCK:   -3.14 KCAL/MOL
REMARK 922        TOTAL FREE ENERGY PREDICTED BY IDOCK:   -6.42 KCAL/MOL
REMARK 923 INTER-LIGAND FREE ENERGY PREDICTED BY IDOCK:   -6.05 KCAL/MOL
REMARK 924 INTRA-LIGAND FREE ENERGY PREDICTED BY IDOCK:   -0.37 KCAL/MOL
REMARK 927      BINDING AFFINITY PREDICTED BY RF-SCORE:    0.00 PKD
ROOT
HETATM    1  C   UNK A   1      -7.811  12.927  67.894  1.00  0.00    -0.151 C  
HETATM    2  C   UNK A   1      -6.902  12.089  66.973  1.00  0.00    -0.097 C  
HETATM    3  C   UNK A   1      -7.236  10.632  67.265  1.00  0.00    -0.091 C  
HETATM    4  C   UNK A   1      -7.942  10.670  68.609  1.00  0.00    -0.128 C  
HETATM    5  C   UNK A   1      -8.791  11.937  68.547  1.00  0.00    -0.108 C  
HETATM    6  N   UNK A   1      -9.957  11.935  67.650  1.00  0.00    -0.187 N  
HETATM    7  C   UNK A   1     -11.174  11.287  67.864  1.00  0.00    -0.290 C  
HETATM    8  C   UNK A   1      -9.978  13.176  66.825  1.00  0.00    -0.250 C  
HETATM    9  C   UNK A   1     -10.069  13.027  65.294  1.00  0.00    -0.231 C  
HETATM   10  C   UNK A   1      -8.689  13.934  67.170  1.00  0.00    -0.233 C  
HETATM   11  O   UNK A   1     -12.128  11.567  67.127  1.00  0.00    -0.494 OA 
HETATM   12  O   UNK A   1     -10.121  11.744  64.866  1.00  0.00    -0.246 OA 
HETATM   13  O   UNK A   1     -10.052  13.967  64.519  1.00  0.00    -0.331 OA 
ENDROOT
BRANCH   7  14
HETATM   14  C   UNK A   1     -11.329  10.189  68.952  1.00  0.00    -0.120 C  
HETATM   15  C   UNK A   1     -11.191  10.823  70.346  1.00  0.00    -0.270 C  
BRANCH  14  16
HETATM   16  N   UNK A   1     -10.318   9.124  68.741  1.00  0.00    -0.211 NA 
HETATM   17  H   UNK A   1      -9.454   9.345  69.236  1.00  0.00     0.000 HD 
BRANCH  16  18
HETATM   18  C   UNK A   0     -10.805   7.759  69.108  1.00  0.00    -0.052 C  
BRANCH  18  19
HETATM   19  C   UNK A   0     -10.833   6.853  67.877  1.00  0.00    -0.287 C  
BRANCH  19  20
HETATM   20  C   UNK A   0      -9.893   7.286  66.743  1.00  0.00    -0.281 C  
BRANCH  20  21
HETATM   21  C   UNK A   0      -9.462   6.037  66.013  1.00  0.00    -0.068 A  
HETATM   22  C   UNK A   0     -10.297   4.912  65.981  1.00  0.00    -0.307 A  
HETATM   23  C   UNK A   0      -8.309   6.059  65.215  1.00  0.00    -0.148 A  
HETATM   24  C   UNK A   0     -10.014   3.849  65.125  1.00  0.00    -0.171 A  
HETATM   25  C   UNK A   0      -8.027   4.993  64.362  1.00  0.00    -0.104 A  
HETATM   26  C   UNK A   0      -8.887   3.899  64.304  1.00  0.00    -0.124 A  
ENDBRANCH  20  21
ENDBRANCH  19  20
ENDBRANCH  18  19
BRANCH  18  27
HETATM   27  C   UNK A   0      -9.904   7.165  70.208  1.00  0.00    -0.176 C  
HETATM   28  O   UNK A   0      -8.961   7.732  70.741  1.00  0.00    -0.145 OA 
BRANCH  27  29
HETATM   29  O   UNK A   0     -10.331   5.899  70.503  1.00  0.00    -0.206 OA 
BRANCH  29  30
HETATM   30  C   UNK A   0     -10.088   5.443  71.843  1.00  0.00    -0.193 C  
HETATM   31  C   UNK A   0     -11.350   5.529  72.683  1.00  0.00    -0.346 C  
ENDBRANCH  29  30
ENDBRANCH  27  29
ENDBRANCH  18  27
ENDBRANCH  16  18
ENDBRANCH  14  16
ENDBRANCH   7  14
TORSDOF 9
ENDMDL
MODEL      243
REMARK 921   NORMALIZED FREE ENERGY PREDICTED BY IDOCK:   -3.13 KCAL/MOL
REMARK 922        TOTAL FREE ENERGY PREDICTED BY IDOCK:   -6.41 KCAL/MOL
REMARK 923 INTER-LIGAND FREE ENERGY PREDICTED BY IDOCK:   -5.40 KCAL/MOL
REMARK 924 INTRA-LIGAND FREE ENERGY PREDICTED BY IDOCK:   -1.01 KCAL/MOL
REMARK 927      BINDING AFFINITY PREDICTED BY RF-SCORE:    0.00 PKD
ROOT
HETATM    1  C   UNK A   1      -9.486  12.416  68.103  1.00  0.00    -0.214 C  
HETATM    2  C   UNK A   1      -8.089  12.644  67.493  1.00  0.00    -0.178 C  
HETATM    3  C   UNK A   1      -7.248  11.443  67.908  1.00  0.00    -0.084 C  
HETATM    4  C   UNK A   1      -8.008  10.838  69.075  1.00  0.00    -0.137 C  
HETATM    5  C   UNK A   1      -9.475  10.992  68.684  1.00  0.00    -0.195 C  
HETATM    6  N   UNK A   1      -9.983  10.150  67.589  1.00  0.00    -0.174 N  
HETATM    7  C   UNK A   1     -10.278   8.788  67.651  1.00  0.00    -0.239 C  
HETATM    8  C   UNK A   1     -10.755  10.975  66.617  1.00  0.00    -0.249 C  
HETATM    9  C   UNK A   1     -10.355  10.908  65.130  1.00  0.00    -0.278 C  
HETATM   10  C   UNK A   1     -10.625  12.426  67.098  1.00  0.00    -0.247 C  
HETATM   11  O   UNK A   1     -10.906   8.278  66.716  1.00  0.00    -0.188 OA 
HETATM   12  O   UNK A   1      -9.314  10.081  64.875  1.00  0.00    -0.224 OA 
HETATM   13  O   UNK A   1     -10.887  11.567  64.256  1.00  0.00    -0.327 OA 
ENDROOT
BRANCH   7  14
HETATM   14  C   UNK A   1      -9.779   7.902  68.826  1.00  0.00    -0.158 C  
HETATM   15  C   UNK A   1     -10.297   8.472  70.156  1.00  0.00    -0.214 C  
BRANCH  14  16
HETATM   16  N   UNK A   1      -8.298   7.831  68.810  1.00  0.00    -0.128 NA 
HETATM   17  H   UNK A   1      -7.907   8.254  69.652  1.00  0.00     0.000 HD 
BRANCH  16  18
HETATM   18  C   UNK A   0      -7.770   6.444  68.620  1.00  0.00    -0.101 C  
BRANCH  18  19
HETATM   19  C   UNK A   0      -8.357   5.500  69.669  1.00  0.00    -0.102 C  
BRANCH  19  20
HETATM   20  C   UNK A   0      -7.582   5.457  70.995  1.00  0.00    -0.090 C  
BRANCH  20  21
HETATM   21  C   UNK A   0      -8.493   6.008  72.065  1.00  0.00    -0.121 A  
HETATM   22  C   UNK A   0      -8.105   7.123  72.820  1.00  0.00    -0.119 A  
HETATM   23  C   UNK A   0      -9.803   5.521  72.184  1.00  0.00    -0.198 A  
HETATM   24  C   UNK A   0      -9.025   7.773  73.640  1.00  0.00    -0.335 A  
HETATM   25  C   UNK A   0     -10.720   6.171  73.008  1.00  0.00    -0.276 A  
HETATM   26  C   UNK A   0     -10.337   7.305  73.720  1.00  0.00    -0.360 A  
ENDBRANCH  20  21
ENDBRANCH  19  20
ENDBRANCH  18  19
BRANCH  18  27
HETATM   27  C   UNK A   0      -8.097   5.955  67.195  1.00  0.00    -0.102 C  
HETATM   28  O   UNK A   0      -8.878   5.059  66.910  1.00  0.00    -0.108 OA 
BRANCH  27  29
HETATM   29  O   UNK A   0      -7.378   6.691  66.292  1.00  0.00    -0.070 OA 
BRANCH  29  30
HETATM   30  C   UNK A   0      -7.936   6.797  64.973  1.00  0.00    -0.125 C  
HETATM   31  C   UNK A   0      -7.010   7.573  64.053  1.00  0.00    -0.058 C  
ENDBRANCH  29  30
ENDBRANCH  27  29
ENDBRANCH  18  27
ENDBRANCH  16  18
ENDBRANCH  14  16
ENDBRANCH   7  14
TORSDOF 9
ENDMDL
MODEL      244
REMARK 921   NORMALIZED FREE ENERGY PREDICTED BY IDOCK:   -3.10 KCAL/MOL
REMARK 922        TOTAL FREE ENERGY PREDICTED BY IDOCK:   -6.36 KCAL/MOL
REMARK 923 INTER-LIGAND FREE ENERGY PREDICTED BY IDOCK:   -5.51 KCAL/MOL
REMARK 924 INTRA-LIGAND FREE ENERGY PREDICTED BY IDOCK:   -0.84 KCAL/MOL
REMARK 927      BINDING AFFINITY PREDICTED BY RF-SCORE:    0.00 PKD
ROOT
HETATM    1  C   UNK A   1     -12.467  13.477  71.499  1.00  0.00    -0.289 C  
HETATM    2  C   UNK A   1     -13.909  13.844  71.099  1.00  0.00    -0.006 C  
HETATM    3  C   UNK A   1     -13.848  15.270  70.567  1.00  0.00     0.183 C  
HETATM    4  C   UNK A   1     -12.532  15.812  71.096  1.00  0.00    -0.490 C  
HETATM    5  C   UNK A   1     -11.575  14.627  71.000  1.00  0.00    -0.227 C  
HETATM    6  N   UNK A   1     -11.150  14.199  69.658  1.00  0.00    -0.417 N  
HETATM    7  C   UNK A   1     -10.230  14.842  68.829  1.00  0.00    -0.239 C  
HETATM    8  C   UNK A   1     -11.280  12.721  69.520  1.00  0.00    -0.077 C  
HETATM    9  C   UNK A   1     -12.097  12.173  68.332  1.00  0.00    -0.036 C  
HETATM   10  C   UNK A   1     -11.920  12.230  70.825  1.00  0.00    -0.101 C  
HETATM   11  O   UNK A   1      -9.813  14.239  67.833  1.00  0.00    -0.218 OA 
HETATM   12  O   UNK A   1     -12.615  13.132  67.529  1.00  0.00     0.024 OA 
HETATM   13  O   UNK A   1     -12.304  10.988  68.143  1.00  0.00    -0.402 OA 
ENDROOT
BRANCH   7  14
HETATM   14  C   UNK A   1      -9.778  16.304  69.097  1.00  0.00    -0.265 C  
HETATM   15  C   UNK A   1     -10.806  17.278  68.499  1.00  0.00    -0.240 C  
BRANCH  14  16
HETATM   16  N   UNK A   1      -8.427  16.526  68.525  1.00  0.00    -0.215 NA 
HETATM   17  H   UNK A   1      -8.329  16.041  67.634  1.00  0.00     0.000 HD 
BRANCH  16  18
HETATM   18  C   UNK A   0      -8.072  17.972  68.383  1.00  0.00    -0.298 C  
BRANCH  18  19
HETATM   19  C   UNK A   0      -6.763  18.275  69.112  1.00  0.00    -0.259 C  
BRANCH  19  20
HETATM   20  C   UNK A   0      -5.600  17.338  68.754  1.00  0.00    -0.153 C  
BRANCH  20  21
HETATM   21  C   UNK A   0      -5.626  16.193  69.738  1.00  0.00    -0.148 A  
HETATM   22  C   UNK A   0      -5.619  14.868  69.282  1.00  0.00    -0.093 A  
HETATM   23  C   UNK A   0      -5.472  16.448  71.109  1.00  0.00     0.122 A  
HETATM   24  C   UNK A   0      -5.409  13.818  70.174  1.00  0.00    -0.102 A  
HETATM   25  C   UNK A   0      -5.266  15.396  71.998  1.00  0.00     0.055 A  
HETATM   26  C   UNK A   0      -5.217  14.085  71.530  1.00  0.00    -0.180 A  
ENDBRANCH  20  21
ENDBRANCH  19  20
ENDBRANCH  18  19
BRANCH  18  27
HETATM   27  C   UNK A   0      -7.966  18.336  66.889  1.00  0.00    -0.236 C  
HETATM   28  O   UNK A   0      -8.344  17.640  65.957  1.00  0.00    -0.497 OA 
BRANCH  27  29
HETATM   29  O   UNK A   0      -7.387  19.570  66.767  1.00  0.00    -0.217 OA 
BRANCH  29  30
HETATM   30  C   UNK A   0      -6.465  19.734  65.679  1.00  0.00    -0.241 C  
HETATM   31  C   UNK A   0      -5.507  20.881  65.947  1.00  0.00    -0.250 C  
ENDBRANCH  29  30
ENDBRANCH  27  29
ENDBRANCH  18  27
ENDBRANCH  16  18
ENDBRANCH  14  16
ENDBRANCH   7  14
TORSDOF 9
ENDMDL
MODEL      245
REMARK 921   NORMALIZED FREE ENERGY PREDICTED BY IDOCK:   -3.09 KCAL/MOL
REMARK 922        TOTAL FREE ENERGY PREDICTED BY IDOCK:   -6.35 KCAL/MOL
REMARK 923 INTER-LIGAND FREE ENERGY PREDICTED BY IDOCK:   -6.41 KCAL/MOL
REMARK 924 INTRA-LIGAND FREE ENERGY PREDICTED BY IDOCK:    0.06 KCAL/MOL
REMARK 927      BINDING AFFINITY PREDICTED BY RF-SCORE:    0.00 PKD
ROOT
HETATM    1  C   UNK A   1     -12.460  14.161  65.519  1.00  0.00    -0.495 C  
HETATM    2  C   UNK A   1     -12.249  15.054  64.281  1.00  0.00    -0.312 C  
HETATM    3  C   UNK A   1     -11.025  15.909  64.582  1.00  0.00    -0.323 C  
HETATM    4  C   UNK A   1     -10.869  15.823  66.090  1.00  0.00    -0.240 C  
HETATM    5  C   UNK A   1     -11.232  14.378  66.421  1.00  0.00    -0.345 C  
HETATM    6  N   UNK A   1     -10.290  13.325  66.010  1.00  0.00    -0.283 N  
HETATM    7  C   UNK A   1      -9.069  13.018  66.610  1.00  0.00    -0.176 C  
HETATM    8  C   UNK A   1     -11.017  12.217  65.328  1.00  0.00    -0.304 C  
HETATM    9  C   UNK A   1     -10.535  11.787  63.928  1.00  0.00    -0.390 C  
HETATM   10  C   UNK A   1     -12.479  12.670  65.229  1.00  0.00    -0.483 C  
HETATM   11  O   UNK A   1      -8.503  11.965  66.289  1.00  0.00    -0.104 OA 
HETATM   12  O   UNK A   1      -9.474  12.492  63.469  1.00  0.00    -0.055 OA 
HETATM   13  O   UNK A   1     -11.076  10.924  63.262  1.00  0.00     0.062 OA 
ENDROOT
BRANCH   7  14
HETATM   14  C   UNK A   1      -8.386  13.993  67.609  1.00  0.00    -0.187 C  
HETATM   15  C   UNK A   1      -9.429  14.521  68.606  1.00  0.00    -0.205 C  
BRANCH  14  16
HETATM   16  N   UNK A   1      -7.739  15.103  66.867  1.00  0.00    -0.288 NA 
HETATM   17  H   UNK A   1      -8.366  15.904  66.798  1.00  0.00     0.000 HD 
BRANCH  16  18
HETATM   18  C   UNK A   0      -6.418  15.510  67.437  1.00  0.00    -0.109 C  
BRANCH  18  19
HETATM   19  C   UNK A   0      -6.613  16.513  68.574  1.00  0.00    -0.139 C  
BRANCH  19  20
HETATM   20  C   UNK A   0      -6.351  17.976  68.188  1.00  0.00    -0.185 C  
BRANCH  20  21
HETATM   21  C   UNK A   0      -6.136  18.748  69.467  1.00  0.00    -0.285 A  
HETATM   22  C   UNK A   0      -5.620  18.108  70.602  1.00  0.00    -0.145 A  
HETATM   23  C   UNK A   0      -6.278  20.144  69.471  1.00  0.00    -0.370 A  
HETATM   24  C   UNK A   0      -5.204  18.854  71.703  1.00  0.00    -0.285 A  
HETATM   25  C   UNK A   0      -5.864  20.887  70.575  1.00  0.00     0.249 A  
HETATM   26  C   UNK A   0      -5.312  20.245  71.681  1.00  0.00    -0.404 A  
ENDBRANCH  20  21
ENDBRANCH  19  20
ENDBRANCH  18  19
BRANCH  18  27
HETATM   27  C   UNK A   0      -5.658  14.262  67.928  1.00  0.00    -0.093 C  
HETATM   28  O   UNK A   0      -5.539  13.212  67.313  1.00  0.00    -0.349 OA 
BRANCH  27  29
HETATM   29  O   UNK A   0      -5.126  14.518  69.163  1.00  0.00    -0.080 OA 
BRANCH  29  30
HETATM   30  C   UNK A   0      -5.213  13.454  70.123  1.00  0.00    -0.097 C  
HETATM   31  C   UNK A   0      -6.102  13.846  71.290  1.00  0.00     0.009 C  
ENDBRANCH  29  30
ENDBRANCH  27  29
ENDBRANCH  18  27
ENDBRANCH  16  18
ENDBRANCH  14  16
ENDBRANCH   7  14
TORSDOF 9
ENDMDL
MODEL      246
REMARK 921   NORMALIZED FREE ENERGY PREDICTED BY IDOCK:   -3.06 KCAL/MOL
REMARK 922        TOTAL FREE ENERGY PREDICTED BY IDOCK:   -6.31 KCAL/MOL
REMARK 923 INTER-LIGAND FREE ENERGY PREDICTED BY IDOCK:   -5.55 KCAL/MOL
REMARK 924 INTRA-LIGAND FREE ENERGY PREDICTED BY IDOCK:   -0.76 KCAL/MOL
REMARK 927      BINDING AFFINITY PREDICTED BY RF-SCORE:    0.00 PKD
ROOT
HETATM    1  C   UNK A   1      -6.109   9.787  67.626  1.00  0.00    -0.051 C  
HETATM    2  C   UNK A   1      -5.322   8.462  67.668  1.00  0.00    -0.034 C  
HETATM    3  C   UNK A   1      -6.054   7.568  68.659  1.00  0.00    -0.028 C  
HETATM    4  C   UNK A   1      -6.912   8.526  69.467  1.00  0.00    -0.048 C  
HETATM    5  C   UNK A   1      -7.392   9.551  68.442  1.00  0.00    -0.076 C  
HETATM    6  N   UNK A   1      -8.379   9.109  67.445  1.00  0.00    -0.115 N  
HETATM    7  C   UNK A   1      -9.738   8.881  67.659  1.00  0.00    -0.161 C  
HETATM    8  C   UNK A   1      -7.964   9.539  66.079  1.00  0.00    -0.107 C  
HETATM    9  C   UNK A   1      -7.870   8.464  64.978  1.00  0.00    -0.118 C  
HETATM   10  C   UNK A   1      -6.587  10.196  66.244  1.00  0.00    -0.094 C  
HETATM   11  O   UNK A   1     -10.474   8.733  66.676  1.00  0.00    -0.264 OA 
HETATM   12  O   UNK A   1      -8.187   7.216  65.396  1.00  0.00    -0.131 OA 
HETATM   13  O   UNK A   1      -7.503   8.691  63.839  1.00  0.00    -0.106 OA 
ENDROOT
BRANCH   7  14
HETATM   14  C   UNK A   1     -10.323   8.746  69.093  1.00  0.00    -0.217 C  
HETATM   15  C   UNK A   1      -9.978  10.003  69.909  1.00  0.00    -0.280 C  
BRANCH  14  16
HETATM   16  N   UNK A   1      -9.793   7.521  69.740  1.00  0.00    -0.178 NA 
HETATM   17  H   UNK A   1      -9.364   7.744  70.637  1.00  0.00     0.000 HD 
BRANCH  16  18
HETATM   18  C   UNK A   0     -10.815   6.440  69.895  1.00  0.00    -0.310 C  
BRANCH  18  19
HETATM   19  C   UNK A   0     -10.170   5.065  69.719  1.00  0.00    -0.336 C  
BRANCH  19  20
HETATM   20  C   UNK A   0      -8.922   5.055  68.823  1.00  0.00    -0.126 C  
BRANCH  20  21
HETATM   21  C   UNK A   0      -9.326   4.461  67.496  1.00  0.00    -0.183 A  
HETATM   22  C   UNK A   0     -10.387   5.014  66.766  1.00  0.00    -0.290 A  
HETATM   23  C   UNK A   0      -8.527   3.472  66.903  1.00  0.00    -0.106 A  
HETATM   24  C   UNK A   0     -10.613   4.623  65.448  1.00  0.00    -0.167 A  
HETATM   25  C   UNK A   0      -8.758   3.081  65.586  1.00  0.00    -0.128 A  
HETATM   26  C   UNK A   0      -9.788   3.668  64.854  1.00  0.00    -0.164 A  
ENDBRANCH  20  21
ENDBRANCH  19  20
ENDBRANCH  18  19
BRANCH  18  27
HETATM   27  C   UNK A   0     -11.490   6.558  71.275  1.00  0.00    -0.318 C  
HETATM   28  O   UNK A   0     -10.989   6.239  72.344  1.00  0.00    -0.230 OA 
BRANCH  27  29
HETATM   29  O   UNK A   0     -12.742   7.088  71.119  1.00  0.00    -0.381 OA 
BRANCH  29  30
HETATM   30  C   UNK A   0     -12.906   8.457  71.518  1.00  0.00    -0.303 C  
HETATM   31  C   UNK A   0     -14.218   8.654  72.258  1.00  0.00    -0.497 C  
ENDBRANCH  29  30
ENDBRANCH  27  29
ENDBRANCH  18  27
ENDBRANCH  16  18
ENDBRANCH  14  16
ENDBRANCH   7  14
TORSDOF 9
ENDMDL
MODEL      247
REMARK 921   NORMALIZED FREE ENERGY PREDICTED BY IDOCK:   -3.00 KCAL/MOL
REMARK 922        TOTAL FREE ENERGY PREDICTED BY IDOCK:   -6.21 KCAL/MOL
REMARK 923 INTER-LIGAND FREE ENERGY PREDICTED BY IDOCK:   -6.40 KCAL/MOL
REMARK 924 INTRA-LIGAND FREE ENERGY PREDICTED BY IDOCK:    0.19 KCAL/MOL
REMARK 927      BINDING AFFINITY PREDICTED BY RF-SCORE:    0.00 PKD
ROOT
HETATM    1  C   UNK A   1      -8.614   6.581  69.897  1.00  0.00    -0.139 C  
HETATM    2  C   UNK A   1      -7.640   6.758  71.079  1.00  0.00    -0.085 C  
HETATM    3  C   UNK A   1      -7.313   8.244  71.135  1.00  0.00    -0.070 C  
HETATM    4  C   UNK A   1      -7.709   8.768  69.766  1.00  0.00    -0.084 C  
HETATM    5  C   UNK A   1      -8.983   7.999  69.428  1.00  0.00    -0.148 C  
HETATM    6  N   UNK A   1     -10.201   8.326  70.185  1.00  0.00    -0.196 N  
HETATM    7  C   UNK A   1     -11.001   9.458  70.031  1.00  0.00    -0.239 C  
HETATM    8  C   UNK A   1     -10.864   7.079  70.664  1.00  0.00    -0.246 C  
HETATM    9  C   UNK A   1     -11.176   6.957  72.169  1.00  0.00    -0.258 C  
HETATM   10  C   UNK A   1      -9.936   5.926  70.259  1.00  0.00    -0.247 C  
HETATM   11  O   UNK A   1     -12.108   9.477  70.582  1.00  0.00    -0.252 OA 
HETATM   12  O   UNK A   1     -10.800   8.033  72.900  1.00  0.00    -0.366 OA 
HETATM   13  O   UNK A   1     -11.677   5.971  72.678  1.00  0.00    -0.262 OA 
ENDROOT
BRANCH   7  14
HETATM   14  C   UNK A   1     -10.503  10.704  69.246  1.00  0.00    -0.227 C  
HETATM   15  C   UNK A   1     -11.571  11.808  69.304  1.00  0.00    -0.378 C  
BRANCH  14  16
HETATM   16  N   UNK A   1     -10.194  10.326  67.846  1.00  0.00    -0.173 NA 
HETATM   17  H   UNK A   1     -11.049  10.110  67.333  1.00  0.00     0.000 HD 
BRANCH  16  18
HETATM   18  C   UNK A   0      -9.383  11.350  67.117  1.00  0.00    -0.172 C  
BRANCH  18  19
HETATM   19  C   UNK A   0     -10.267  12.147  66.157  1.00  0.00    -0.254 C  
BRANCH  19  20
HETATM   20  C   UNK A   0     -11.017  11.295  65.123  1.00  0.00    -0.216 C  
BRANCH  20  21
HETATM   21  C   UNK A   0      -9.988  10.723  64.179  1.00  0.00    -0.405 A  
HETATM   22  C   UNK A   0      -9.500  11.492  63.114  1.00  0.00    -0.332 A  
HETATM   23  C   UNK A   0      -9.384   9.491  64.470  1.00  0.00    -0.164 A  
HETATM   24  C   UNK A   0      -8.392  11.062  62.385  1.00  0.00    -0.286 A  
HETATM   25  C   UNK A   0      -8.279   9.062  63.738  1.00  0.00    -0.173 A  
HETATM   26  C   UNK A   0      -7.774   9.854  62.709  1.00  0.00    -0.131 A  
ENDBRANCH  20  21
ENDBRANCH  19  20
ENDBRANCH  18  19
BRANCH  18  27
HETATM   27  C   UNK A   0      -8.692  12.282  68.132  1.00  0.00    -0.186 C  
HETATM   28  O   UNK A   0      -7.806  11.958  68.910  1.00  0.00    -0.090 OA 
BRANCH  27  29
HETATM   29  O   UNK A   0      -9.223  13.539  68.021  1.00  0.00    -0.194 OA 
BRANCH  29  30
HETATM   30  C   UNK A   0      -8.285  14.608  67.820  1.00  0.00    -0.162 C  
HETATM   31  C   UNK A   0      -8.551  15.323  66.507  1.00  0.00    -0.264 C  
ENDBRANCH  29  30
ENDBRANCH  27  29
ENDBRANCH  18  27
ENDBRANCH  16  18
ENDBRANCH  14  16
ENDBRANCH   7  14
TORSDOF 9
ENDMDL
MODEL      248
REMARK 921   NORMALIZED FREE ENERGY PREDICTED BY IDOCK:   -2.99 KCAL/MOL
REMARK 922        TOTAL FREE ENERGY PREDICTED BY IDOCK:   -6.20 KCAL/MOL
REMARK 923 INTER-LIGAND FREE ENERGY PREDICTED BY IDOCK:   -7.00 KCAL/MOL
REMARK 924 INTRA-LIGAND FREE ENERGY PREDICTED BY IDOCK:    0.80 KCAL/MOL
REMARK 927      BINDING AFFINITY PREDICTED BY RF-SCORE:    0.00 PKD
ROOT
HETATM    1  C   UNK A   1      -5.993   8.207  66.745  1.00  0.00    -0.052 C  
HETATM    2  C   UNK A   1      -6.124   8.635  65.270  1.00  0.00    -0.049 C  
HETATM    3  C   UNK A   1      -7.604   8.524  64.930  1.00  0.00    -0.098 C  
HETATM    4  C   UNK A   1      -8.173   7.627  66.016  1.00  0.00    -0.128 C  
HETATM    5  C   UNK A   1      -7.428   8.053  67.278  1.00  0.00    -0.093 C  
HETATM    6  N   UNK A   1      -7.746   9.372  67.847  1.00  0.00    -0.088 N  
HETATM    7  C   UNK A   1      -8.892   9.718  68.565  1.00  0.00    -0.121 C  
HETATM    8  C   UNK A   1      -6.494  10.119  68.156  1.00  0.00    -0.057 C  
HETATM    9  C   UNK A   1      -6.330  11.535  67.568  1.00  0.00    -0.076 C  
HETATM   10  C   UNK A   1      -5.343   9.240  67.649  1.00  0.00    -0.037 C  
HETATM   11  O   UNK A   1      -8.906  10.798  69.167  1.00  0.00    -0.156 OA 
HETATM   12  O   UNK A   1      -7.379  11.945  66.817  1.00  0.00    -0.110 OA 
HETATM   13  O   UNK A   1      -5.335  12.220  67.719  1.00  0.00    -0.063 OA 
ENDROOT
BRANCH   7  14
HETATM   14  C   UNK A   1     -10.154   8.812  68.565  1.00  0.00    -0.189 C  
HETATM   15  C   UNK A   1     -10.698   8.688  67.132  1.00  0.00    -0.199 C  
BRANCH  14  16
HETATM   16  N   UNK A   1     -11.176   9.372  69.483  1.00  0.00    -0.429 NA 
HETATM   17  H   UNK A   1     -10.970   9.119  70.449  1.00  0.00     0.000 HD 
BRANCH  16  18
HETATM   18  C   UNK A   0     -11.351  10.851  69.348  1.00  0.00    -0.280 C  
BRANCH  18  19
HETATM   19  C   UNK A   0     -12.022  11.191  68.017  1.00  0.00    -0.076 C  
BRANCH  19  20
HETATM   20  C   UNK A   0     -11.565  12.517  67.391  1.00  0.00    -0.434 C  
BRANCH  20  21
HETATM   21  C   UNK A   0     -11.449  12.295  65.902  1.00  0.00    -0.428 A  
HETATM   22  C   UNK A   0     -10.435  11.477  65.385  1.00  0.00    -0.333 A  
HETATM   23  C   UNK A   0     -12.461  12.757  65.048  1.00  0.00    -0.572 A  
HETATM   24  C   UNK A   0     -10.462  11.084  64.049  1.00  0.00    -0.433 A  
HETATM   25  C   UNK A   0     -12.483  12.365  63.711  1.00  0.00    -0.593 A  
HETATM   26  C   UNK A   0     -11.496  11.516  63.217  1.00  0.00    -0.180 A  
ENDBRANCH  20  21
ENDBRANCH  19  20
ENDBRANCH  18  19
BRANCH  18  27
HETATM   27  C   UNK A   0     -12.177  11.386  70.534  1.00  0.00    -0.386 C  
HETATM   28  O   UNK A   0     -12.942  10.728  71.225  1.00  0.00    -0.376 OA 
BRANCH  27  29
HETATM   29  O   UNK A   0     -11.914  12.719  70.700  1.00  0.00    -0.300 OA 
BRANCH  29  30
HETATM   30  C   UNK A   0     -13.052  13.569  70.909  1.00  0.00    -0.075 C  
HETATM   31  C   UNK A   0     -13.240  13.870  72.386  1.00  0.00    -0.587 C  
ENDBRANCH  29  30
ENDBRANCH  27  29
ENDBRANCH  18  27
ENDBRANCH  16  18
ENDBRANCH  14  16
ENDBRANCH   7  14
TORSDOF 9
ENDMDL
MODEL      249
REMARK 921   NORMALIZED FREE ENERGY PREDICTED BY IDOCK:   -2.95 KCAL/MOL
REMARK 922        TOTAL FREE ENERGY PREDICTED BY IDOCK:   -6.14 KCAL/MOL
REMARK 923 INTER-LIGAND FREE ENERGY PREDICTED BY IDOCK:   -5.29 KCAL/MOL
REMARK 924 INTRA-LIGAND FREE ENERGY PREDICTED BY IDOCK:   -0.85 KCAL/MOL
REMARK 927      BINDING AFFINITY PREDICTED BY RF-SCORE:    0.00 PKD
ROOT
HETATM    1  C   UNK A   1      -6.624   7.739  63.985  1.00  0.00    -0.057 C  
HETATM    2  C   UNK A   1      -5.421   8.202  64.831  1.00  0.00    -0.040 C  
HETATM    3  C   UNK A   1      -5.697   9.655  65.195  1.00  0.00    -0.066 C  
HETATM    4  C   UNK A   1      -6.757  10.096  64.201  1.00  0.00    -0.107 C  
HETATM    5  C   UNK A   1      -7.660   8.874  64.053  1.00  0.00    -0.121 C  
HETATM    6  N   UNK A   1      -8.517   8.516  65.193  1.00  0.00    -0.185 N  
HETATM    7  C   UNK A   1      -9.684   9.165  65.597  1.00  0.00    -0.177 C  
HETATM    8  C   UNK A   1      -8.410   7.057  65.483  1.00  0.00    -0.133 C  
HETATM    9  C   UNK A   1      -8.048   6.629  66.919  1.00  0.00    -0.113 C  
HETATM   10  C   UNK A   1      -7.342   6.514  64.524  1.00  0.00    -0.082 C  
HETATM   11  O   UNK A   1     -10.409   8.609  66.430  1.00  0.00    -0.262 OA 
HETATM   12  O   UNK A   1      -7.865   7.663  67.774  1.00  0.00    -0.115 OA 
HETATM   13  O   UNK A   1      -7.893   5.471  67.261  1.00  0.00    -0.099 OA 
ENDROOT
BRANCH   7  14
HETATM   14  C   UNK A   1     -10.047  10.582  65.075  1.00  0.00    -0.321 C  
HETATM   15  C   UNK A   1      -9.910  10.617  63.544  1.00  0.00    -0.384 C  
BRANCH  14  16
HETATM   16  N   UNK A   1      -9.174  11.595  65.717  1.00  0.00    -0.332 NA 
HETATM   17  H   UNK A   1      -8.805  12.245  65.024  1.00  0.00     0.000 HD 
BRANCH  16  18
HETATM   18  C   UNK A   0      -9.839  12.333  66.834  1.00  0.00    -0.209 C  
BRANCH  18  19
HETATM   19  C   UNK A   0      -8.799  13.039  67.704  1.00  0.00    -0.191 C  
BRANCH  19  20
HETATM   20  C   UNK A   0      -7.348  12.866  67.231  1.00  0.00    -0.077 C  
BRANCH  20  21
HETATM   21  C   UNK A   0      -6.577  12.236  68.365  1.00  0.00    -0.060 A  
HETATM   22  C   UNK A   0      -5.990  13.036  69.354  1.00  0.00    -0.103 A  
HETATM   23  C   UNK A   0      -6.601  10.843  68.534  1.00  0.00    -0.055 A  
HETATM   24  C   UNK A   0      -5.483  12.460  70.517  1.00  0.00    -0.159 A  
HETATM   25  C   UNK A   0      -6.089  10.270  69.697  1.00  0.00    -0.049 A  
HETATM   26  C   UNK A   0      -5.548  11.078  70.693  1.00  0.00    -0.132 A  
ENDBRANCH  20  21
ENDBRANCH  19  20
ENDBRANCH  18  19
BRANCH  18  27
HETATM   27  C   UNK A   0     -10.852  13.342  66.259  1.00  0.00    -0.289 C  
HETATM   28  O   UNK A   0     -12.030  13.430  66.576  1.00  0.00    -0.374 OA 
BRANCH  27  29
HETATM   29  O   UNK A   0     -10.223  14.134  65.338  1.00  0.00    -0.329 OA 
BRANCH  29  30
HETATM   30  C   UNK A   0     -10.350  15.552  65.528  1.00  0.00    -0.394 C  
HETATM   31  C   UNK A   0     -11.287  16.156  64.497  1.00  0.00    -0.273 C  
ENDBRANCH  29  30
ENDBRANCH  27  29
ENDBRANCH  18  27
ENDBRANCH  16  18
ENDBRANCH  14  16
ENDBRANCH   7  14
TORSDOF 9
ENDMDL
MODEL      250
REMARK 921   NORMALIZED FREE ENERGY PREDICTED BY IDOCK:   -2.91 KCAL/MOL
REMARK 922        TOTAL FREE ENERGY PREDICTED BY IDOCK:   -6.07 KCAL/MOL
REMARK 923 INTER-LIGAND FREE ENERGY PREDICTED BY IDOCK:   -5.39 KCAL/MOL
REMARK 924 INTRA-LIGAND FREE ENERGY PREDICTED BY IDOCK:   -0.69 KCAL/MOL
REMARK 927      BINDING AFFINITY PREDICTED BY RF-SCORE:    0.00 PKD
ROOT
HETATM    1  C   UNK A   1     -10.522  15.748  69.669  1.00  0.00    -0.289 C  
HETATM    2  C   UNK A   1     -11.487  16.369  68.640  1.00  0.00    -0.224 C  
HETATM    3  C   UNK A   1     -11.712  15.301  67.577  1.00  0.00    -0.153 C  
HETATM    4  C   UNK A   1     -10.558  14.333  67.768  1.00  0.00    -0.253 C  
HETATM    5  C   UNK A   1     -10.373  14.267  69.281  1.00  0.00    -0.057 C  
HETATM    6  N   UNK A   1     -11.410  13.580  70.067  1.00  0.00    -0.490 N  
HETATM    7  C   UNK A   1     -11.610  12.203  70.163  1.00  0.00    -0.118 C  
HETATM    8  C   UNK A   1     -11.810  14.414  71.236  1.00  0.00    -0.220 C  
HETATM    9  C   UNK A   1     -13.307  14.731  71.422  1.00  0.00    -0.392 C  
HETATM   10  C   UNK A   1     -11.041  15.734  71.096  1.00  0.00    -0.300 C  
HETATM   11  O   UNK A   1     -12.375  11.779  71.038  1.00  0.00    -0.358 OA 
HETATM   12  O   UNK A   1     -14.107  14.197  70.469  1.00  0.00     0.552 OA 
HETATM   13  O   UNK A   1     -13.745  15.434  72.315  1.00  0.00    -0.436 OA 
ENDROOT
BRANCH   7  14
HETATM   14  C   UNK A   1     -10.949  11.215  69.163  1.00  0.00    -0.242 C  
HETATM   15  C   UNK A   1     -11.886  10.992  67.965  1.00  0.00    -0.152 C  
BRANCH  14  16
HETATM   16  N   UNK A   1     -10.638   9.937  69.849  1.00  0.00    -0.252 NA 
HETATM   17  H   UNK A   1     -11.376   9.251  69.686  1.00  0.00     0.000 HD 
BRANCH  16  18
HETATM   18  C   UNK A   0      -9.302   9.374  69.484  1.00  0.00    -0.180 C  
BRANCH  18  19
HETATM   19  C   UNK A   0      -8.438   9.195  70.732  1.00  0.00    -0.256 C  
BRANCH  19  20
HETATM   20  C   UNK A   0      -6.929   9.111  70.458  1.00  0.00    -0.082 C  
BRANCH  20  21
HETATM   21  C   UNK A   0      -6.621  10.075  69.339  1.00  0.00    -0.053 A  
HETATM   22  C   UNK A   0      -6.822  11.451  69.513  1.00  0.00    -0.097 A  
HETATM   23  C   UNK A   0      -5.962   9.618  68.187  1.00  0.00    -0.047 A  
HETATM   24  C   UNK A   0      -6.326  12.359  68.580  1.00  0.00    -0.064 A  
HETATM   25  C   UNK A   0      -5.471  10.529  67.254  1.00  0.00    -0.041 A  
HETATM   26  C   UNK A   0      -5.637  11.896  67.458  1.00  0.00    -0.096 A  
ENDBRANCH  20  21
ENDBRANCH  19  20
ENDBRANCH  18  19
BRANCH  18  27
HETATM   27  C   UNK A   0      -9.487   8.034  68.746  1.00  0.00    -0.147 C  
HETATM   28  O   UNK A   0      -8.751   7.591  67.875  1.00  0.00    -0.124 OA 
BRANCH  27  29
HETATM   29  O   UNK A   0     -10.606   7.408  69.225  1.00  0.00    -0.218 OA 
BRANCH  29  30
HETATM   30  C   UNK A   0     -10.944   6.154  68.611  1.00  0.00    -0.336 C  
HETATM   31  C   UNK A   0     -11.255   6.338  67.137  1.00  0.00    -0.260 C  
ENDBRANCH  29  30
ENDBRANCH  27  29
ENDBRANCH  18  27
ENDBRANCH  16  18
ENDBRANCH  14  16
ENDBRANCH   7  14
TORSDOF 9
ENDMDL
MODEL      251
REMARK 921   NORMALIZED FREE ENERGY PREDICTED BY IDOCK:   -2.90 KCAL/MOL
REMARK 922        TOTAL FREE ENERGY PREDICTED BY IDOCK:   -6.06 KCAL/MOL
REMARK 923 INTER-LIGAND FREE ENERGY PREDICTED BY IDOCK:   -5.58 KCAL/MOL
REMARK 924 INTRA-LIGAND FREE ENERGY PREDICTED BY IDOCK:   -0.47 KCAL/MOL
REMARK 927      BINDING AFFINITY PREDICTED BY RF-SCORE:    0.00 PKD
ROOT
HETATM    1  C   UNK A   1      -9.442   6.807  73.236  1.00  0.00    -0.172 C  
HETATM    2  C   UNK A   1      -8.762   8.189  73.181  1.00  0.00    -0.307 C  
HETATM    3  C   UNK A   1      -8.003   8.232  71.861  1.00  0.00    -0.165 C  
HETATM    4  C   UNK A   1      -7.887   6.775  71.446  1.00  0.00    -0.098 C  
HETATM    5  C   UNK A   1      -9.226   6.165  71.854  1.00  0.00    -0.147 C  
HETATM    6  N   UNK A   1     -10.417   6.553  71.083  1.00  0.00    -0.216 N  
HETATM    7  C   UNK A   1     -10.759   6.121  69.802  1.00  0.00    -0.310 C  
HETATM    8  C   UNK A   1     -11.531   6.922  72.002  1.00  0.00    -0.274 C  
HETATM    9  C   UNK A   1     -12.203   8.296  71.812  1.00  0.00    -0.326 C  
HETATM   10  C   UNK A   1     -10.949   6.851  73.420  1.00  0.00    -0.221 C  
HETATM   11  O   UNK A   1     -11.899   6.359  69.385  1.00  0.00    -0.215 OA 
HETATM   12  O   UNK A   1     -11.684   9.028  70.798  1.00  0.00    -0.281 OA 
HETATM   13  O   UNK A   1     -13.093   8.719  72.527  1.00  0.00    -0.401 OA 
ENDROOT
BRANCH   7  14
HETATM   14  C   UNK A   1      -9.727   5.415  68.880  1.00  0.00    -0.151 C  
HETATM   15  C   UNK A   1      -9.339   4.057  69.488  1.00  0.00    -0.243 C  
BRANCH  14  16
HETATM   16  N   UNK A   1      -8.538   6.283  68.698  1.00  0.00    -0.121 NA 
HETATM   17  H   UNK A   1      -7.716   5.865  69.134  1.00  0.00     0.000 HD 
BRANCH  16  18
HETATM   18  C   UNK A   0      -8.263   6.624  67.268  1.00  0.00    -0.121 C  
BRANCH  18  19
HETATM   19  C   UNK A   0      -9.183   5.828  66.342  1.00  0.00    -0.160 C  
BRANCH  19  20
HETATM   20  C   UNK A   0      -8.651   5.650  64.912  1.00  0.00    -0.086 C  
BRANCH  20  21
HETATM   21  C   UNK A   0      -9.039   4.263  64.457  1.00  0.00    -0.150 A  
HETATM   22  C   UNK A   0      -8.736   3.148  65.250  1.00  0.00    -0.117 A  
HETATM   23  C   UNK A   0      -9.862   4.103  63.333  1.00  0.00    -0.094 A  
HETATM   24  C   UNK A   0      -9.289   1.903  64.954  1.00  0.00    -0.081 A  
HETATM   25  C   UNK A   0     -10.410   2.857  63.038  1.00  0.00    -0.156 A  
HETATM   26  C   UNK A   0     -10.139   1.763  63.857  1.00  0.00    -0.078 A  
ENDBRANCH  20  21
ENDBRANCH  19  20
ENDBRANCH  18  19
BRANCH  18  27
HETATM   27  C   UNK A   0      -8.443   8.140  67.052  1.00  0.00    -0.120 C  
HETATM   28  O   UNK A   0      -7.810   8.827  66.263  1.00  0.00    -0.099 OA 
BRANCH  27  29
HETATM   29  O   UNK A   0      -9.433   8.597  67.879  1.00  0.00    -0.138 OA 
BRANCH  29  30
HETATM   30  C   UNK A   0     -10.507   9.311  67.249  1.00  0.00    -0.264 C  
HETATM   31  C   UNK A   0     -10.631  10.715  67.813  1.00  0.00    -0.275 C  
ENDBRANCH  29  30
ENDBRANCH  27  29
ENDBRANCH  18  27
ENDBRANCH  16  18
ENDBRANCH  14  16
ENDBRANCH   7  14
TORSDOF 9
ENDMDL
MODEL      252
REMARK 921   NORMALIZED FREE ENERGY PREDICTED BY IDOCK:   -2.85 KCAL/MOL
REMARK 922        TOTAL FREE ENERGY PREDICTED BY IDOCK:   -5.98 KCAL/MOL
REMARK 923 INTER-LIGAND FREE ENERGY PREDICTED BY IDOCK:   -6.09 KCAL/MOL
REMARK 924 INTRA-LIGAND FREE ENERGY PREDICTED BY IDOCK:    0.12 KCAL/MOL
REMARK 927      BINDING AFFINITY PREDICTED BY RF-SCORE:    0.00 PKD
ROOT
HETATM    1  C   UNK A   1      -6.459   7.768  64.099  1.00  0.00    -0.057 C  
HETATM    2  C   UNK A   1      -5.289   8.296  64.951  1.00  0.00    -0.036 C  
HETATM    3  C   UNK A   1      -5.593   9.765  65.220  1.00  0.00    -0.059 C  
HETATM    4  C   UNK A   1      -6.628  10.132  64.171  1.00  0.00    -0.113 C  
HETATM    5  C   UNK A   1      -7.510   8.891  64.069  1.00  0.00    -0.112 C  
HETATM    6  N   UNK A   1      -8.398   8.589  65.202  1.00  0.00    -0.161 N  
HETATM    7  C   UNK A   1      -9.584   9.245  65.533  1.00  0.00    -0.220 C  
HETATM    8  C   UNK A   1      -8.282   7.152  65.582  1.00  0.00    -0.138 C  
HETATM    9  C   UNK A   1      -7.958   6.814  67.051  1.00  0.00    -0.109 C  
HETATM   10  C   UNK A   1      -7.180   6.568  64.688  1.00  0.00    -0.064 C  
HETATM   11  O   UNK A   1     -10.327   8.729  66.376  1.00  0.00    -0.271 OA 
HETATM   12  O   UNK A   1      -7.814   7.899  67.848  1.00  0.00    -0.121 OA 
HETATM   13  O   UNK A   1      -7.800   5.680  67.465  1.00  0.00    -0.099 OA 
ENDROOT
BRANCH   7  14
HETATM   14  C   UNK A   1      -9.948  10.624  64.917  1.00  0.00    -0.318 C  
HETATM   15  C   UNK A   1      -9.848  10.546  63.384  1.00  0.00    -0.323 C  
BRANCH  14  16
HETATM   16  N   UNK A   1      -9.050  11.672  65.462  1.00  0.00    -0.401 NA 
HETATM   17  H   UNK A   1      -8.612  12.199  64.708  1.00  0.00     0.000 HD 
BRANCH  16  18
HETATM   18  C   UNK A   0      -9.727  12.591  66.429  1.00  0.00    -0.249 C  
BRANCH  18  19
HETATM   19  C   UNK A   0      -8.733  13.614  66.979  1.00  0.00    -0.204 C  
BRANCH  19  20
HETATM   20  C   UNK A   0      -8.596  13.613  68.509  1.00  0.00    -0.103 C  
BRANCH  20  21
HETATM   21  C   UNK A   0      -9.824  14.288  69.070  1.00  0.00    -0.074 A  
HETATM   22  C   UNK A   0      -9.868  15.683  69.201  1.00  0.00    -0.247 A  
HETATM   23  C   UNK A   0     -10.991  13.541  69.291  1.00  0.00    -0.169 A  
HETATM   24  C   UNK A   0     -11.070  16.324  69.496  1.00  0.00    -0.330 A  
HETATM   25  C   UNK A   0     -12.190  14.185  69.589  1.00  0.00    -0.376 A  
HETATM   26  C   UNK A   0     -12.233  15.575  69.674  1.00  0.00    -0.297 A  
ENDBRANCH  20  21
ENDBRANCH  19  20
ENDBRANCH  18  19
BRANCH  18  27
HETATM   27  C   UNK A   0     -10.911  13.293  65.735  1.00  0.00    -0.270 C  
HETATM   28  O   UNK A   0     -12.092  13.010  65.880  1.00  0.00    -0.412 OA 
BRANCH  27  29
HETATM   29  O   UNK A   0     -10.433  14.293  64.933  1.00  0.00    -0.407 OA 
BRANCH  29  30
HETATM   30  C   UNK A   0     -11.082  15.568  65.054  1.00  0.00    -0.401 C  
HETATM   31  C   UNK A   0     -12.253  15.676  64.093  1.00  0.00     0.048 C  
ENDBRANCH  29  30
ENDBRANCH  27  29
ENDBRANCH  18  27
ENDBRANCH  16  18
ENDBRANCH  14  16
ENDBRANCH   7  14
TORSDOF 9
ENDMDL
MODEL      253
REMARK 921   NORMALIZED FREE ENERGY PREDICTED BY IDOCK:   -2.80 KCAL/MOL
REMARK 922        TOTAL FREE ENERGY PREDICTED BY IDOCK:   -5.90 KCAL/MOL
REMARK 923 INTER-LIGAND FREE ENERGY PREDICTED BY IDOCK:   -5.12 KCAL/MOL
REMARK 924 INTRA-LIGAND FREE ENERGY PREDICTED BY IDOCK:   -0.78 KCAL/MOL
REMARK 927      BINDING AFFINITY PREDICTED BY RF-SCORE:    0.00 PKD
ROOT
HETATM    1  C   UNK A   1      -5.808   6.911  64.348  1.00  0.00    -0.036 C  
HETATM    2  C   UNK A   1      -6.555   6.276  63.159  1.00  0.00    -0.040 C  
HETATM    3  C   UNK A   1      -7.826   5.667  63.736  1.00  0.00    -0.108 C  
HETATM    4  C   UNK A   1      -7.548   5.561  65.226  1.00  0.00    -0.080 C  
HETATM    5  C   UNK A   1      -6.765   6.830  65.550  1.00  0.00    -0.051 C  
HETATM    6  N   UNK A   1      -7.493   8.108  65.520  1.00  0.00    -0.079 N  
HETATM    7  C   UNK A   1      -8.395   8.578  66.475  1.00  0.00    -0.113 C  
HETATM    8  C   UNK A   1      -6.725   9.124  64.746  1.00  0.00    -0.078 C  
HETATM    9  C   UNK A   1      -7.441   9.848  63.589  1.00  0.00    -0.135 C  
HETATM   10  C   UNK A   1      -5.500   8.390  64.185  1.00  0.00    -0.055 C  
HETATM   11  O   UNK A   1      -8.748   9.762  66.420  1.00  0.00    -0.129 OA 
HETATM   12  O   UNK A   1      -8.726   9.462  63.407  1.00  0.00    -0.212 OA 
HETATM   13  O   UNK A   1      -6.902  10.665  62.864  1.00  0.00    -0.093 OA 
ENDROOT
BRANCH   7  14
HETATM   14  C   UNK A   1      -9.005   7.635  67.549  1.00  0.00    -0.126 C  
HETATM   15  C   UNK A   1     -10.460   7.305  67.177  1.00  0.00    -0.394 C  
BRANCH  14  16
HETATM   16  N   UNK A   1      -8.922   8.273  68.885  1.00  0.00    -0.144 NA 
HETATM   17  H   UNK A   1      -9.840   8.597  69.188  1.00  0.00     0.000 HD 
BRANCH  16  18
HETATM   18  C   UNK A   0      -8.298   7.397  69.925  1.00  0.00    -0.134 C  
BRANCH  18  19
HETATM   19  C   UNK A   0      -9.297   7.103  71.045  1.00  0.00    -0.158 C  
BRANCH  19  20
HETATM   20  C   UNK A   0     -10.614   6.468  70.575  1.00  0.00    -0.282 C  
BRANCH  20  21
HETATM   21  C   UNK A   0     -11.741   7.278  71.169  1.00  0.00    -0.334 A  
HETATM   22  C   UNK A   0     -11.545   8.623  71.507  1.00  0.00    -0.368 A  
HETATM   23  C   UNK A   0     -13.036   6.740  71.217  1.00  0.00    -0.216 A  
HETATM   24  C   UNK A   0     -12.631   9.433  71.834  1.00  0.00    -0.481 A  
HETATM   25  C   UNK A   0     -14.119   7.551  71.548  1.00  0.00    -0.550 A  
HETATM   26  C   UNK A   0     -13.919   8.898  71.839  1.00  0.00    -0.476 A  
ENDBRANCH  20  21
ENDBRANCH  19  20
ENDBRANCH  18  19
BRANCH  18  27
HETATM   27  C   UNK A   0      -7.800   6.092  69.274  1.00  0.00    -0.103 C  
HETATM   28  O   UNK A   0      -8.493   5.121  69.003  1.00  0.00    -0.090 OA 
BRANCH  27  29
HETATM   29  O   UNK A   0      -6.456   6.192  69.038  1.00  0.00    -0.039 OA 
BRANCH  29  30
HETATM   30  C   UNK A   0      -5.644   5.114  69.529  1.00  0.00    -0.011 C  
HETATM   31  C   UNK A   0      -5.381   5.266  71.017  1.00  0.00    -0.005 C  
ENDBRANCH  29  30
ENDBRANCH  27  29
ENDBRANCH  18  27
ENDBRANCH  16  18
ENDBRANCH  14  16
ENDBRANCH   7  14
TORSDOF 9
ENDMDL
MODEL      254
REMARK 921   NORMALIZED FREE ENERGY PREDICTED BY IDOCK:   -2.78 KCAL/MOL
REMARK 922        TOTAL FREE ENERGY PREDICTED BY IDOCK:   -5.87 KCAL/MOL
REMARK 923 INTER-LIGAND FREE ENERGY PREDICTED BY IDOCK:   -4.89 KCAL/MOL
REMARK 924 INTRA-LIGAND FREE ENERGY PREDICTED BY IDOCK:   -0.98 KCAL/MOL
REMARK 927      BINDING AFFINITY PREDICTED BY RF-SCORE:    0.00 PKD
ROOT
HETATM    1  C   UNK A   1     -10.107   7.001  73.075  1.00  0.00    -0.242 C  
HETATM    2  C   UNK A   1      -9.013   7.997  73.508  1.00  0.00    -0.327 C  
HETATM    3  C   UNK A   1      -7.869   7.822  72.518  1.00  0.00    -0.134 C  
HETATM    4  C   UNK A   1      -8.133   6.471  71.874  1.00  0.00    -0.104 C  
HETATM    5  C   UNK A   1      -9.651   6.420  71.726  1.00  0.00    -0.152 C  
HETATM    6  N   UNK A   1     -10.270   7.302  70.724  1.00  0.00    -0.197 N  
HETATM    7  C   UNK A   1     -10.260   7.129  69.340  1.00  0.00    -0.189 C  
HETATM    8  C   UNK A   1     -11.433   8.022  71.316  1.00  0.00    -0.269 C  
HETATM    9  C   UNK A   1     -11.463   9.560  71.210  1.00  0.00    -0.377 C  
HETATM   10  C   UNK A   1     -11.461   7.631  72.799  1.00  0.00    -0.384 C  
HETATM   11  O   UNK A   1     -11.013   7.830  68.653  1.00  0.00    -0.018 OA 
HETATM   12  O   UNK A   1     -10.394  10.091  70.570  1.00  0.00    -0.272 OA 
HETATM   13  O   UNK A   1     -12.340  10.255  71.691  1.00  0.00    -0.388 OA 
ENDROOT
BRANCH   7  14
HETATM   14  C   UNK A   1      -9.285   6.133  68.653  1.00  0.00    -0.123 C  
HETATM   15  C   UNK A   1      -9.530   4.716  69.197  1.00  0.00    -0.224 C  
BRANCH  14  16
HETATM   16  N   UNK A   1      -7.884   6.562  68.879  1.00  0.00    -0.109 NA 
HETATM   17  H   UNK A   1      -7.326   5.794  69.251  1.00  0.00     0.000 HD 
BRANCH  16  18
HETATM   18  C   UNK A   0      -7.236   7.147  67.664  1.00  0.00    -0.091 C  
BRANCH  18  19
HETATM   19  C   UNK A   0      -8.138   6.974  66.442  1.00  0.00    -0.112 C  
BRANCH  19  20
HETATM   20  C   UNK A   0      -7.387   6.755  65.120  1.00  0.00    -0.085 C  
BRANCH  20  21
HETATM   21  C   UNK A   0      -7.475   8.041  64.335  1.00  0.00    -0.104 A  
HETATM   22  C   UNK A   0      -6.450   8.994  64.420  1.00  0.00    -0.075 A  
HETATM   23  C   UNK A   0      -8.489   8.207  63.380  1.00  0.00     0.091 A  
HETATM   24  C   UNK A   0      -6.410  10.066  63.531  1.00  0.00    -0.130 A  
HETATM   25  C   UNK A   0      -8.447   9.282  62.494  1.00  0.00    -0.206 A  
HETATM   26  C   UNK A   0      -7.401  10.199  62.558  1.00  0.00    -0.145 A  
ENDBRANCH  20  21
ENDBRANCH  19  20
ENDBRANCH  18  19
BRANCH  18  27
HETATM   27  C   UNK A   0      -6.920   8.635  67.910  1.00  0.00    -0.078 C  
HETATM   28  O   UNK A   0      -5.802   9.126  67.971  1.00  0.00    -0.038 OA 
BRANCH  27  29
HETATM   29  O   UNK A   0      -8.093   9.327  68.041  1.00  0.00    -0.103 OA 
BRANCH  29  30
HETATM   30  C   UNK A   0      -8.157  10.599  67.377  1.00  0.00    -0.112 C  
HETATM   31  C   UNK A   0      -9.185  10.577  66.260  1.00  0.00    -0.192 C  
ENDBRANCH  29  30
ENDBRANCH  27  29
ENDBRANCH  18  27
ENDBRANCH  16  18
ENDBRANCH  14  16
ENDBRANCH   7  14
TORSDOF 9
ENDMDL
MODEL      255
REMARK 921   NORMALIZED FREE ENERGY PREDICTED BY IDOCK:   -2.77 KCAL/MOL
REMARK 922        TOTAL FREE ENERGY PREDICTED BY IDOCK:   -5.86 KCAL/MOL
REMARK 923 INTER-LIGAND FREE ENERGY PREDICTED BY IDOCK:   -6.82 KCAL/MOL
REMARK 924 INTRA-LIGAND FREE ENERGY PREDICTED BY IDOCK:    0.96 KCAL/MOL
REMARK 927      BINDING AFFINITY PREDICTED BY RF-SCORE:    0.00 PKD
ROOT
HETATM    1  C   UNK A   1     -11.357  12.650  69.235  1.00  0.00    -0.306 C  
HETATM    2  C   UNK A   1     -12.275  13.464  68.302  1.00  0.00    -0.120 C  
HETATM    3  C   UNK A   1     -11.594  14.813  68.113  1.00  0.00    -0.356 C  
HETATM    4  C   UNK A   1     -10.603  14.897  69.262  1.00  0.00    -0.248 C  
HETATM    5  C   UNK A   1     -10.068  13.474  69.398  1.00  0.00     0.516 C  
HETATM    6  N   UNK A   1      -9.181  12.974  68.336  1.00  0.00    -0.320 N  
HETATM    7  C   UNK A   1      -7.844  13.317  68.135  1.00  0.00    -0.145 C  
HETATM    8  C   UNK A   1      -9.613  11.616  67.897  1.00  0.00    -0.180 C  
HETATM    9  C   UNK A   1      -9.870  11.388  66.395  1.00  0.00    -0.211 C  
HETATM   10  C   UNK A   1     -10.904  11.315  68.669  1.00  0.00    -0.246 C  
HETATM   11  O   UNK A   1      -7.176  12.643  67.342  1.00  0.00    -0.141 OA 
HETATM   12  O   UNK A   1      -9.666  12.485  65.627  1.00  0.00    -0.240 OA 
HETATM   13  O   UNK A   1     -10.265  10.335  65.927  1.00  0.00    -0.254 OA 
ENDROOT
BRANCH   7  14
HETATM   14  C   UNK A   1      -7.210  14.554  68.829  1.00  0.00    -0.126 C  
HETATM   15  C   UNK A   1      -6.676  14.150  70.213  1.00  0.00     0.082 C  
BRANCH  14  16
HETATM   16  N   UNK A   1      -8.213  15.642  68.935  1.00  0.00    -0.186 NA 
HETATM   17  H   UNK A   1      -8.414  15.854  69.912  1.00  0.00     0.000 HD 
BRANCH  16  18
HETATM   18  C   UNK A   0      -7.828  16.882  68.192  1.00  0.00    -0.189 C  
BRANCH  18  19
HETATM   19  C   UNK A   0      -6.918  17.759  69.052  1.00  0.00    -0.236 C  
BRANCH  19  20
HETATM   20  C   UNK A   0      -7.299  19.247  69.073  1.00  0.00    -0.380 C  
BRANCH  20  21
HETATM   21  C   UNK A   0      -8.455  19.428  68.119  1.00  0.00    -0.367 A  
HETATM   22  C   UNK A   0      -9.766  19.161  68.535  1.00  0.00    -0.467 A  
HETATM   23  C   UNK A   0      -8.241  20.038  66.873  1.00  0.00    -0.368 A  
HETATM   24  C   UNK A   0     -10.847  19.544  67.744  1.00  0.00    -0.386 A  
HETATM   25  C   UNK A   0      -9.324  20.417  66.083  1.00  0.00    -0.214 A  
HETATM   26  C   UNK A   0     -10.625  20.187  66.526  1.00  0.00    -0.352 A  
ENDBRANCH  20  21
ENDBRANCH  19  20
ENDBRANCH  18  19
BRANCH  18  27
HETATM   27  C   UNK A   0      -7.134  16.500  66.869  1.00  0.00    -0.227 C  
HETATM   28  O   UNK A   0      -5.988  16.086  66.759  1.00  0.00    -0.268 OA 
BRANCH  27  29
HETATM   29  O   UNK A   0      -8.008  16.688  65.833  1.00  0.00    -0.304 OA 
BRANCH  29  30
HETATM   30  C   UNK A   0      -9.184  15.865  65.837  1.00  0.00    -0.297 C  
HETATM   31  C   UNK A   0     -10.426  16.691  65.557  1.00  0.00    -0.285 C  
ENDBRANCH  29  30
ENDBRANCH  27  29
ENDBRANCH  18  27
ENDBRANCH  16  18
ENDBRANCH  14  16
ENDBRANCH   7  14
TORSDOF 9
ENDMDL
MODEL      256
REMARK 921   NORMALIZED FREE ENERGY PREDICTED BY IDOCK:   -2.76 KCAL/MOL
REMARK 922        TOTAL FREE ENERGY PREDICTED BY IDOCK:   -5.84 KCAL/MOL
REMARK 923 INTER-LIGAND FREE ENERGY PREDICTED BY IDOCK:   -5.84 KCAL/MOL
REMARK 924 INTRA-LIGAND FREE ENERGY PREDICTED BY IDOCK:   -0.00 KCAL/MOL
REMARK 927      BINDING AFFINITY PREDICTED BY RF-SCORE:    0.00 PKD
ROOT
HETATM    1  C   UNK A   1      -5.477  10.651  68.281  1.00  0.00    -0.036 C  
HETATM    2  C   UNK A   1      -5.182  11.351  69.622  1.00  0.00    -0.057 C  
HETATM    3  C   UNK A   1      -6.091  12.572  69.669  1.00  0.00    -0.133 C  
HETATM    4  C   UNK A   1      -6.507  12.786  68.224  1.00  0.00    -0.083 C  
HETATM    5  C   UNK A   1      -6.694  11.373  67.677  1.00  0.00    -0.075 C  
HETATM    6  N   UNK A   1      -7.849  10.601  68.159  1.00  0.00    -0.107 N  
HETATM    7  C   UNK A   1      -9.184  10.778  67.793  1.00  0.00    -0.152 C  
HETATM    8  C   UNK A   1      -7.425   9.229  68.558  1.00  0.00    -0.081 C  
HETATM    9  C   UNK A   1      -7.789   8.741  69.975  1.00  0.00    -0.094 C  
HETATM   10  C   UNK A   1      -5.899   9.197  68.404  1.00  0.00    -0.041 C  
HETATM   11  O   UNK A   1     -10.002   9.907  68.111  1.00  0.00    -0.145 OA 
HETATM   12  O   UNK A   1      -8.474   9.646  70.712  1.00  0.00    -0.245 OA 
HETATM   13  O   UNK A   1      -7.460   7.657  70.423  1.00  0.00    -0.076 OA 
ENDROOT
BRANCH   7  14
HETATM   14  C   UNK A   1      -9.661  12.063  67.062  1.00  0.00    -0.196 C  
HETATM   15  C   UNK A   1      -9.112  12.073  65.627  1.00  0.00     0.072 C  
BRANCH  14  16
HETATM   16  N   UNK A   1      -9.223  13.263  67.816  1.00  0.00    -0.199 NA 
HETATM   17  H   UNK A   1      -8.405  13.686  67.377  1.00  0.00     0.000 HD 
BRANCH  16  18
HETATM   18  C   UNK A   0     -10.306  14.277  68.004  1.00  0.00    -0.229 C  
BRANCH  18  19
HETATM   19  C   UNK A   0     -10.715  14.880  66.660  1.00  0.00    -0.312 C  
BRANCH  19  20
HETATM   20  C   UNK A   0      -9.703  15.874  66.072  1.00  0.00    -0.375 C  
BRANCH  20  21
HETATM   21  C   UNK A   0      -9.661  17.070  66.993  1.00  0.00    -0.264 A  
HETATM   22  C   UNK A   0      -8.513  17.342  67.748  1.00  0.00    -0.217 A  
HETATM   23  C   UNK A   0     -10.699  18.013  66.958  1.00  0.00    -0.251 A  
HETATM   24  C   UNK A   0      -8.380  18.558  68.415  1.00  0.00    -0.355 A  
HETATM   25  C   UNK A   0     -10.565  19.227  67.629  1.00  0.00    -0.553 A  
HETATM   26  C   UNK A   0      -9.401  19.506  68.341  1.00  0.00    -0.431 A  
ENDBRANCH  20  21
ENDBRANCH  19  20
ENDBRANCH  18  19
BRANCH  18  27
HETATM   27  C   UNK A   0     -11.514  13.622  68.704  1.00  0.00    -0.307 C  
HETATM   28  O   UNK A   0     -12.030  12.559  68.388  1.00  0.00    -0.322 OA 
BRANCH  27  29
HETATM   29  O   UNK A   0     -11.915  14.415  69.744  1.00  0.00    -0.293 OA 
BRANCH  29  30
HETATM   30  C   UNK A   0     -10.883  15.161  70.408  1.00  0.00    -0.218 C  
HETATM   31  C   UNK A   0     -11.347  16.574  70.716  1.00  0.00    -0.064 C  
ENDBRANCH  29  30
ENDBRANCH  27  29
ENDBRANCH  18  27
ENDBRANCH  16  18
ENDBRANCH  14  16
ENDBRANCH   7  14
TORSDOF 9
ENDMDL
MODEL      257
REMARK 921   NORMALIZED FREE ENERGY PREDICTED BY IDOCK:   -2.73 KCAL/MOL
REMARK 922        TOTAL FREE ENERGY PREDICTED BY IDOCK:   -5.80 KCAL/MOL
REMARK 923 INTER-LIGAND FREE ENERGY PREDICTED BY IDOCK:   -5.37 KCAL/MOL
REMARK 924 INTRA-LIGAND FREE ENERGY PREDICTED BY IDOCK:   -0.43 KCAL/MOL
REMARK 927      BINDING AFFINITY PREDICTED BY RF-SCORE:    0.00 PKD
ROOT
HETATM    1  C   UNK A   1      -7.451   5.831  69.823  1.00  0.00    -0.075 C  
HETATM    2  C   UNK A   1      -6.233   6.688  69.426  1.00  0.00    -0.034 C  
HETATM    3  C   UNK A   1      -6.610   7.378  68.122  1.00  0.00    -0.050 C  
HETATM    4  C   UNK A   1      -7.781   6.568  67.593  1.00  0.00    -0.106 C  
HETATM    5  C   UNK A   1      -8.577   6.206  68.844  1.00  0.00    -0.121 C  
HETATM    6  N   UNK A   1      -9.306   7.286  69.526  1.00  0.00    -0.152 N  
HETATM    7  C   UNK A   1     -10.491   7.890  69.105  1.00  0.00    -0.209 C  
HETATM    8  C   UNK A   1      -9.044   7.242  70.993  1.00  0.00    -0.153 C  
HETATM    9  C   UNK A   1      -8.532   8.526  71.677  1.00  0.00    -0.178 C  
HETATM   10  C   UNK A   1      -8.011   6.127  71.203  1.00  0.00    -0.116 C  
HETATM   11  O   UNK A   1     -11.095   8.621  69.900  1.00  0.00    -0.218 OA 
HETATM   12  O   UNK A   1      -8.378   9.575  70.836  1.00  0.00    -0.280 OA 
HETATM   13  O   UNK A   1      -8.246   8.595  72.858  1.00  0.00    -0.393 OA 
ENDROOT
BRANCH   7  14
HETATM   14  C   UNK A   1     -11.022   7.714  67.656  1.00  0.00     0.011 C  
HETATM   15  C   UNK A   1     -11.042   6.220  67.293  1.00  0.00    -0.387 C  
BRANCH  14  16
HETATM   16  N   UNK A   1     -10.176   8.486  66.713  1.00  0.00    -0.298 NA 
HETATM   17  H   UNK A   1     -10.642   8.589  65.812  1.00  0.00     0.000 HD 
BRANCH  16  18
HETATM   18  C   UNK A   0      -9.754   9.818  67.246  1.00  0.00    -0.169 C  
BRANCH  18  19
HETATM   19  C   UNK A   0      -8.492  10.304  66.532  1.00  0.00    -0.126 C  
BRANCH  19  20
HETATM   20  C   UNK A   0      -8.464  10.022  65.022  1.00  0.00    -0.167 C  
BRANCH  20  21
HETATM   21  C   UNK A   0      -7.491   8.890  64.795  1.00  0.00    -0.103 A  
HETATM   22  C   UNK A   0      -7.891   7.742  64.098  1.00  0.00    -0.133 A  
HETATM   23  C   UNK A   0      -6.137   9.060  65.119  1.00  0.00    -0.060 A  
HETATM   24  C   UNK A   0      -6.946   6.805  63.685  1.00  0.00    -0.056 A  
HETATM   25  C   UNK A   0      -5.195   8.119  64.707  1.00  0.00    -0.036 A  
HETATM   26  C   UNK A   0      -5.597   7.003  63.977  1.00  0.00    -0.032 A  
ENDBRANCH  20  21
ENDBRANCH  19  20
ENDBRANCH  18  19
BRANCH  18  27
HETATM   27  C   UNK A   0     -10.904  10.831  67.082  1.00  0.00    -0.277 C  
HETATM   28  O   UNK A   0     -11.691  11.164  67.957  1.00  0.00    -0.517 OA 
BRANCH  27  29
HETATM   29  O   UNK A   0     -10.903  11.309  65.800  1.00  0.00    -0.261 OA 
BRANCH  29  30
HETATM   30  C   UNK A   0     -10.659  12.716  65.647  1.00  0.00    -0.273 C  
HETATM   31  C   UNK A   0     -11.454  13.281  64.483  1.00  0.00    -0.399 C  
ENDBRANCH  29  30
ENDBRANCH  27  29
ENDBRANCH  18  27
ENDBRANCH  16  18
ENDBRANCH  14  16
ENDBRANCH   7  14
TORSDOF 9
ENDMDL
MODEL      258
REMARK 921   NORMALIZED FREE ENERGY PREDICTED BY IDOCK:   -2.67 KCAL/MOL
REMARK 922        TOTAL FREE ENERGY PREDICTED BY IDOCK:   -5.71 KCAL/MOL
REMARK 923 INTER-LIGAND FREE ENERGY PREDICTED BY IDOCK:   -6.17 KCAL/MOL
REMARK 924 INTRA-LIGAND FREE ENERGY PREDICTED BY IDOCK:    0.47 KCAL/MOL
REMARK 927      BINDING AFFINITY PREDICTED BY RF-SCORE:    0.00 PKD
ROOT
HETATM    1  C   UNK A   1     -14.231  14.053  71.341  1.00  0.00    -0.098 C  
HETATM    2  C   UNK A   1     -13.968  12.970  72.406  1.00  0.00    -0.426 C  
HETATM    3  C   UNK A   1     -12.859  12.089  71.846  1.00  0.00    -0.338 C  
HETATM    4  C   UNK A   1     -12.855  12.392  70.358  1.00  0.00     0.183 C  
HETATM    5  C   UNK A   1     -13.127  13.892  70.282  1.00  0.00     0.208 C  
HETATM    6  N   UNK A   1     -12.061  14.803  70.727  1.00  0.00    -0.288 N  
HETATM    7  C   UNK A   1     -10.888  15.114  70.040  1.00  0.00    -0.254 C  
HETATM    8  C   UNK A   1     -12.616  15.842  71.640  1.00  0.00    -0.419 C  
HETATM    9  C   UNK A   1     -11.956  16.021  73.021  1.00  0.00    -0.492 C  
HETATM   10  C   UNK A   1     -14.093  15.480  71.843  1.00  0.00    -0.586 C  
HETATM   11  O   UNK A   1     -10.205  16.064  70.440  1.00  0.00    -0.043 OA 
HETATM   12  O   UNK A   1     -10.916  15.184  73.249  1.00  0.00     0.569 OA 
HETATM   13  O   UNK A   1     -12.350  16.808  73.863  1.00  0.00    -0.444 OA 
ENDROOT
BRANCH   7  14
HETATM   14  C   UNK A   1     -10.399  14.257  68.839  1.00  0.00    -0.215 C  
HETATM   15  C   UNK A   1     -11.103  14.722  67.554  1.00  0.00    -0.323 C  
BRANCH  14  16
HETATM   16  N   UNK A   1     -10.658  12.821  69.106  1.00  0.00    -0.439 NA 
HETATM   17  H   UNK A   1     -11.514  12.517  68.644  1.00  0.00     0.000 HD 
BRANCH  16  18
HETATM   18  C   UNK A   0      -9.513  11.931  68.740  1.00  0.00     0.009 C  
BRANCH  18  19
HETATM   19  C   UNK A   0      -9.723  10.528  69.308  1.00  0.00    -0.215 C  
BRANCH  19  20
HETATM   20  C   UNK A   0      -8.595   9.535  68.991  1.00  0.00    -0.133 C  
BRANCH  20  21
HETATM   21  C   UNK A   0      -9.191   8.148  69.036  1.00  0.00    -0.148 A  
HETATM   22  C   UNK A   0     -10.322   7.889  69.821  1.00  0.00    -0.219 A  
HETATM   23  C   UNK A   0      -8.727   7.162  68.154  1.00  0.00    -0.127 A  
HETATM   24  C   UNK A   0     -11.010   6.684  69.688  1.00  0.00    -0.367 A  
HETATM   25  C   UNK A   0      -9.414   5.957  68.026  1.00  0.00    -0.111 A  
HETATM   26  C   UNK A   0     -10.563   5.726  68.778  1.00  0.00    -0.321 A  
ENDBRANCH  20  21
ENDBRANCH  19  20
ENDBRANCH  18  19
BRANCH  18  27
HETATM   27  C   UNK A   0      -9.360  11.887  67.207  1.00  0.00    -0.177 C  
HETATM   28  O   UNK A   0      -8.331  12.117  66.586  1.00  0.00    -0.149 OA 
BRANCH  27  29
HETATM   29  O   UNK A   0     -10.559  11.541  66.646  1.00  0.00    -0.232 OA 
BRANCH  29  30
HETATM   30  C   UNK A   0     -10.503  10.617  65.548  1.00  0.00    -0.176 C  
HETATM   31  C   UNK A   0     -10.500  11.351  64.219  1.00  0.00    -0.401 C  
ENDBRANCH  29  30
ENDBRANCH  27  29
ENDBRANCH  18  27
ENDBRANCH  16  18
ENDBRANCH  14  16
ENDBRANCH   7  14
TORSDOF 9
ENDMDL
MODEL      259
REMARK 921   NORMALIZED FREE ENERGY PREDICTED BY IDOCK:   -2.65 KCAL/MOL
REMARK 922        TOTAL FREE ENERGY PREDICTED BY IDOCK:   -5.68 KCAL/MOL
REMARK 923 INTER-LIGAND FREE ENERGY PREDICTED BY IDOCK:   -4.55 KCAL/MOL
REMARK 924 INTRA-LIGAND FREE ENERGY PREDICTED BY IDOCK:   -1.12 KCAL/MOL
REMARK 927      BINDING AFFINITY PREDICTED BY RF-SCORE:    0.00 PKD
ROOT
HETATM    1  C   UNK A   1      -8.102   8.798  69.595  1.00  0.00    -0.101 C  
HETATM    2  C   UNK A   1      -7.051   9.306  68.588  1.00  0.00    -0.070 C  
HETATM    3  C   UNK A   1      -6.644   8.096  67.757  1.00  0.00    -0.057 C  
HETATM    4  C   UNK A   1      -7.094   6.905  68.584  1.00  0.00    -0.085 C  
HETATM    5  C   UNK A   1      -8.424   7.350  69.186  1.00  0.00    -0.133 C  
HETATM    6  N   UNK A   1      -9.576   7.477  68.280  1.00  0.00    -0.150 N  
HETATM    7  C   UNK A   1     -10.324   6.437  67.729  1.00  0.00    -0.193 C  
HETATM    8  C   UNK A   1     -10.272   8.776  68.507  1.00  0.00    -0.195 C  
HETATM    9  C   UNK A   1     -10.501   9.697  67.293  1.00  0.00    -0.258 C  
HETATM   10  C   UNK A   1      -9.432   9.529  69.546  1.00  0.00    -0.195 C  
HETATM   11  O   UNK A   1     -11.394   6.711  67.173  1.00  0.00    -0.343 OA 
HETATM   12  O   UNK A   1     -10.026   9.201  66.126  1.00  0.00    -0.286 OA 
HETATM   13  O   UNK A   1     -11.020  10.796  67.365  1.00  0.00    -0.274 OA 
ENDROOT
BRANCH   7  14
HETATM   14  C   UNK A   1      -9.810   4.970  67.746  1.00  0.00    -0.154 C  
HETATM   15  C   UNK A   1      -9.593   4.517  69.199  1.00  0.00    -0.251 C  
BRANCH  14  16
HETATM   16  N   UNK A   1      -8.559   4.866  66.956  1.00  0.00    -0.105 NA 
HETATM   17  H   UNK A   1      -8.032   4.035  67.222  1.00  0.00     0.000 HD 
BRANCH  16  18
HETATM   18  C   UNK A   0      -8.783   4.901  65.477  1.00  0.00    -0.139 C  
BRANCH  18  19
HETATM   19  C   UNK A   0      -7.567   5.493  64.766  1.00  0.00    -0.079 C  
BRANCH  19  20
HETATM   20  C   UNK A   0      -7.889   6.237  63.461  1.00  0.00    -0.113 C  
BRANCH  20  21
HETATM   21  C   UNK A   0      -7.235   7.595  63.545  1.00  0.00    -0.080 A  
HETATM   22  C   UNK A   0      -8.002   8.760  63.401  1.00  0.00    -0.161 A  
HETATM   23  C   UNK A   0      -5.896   7.700  63.948  1.00  0.00    -0.049 A  
HETATM   24  C   UNK A   0      -7.454  10.005  63.706  1.00  0.00    -0.141 A  
HETATM   25  C   UNK A   0      -5.350   8.947  64.248  1.00  0.00    -0.055 A  
HETATM   26  C   UNK A   0      -6.133  10.094  64.144  1.00  0.00    -0.137 A  
ENDBRANCH  20  21
ENDBRANCH  19  20
ENDBRANCH  18  19
BRANCH  18  27
HETATM   27  C   UNK A   0      -9.083   3.478  64.964  1.00  0.00    -0.140 C  
HETATM   28  O   UNK A   0      -8.271   2.568  64.872  1.00  0.00    -0.085 OA 
BRANCH  27  29
HETATM   29  O   UNK A   0     -10.408   3.390  64.635  1.00  0.00    -0.100 OA 
BRANCH  29  30
HETATM   30  C   UNK A   0     -10.733   3.601  63.252  1.00  0.00    -0.213 C  
HETATM   31  C   UNK A   0     -11.129   2.297  62.582  1.00  0.00    -0.212 C  
ENDBRANCH  29  30
ENDBRANCH  27  29
ENDBRANCH  18  27
ENDBRANCH  16  18
ENDBRANCH  14  16
ENDBRANCH   7  14
TORSDOF 9
ENDMDL
MODEL      260
REMARK 921   NORMALIZED FREE ENERGY PREDICTED BY IDOCK:   -2.63 KCAL/MOL
REMARK 922        TOTAL FREE ENERGY PREDICTED BY IDOCK:   -5.64 KCAL/MOL
REMARK 923 INTER-LIGAND FREE ENERGY PREDICTED BY IDOCK:   -5.61 KCAL/MOL
REMARK 924 INTRA-LIGAND FREE ENERGY PREDICTED BY IDOCK:   -0.03 KCAL/MOL
REMARK 927      BINDING AFFINITY PREDICTED BY RF-SCORE:    0.00 PKD
ROOT
HETATM    1  C   UNK A   1     -10.196   7.124  72.399  1.00  0.00    -0.214 C  
HETATM    2  C   UNK A   1     -10.298   5.882  71.492  1.00  0.00    -0.273 C  
HETATM    3  C   UNK A   1     -10.966   6.352  70.207  1.00  0.00    -0.378 C  
HETATM    4  C   UNK A   1     -11.623   7.668  70.585  1.00  0.00    -0.251 C  
HETATM    5  C   UNK A   1     -10.623   8.323  71.535  1.00  0.00    -0.235 C  
HETATM    6  N   UNK A   1      -9.364   8.825  70.962  1.00  0.00    -0.200 N  
HETATM    7  C   UNK A   1      -9.196   9.980  70.199  1.00  0.00    -0.026 C  
HETATM    8  C   UNK A   1      -8.205   8.372  71.783  1.00  0.00    -0.152 C  
HETATM    9  C   UNK A   1      -7.058   7.630  71.070  1.00  0.00    -0.054 C  
HETATM   10  C   UNK A   1      -8.788   7.453  72.865  1.00  0.00    -0.173 C  
HETATM   11  O   UNK A   1      -8.046  10.383  69.985  1.00  0.00    -0.075 OA 
HETATM   12  O   UNK A   1      -7.246   7.473  69.738  1.00  0.00    -0.075 OA 
HETATM   13  O   UNK A   1      -6.083   7.179  71.644  1.00  0.00    -0.037 OA 
ENDROOT
BRANCH   7  14
HETATM   14  C   UNK A   1     -10.408  10.719  69.567  1.00  0.00    -0.144 C  
HETATM   15  C   UNK A   1     -10.455  10.433  68.057  1.00  0.00    -0.232 C  
BRANCH  14  16
HETATM   16  N   UNK A   1     -10.306  12.175  69.837  1.00  0.00     0.479 NA 
HETATM   17  H   UNK A   1      -9.368  12.418  70.154  1.00  0.00     0.000 HD 
BRANCH  16  18
HETATM   18  C   UNK A   0     -10.710  13.025  68.675  1.00  0.00    -0.248 C  
BRANCH  18  19
HETATM   19  C   UNK A   0     -11.412  14.294  69.160  1.00  0.00    -0.330 C  
BRANCH  19  20
HETATM   20  C   UNK A   0     -10.491  15.309  69.852  1.00  0.00    -0.277 C  
BRANCH  20  21
HETATM   21  C   UNK A   0     -10.527  16.579  69.037  1.00  0.00    -0.303 A  
HETATM   22  C   UNK A   0     -10.145  17.799  69.610  1.00  0.00     0.290 A  
HETATM   23  C   UNK A   0     -10.768  16.514  67.656  1.00  0.00    -0.311 A  
HETATM   24  C   UNK A   0      -9.954  18.924  68.809  1.00  0.00    -0.466 A  
HETATM   25  C   UNK A   0     -10.580  17.641  66.859  1.00  0.00    -0.235 A  
HETATM   26  C   UNK A   0     -10.157  18.838  67.431  1.00  0.00    -0.400 A  
ENDBRANCH  20  21
ENDBRANCH  19  20
ENDBRANCH  18  19
BRANCH  18  27
HETATM   27  C   UNK A   0      -9.469  13.372  67.829  1.00  0.00    -0.210 C  
HETATM   28  O   UNK A   0      -8.413  13.813  68.260  1.00  0.00    -0.162 OA 
BRANCH  27  29
HETATM   29  O   UNK A   0      -9.732  13.101  66.514  1.00  0.00    -0.257 OA 
BRANCH  29  30
HETATM   30  C   UNK A   0     -11.007  13.538  66.018  1.00  0.00    -0.275 C  
HETATM   31  C   UNK A   0     -11.166  13.191  64.549  1.00  0.00    -0.383 C  
ENDBRANCH  29  30
ENDBRANCH  27  29
ENDBRANCH  18  27
ENDBRANCH  16  18
ENDBRANCH  14  16
ENDBRANCH   7  14
TORSDOF 9
ENDMDL
MODEL      261
REMARK 921   NORMALIZED FREE ENERGY PREDICTED BY IDOCK:   -2.62 KCAL/MOL
REMARK 922        TOTAL FREE ENERGY PREDICTED BY IDOCK:   -5.62 KCAL/MOL
REMARK 923 INTER-LIGAND FREE ENERGY PREDICTED BY IDOCK:   -5.06 KCAL/MOL
REMARK 924 INTRA-LIGAND FREE ENERGY PREDICTED BY IDOCK:   -0.56 KCAL/MOL
REMARK 927      BINDING AFFINITY PREDICTED BY RF-SCORE:    0.00 PKD
ROOT
HETATM    1  C   UNK A   1      -6.659   7.687  63.479  1.00  0.00    -0.058 C  
HETATM    2  C   UNK A   1      -5.390   7.907  64.326  1.00  0.00    -0.036 C  
HETATM    3  C   UNK A   1      -5.623   9.195  65.106  1.00  0.00    -0.053 C  
HETATM    4  C   UNK A   1      -6.753   9.885  64.362  1.00  0.00    -0.125 C  
HETATM    5  C   UNK A   1      -7.676   8.744  63.944  1.00  0.00    -0.132 C  
HETATM    6  N   UNK A   1      -8.446   8.066  64.999  1.00  0.00    -0.309 N  
HETATM    7  C   UNK A   1      -9.571   8.560  65.659  1.00  0.00     0.112 C  
HETATM    8  C   UNK A   1      -8.329   6.587  64.857  1.00  0.00    -0.047 C  
HETATM    9  C   UNK A   1      -7.861   5.775  66.081  1.00  0.00    -0.101 C  
HETATM   10  C   UNK A   1      -7.345   6.351  63.704  1.00  0.00    -0.073 C  
HETATM   11  O   UNK A   1     -10.234   7.782  66.355  1.00  0.00    -0.176 OA 
HETATM   12  O   UNK A   1      -7.603   6.528  67.176  1.00  0.00    -0.092 OA 
HETATM   13  O   UNK A   1      -7.691   4.570  66.069  1.00  0.00    -0.092 OA 
ENDROOT
BRANCH   7  14
HETATM   14  C   UNK A   1      -9.960  10.062  65.589  1.00  0.00    -0.285 C  
HETATM   15  C   UNK A   1      -9.983  10.519  64.121  1.00  0.00    -0.385 C  
BRANCH  14  16
HETATM   16  N   UNK A   1      -9.006  10.868  66.389  1.00  0.00    -0.169 NA 
HETATM   17  H   UNK A   1      -8.925  11.812  66.012  1.00  0.00     0.000 HD 
BRANCH  16  18
HETATM   18  C   UNK A   0      -9.337  10.907  67.848  1.00  0.00    -0.156 C  
BRANCH  18  19
HETATM   19  C   UNK A   0      -8.482   9.899  68.617  1.00  0.00    -0.114 C  
BRANCH  19  20
HETATM   20  C   UNK A   0      -8.684   9.921  70.139  1.00  0.00    -0.142 C  
BRANCH  20  21
HETATM   21  C   UNK A   0      -9.509   8.710  70.501  1.00  0.00    -0.206 A  
HETATM   22  C   UNK A   0     -10.537   8.275  69.655  1.00  0.00    -0.222 A  
HETATM   23  C   UNK A   0      -9.131   7.910  71.590  1.00  0.00    -0.175 A  
HETATM   24  C   UNK A   0     -11.143   7.036  69.861  1.00  0.00    -0.301 A  
HETATM   25  C   UNK A   0      -9.741   6.674  71.796  1.00  0.00    -0.168 A  
HETATM   26  C   UNK A   0     -10.732   6.231  70.923  1.00  0.00    -0.314 A  
ENDBRANCH  20  21
ENDBRANCH  19  20
ENDBRANCH  18  19
BRANCH  18  27
HETATM   27  C   UNK A   0      -9.126  12.335  68.389  1.00  0.00    -0.146 C  
HETATM   28  O   UNK A   0      -8.056  12.924  68.447  1.00  0.00    -0.149 OA 
BRANCH  27  29
HETATM   29  O   UNK A   0     -10.330  12.846  68.790  1.00  0.00    -0.216 OA 
BRANCH  29  30
HETATM   30  C   UNK A   0     -11.441  11.936  68.777  1.00  0.00    -0.290 C  
HETATM   31  C   UNK A   0     -11.921  11.645  70.188  1.00  0.00    -0.441 C  
ENDBRANCH  29  30
ENDBRANCH  27  29
ENDBRANCH  18  27
ENDBRANCH  16  18
ENDBRANCH  14  16
ENDBRANCH   7  14
TORSDOF 9
ENDMDL
MODEL      262
REMARK 921   NORMALIZED FREE ENERGY PREDICTED BY IDOCK:   -2.59 KCAL/MOL
REMARK 922        TOTAL FREE ENERGY PREDICTED BY IDOCK:   -5.59 KCAL/MOL
REMARK 923 INTER-LIGAND FREE ENERGY PREDICTED BY IDOCK:   -4.44 KCAL/MOL
REMARK 924 INTRA-LIGAND FREE ENERGY PREDICTED BY IDOCK:   -1.15 KCAL/MOL
REMARK 927      BINDING AFFINITY PREDICTED BY RF-SCORE:    0.00 PKD
ROOT
HETATM    1  C   UNK A   1      -9.216   5.397  72.035  1.00  0.00    -0.152 C  
HETATM    2  C   UNK A   1      -8.808   6.544  72.981  1.00  0.00    -0.135 C  
HETATM    3  C   UNK A   1      -7.848   7.422  72.189  1.00  0.00    -0.095 C  
HETATM    4  C   UNK A   1      -7.389   6.537  71.043  1.00  0.00    -0.083 C  
HETATM    5  C   UNK A   1      -8.640   5.753  70.654  1.00  0.00    -0.132 C  
HETATM    6  N   UNK A   1      -9.726   6.487  69.987  1.00  0.00    -0.165 N  
HETATM    7  C   UNK A   1      -9.748   6.924  68.662  1.00  0.00    -0.136 C  
HETATM    8  C   UNK A   1     -11.035   6.166  70.624  1.00  0.00    -0.311 C  
HETATM    9  C   UNK A   1     -11.909   7.338  71.115  1.00  0.00    -0.312 C  
HETATM   10  C   UNK A   1     -10.712   5.258  71.817  1.00  0.00    -0.240 C  
HETATM   11  O   UNK A   1     -10.820   7.324  68.191  1.00  0.00    -0.161 OA 
HETATM   12  O   UNK A   1     -11.365   8.559  70.902  1.00  0.00    -0.261 OA 
HETATM   13  O   UNK A   1     -12.975   7.194  71.685  1.00  0.00    -0.365 OA 
ENDROOT
BRANCH   7  14
HETATM   14  C   UNK A   1      -8.454   6.979  67.803  1.00  0.00    -0.120 C  
HETATM   15  C   UNK A   1      -7.897   5.557  67.622  1.00  0.00    -0.097 C  
BRANCH  14  16
HETATM   16  N   UNK A   1      -7.459   7.870  68.448  1.00  0.00    -0.098 NA 
HETATM   17  H   UNK A   1      -6.522   7.472  68.382  1.00  0.00     0.000 HD 
BRANCH  16  18
HETATM   18  C   UNK A   0      -7.480   9.268  67.918  1.00  0.00    -0.084 C  
BRANCH  18  19
HETATM   19  C   UNK A   0      -7.876   9.274  66.442  1.00  0.00    -0.103 C  
BRANCH  19  20
HETATM   20  C   UNK A   0      -6.692   9.269  65.463  1.00  0.00    -0.073 C  
BRANCH  20  21
HETATM   21  C   UNK A   0      -6.695   7.933  64.760  1.00  0.00    -0.051 A  
HETATM   22  C   UNK A   0      -5.662   7.013  64.983  1.00  0.00    -0.032 A  
HETATM   23  C   UNK A   0      -7.822   7.535  64.026  1.00  0.00    -0.127 A  
HETATM   24  C   UNK A   0      -5.776   5.702  64.526  1.00  0.00    -0.021 A  
HETATM   25  C   UNK A   0      -7.931   6.224  63.567  1.00  0.00    -0.094 A  
HETATM   26  C   UNK A   0      -6.919   5.305  63.831  1.00  0.00    -0.048 A  
ENDBRANCH  20  21
ENDBRANCH  19  20
ENDBRANCH  18  19
BRANCH  18  27
HETATM   27  C   UNK A   0      -8.453  10.125  68.752  1.00  0.00    -0.131 C  
HETATM   28  O   UNK A   0      -8.626  10.035  69.960  1.00  0.00    -0.190 OA 
BRANCH  27  29
HETATM   29  O   UNK A   0      -9.090  11.012  67.928  1.00  0.00    -0.141 OA 
BRANCH  29  30
HETATM   30  C   UNK A   0     -10.524  11.021  67.993  1.00  0.00    -0.189 C  
HETATM   31  C   UNK A   0     -11.039  12.379  68.434  1.00  0.00    -0.288 C  
ENDBRANCH  29  30
ENDBRANCH  27  29
ENDBRANCH  18  27
ENDBRANCH  16  18
ENDBRANCH  14  16
ENDBRANCH   7  14
TORSDOF 9
ENDMDL
MODEL      263
REMARK 921   NORMALIZED FREE ENERGY PREDICTED BY IDOCK:   -2.57 KCAL/MOL
REMARK 922        TOTAL FREE ENERGY PREDICTED BY IDOCK:   -5.55 KCAL/MOL
REMARK 923 INTER-LIGAND FREE ENERGY PREDICTED BY IDOCK:   -5.13 KCAL/MOL
REMARK 924 INTRA-LIGAND FREE ENERGY PREDICTED BY IDOCK:   -0.42 KCAL/MOL
REMARK 927      BINDING AFFINITY PREDICTED BY RF-SCORE:    0.00 PKD
ROOT
HETATM    1  C   UNK A   1     -14.139  13.762  71.292  1.00  0.00     0.197 C  
HETATM    2  C   UNK A   1     -13.482  12.614  72.082  1.00  0.00    -0.561 C  
HETATM    3  C   UNK A   1     -12.207  12.259  71.327  1.00  0.00     0.025 C  
HETATM    4  C   UNK A   1     -12.410  12.857  69.945  1.00  0.00    -0.156 C  
HETATM    5  C   UNK A   1     -13.124  14.179  70.213  1.00  0.00     0.132 C  
HETATM    6  N   UNK A   1     -12.349  15.259  70.843  1.00  0.00    -0.343 N  
HETATM    7  C   UNK A   1     -11.380  16.056  70.233  1.00  0.00    -0.382 C  
HETATM    8  C   UNK A   1     -13.116  15.857  71.972  1.00  0.00    -0.349 C  
HETATM    9  C   UNK A   1     -12.434  15.933  73.352  1.00  0.00    -0.541 C  
HETATM   10  C   UNK A   1     -14.396  15.021  72.101  1.00  0.00    -0.622 C  
HETATM   11  O   UNK A   1     -10.984  17.064  70.832  1.00  0.00     0.247 OA 
HETATM   12  O   UNK A   1     -11.176  15.431  73.375  1.00  0.00     0.173 OA 
HETATM   13  O   UNK A   1     -12.977  16.363  74.354  1.00  0.00    -0.637 OA 
ENDROOT
BRANCH   7  14
HETATM   14  C   UNK A   1     -10.752  15.669  68.866  1.00  0.00    -0.238 C  
HETATM   15  C   UNK A   1     -11.864  15.245  67.891  1.00  0.00    -0.144 C  
BRANCH  14  16
HETATM   16  N   UNK A   1      -9.760  14.582  69.057  1.00  0.00    -0.360 NA 
HETATM   17  H   UNK A   1     -10.185  13.785  69.530  1.00  0.00     0.000 HD 
BRANCH  16  18
HETATM   18  C   UNK A   0      -9.096  14.152  67.787  1.00  0.00    -0.190 C  
BRANCH  18  19
HETATM   19  C   UNK A   0      -7.641  14.620  67.760  1.00  0.00    -0.173 C  
BRANCH  19  20
HETATM   20  C   UNK A   0      -7.142  15.232  69.077  1.00  0.00    -0.141 C  
BRANCH  20  21
HETATM   21  C   UNK A   0      -6.317  14.179  69.778  1.00  0.00    -0.141 A  
HETATM   22  C   UNK A   0      -6.168  14.207  71.171  1.00  0.00     0.016 A  
HETATM   23  C   UNK A   0      -5.848  13.069  69.059  1.00  0.00    -0.079 A  
HETATM   24  C   UNK A   0      -5.609  13.121  71.841  1.00  0.00     0.191 A  
HETATM   25  C   UNK A   0      -5.286  11.986  69.732  1.00  0.00    -0.081 A  
HETATM   26  C   UNK A   0      -5.183  12.004  71.121  1.00  0.00    -0.115 A  
ENDBRANCH  20  21
ENDBRANCH  19  20
ENDBRANCH  18  19
BRANCH  18  27
HETATM   27  C   UNK A   0      -9.184  12.619  67.649  1.00  0.00    -0.191 C  
HETATM   28  O   UNK A   0      -9.231  11.822  68.575  1.00  0.00    -0.196 OA 
BRANCH  27  29
HETATM   29  O   UNK A   0      -9.210  12.289  66.322  1.00  0.00    -0.225 OA 
BRANCH  29  30
HETATM   30  C   UNK A   0      -9.561  10.931  66.012  1.00  0.00    -0.209 C  
HETATM   31  C   UNK A   0     -10.944  10.856  65.391  1.00  0.00    -0.032 C  
ENDBRANCH  29  30
ENDBRANCH  27  29
ENDBRANCH  18  27
ENDBRANCH  16  18
ENDBRANCH  14  16
ENDBRANCH   7  14
TORSDOF 9
ENDMDL
MODEL      264
REMARK 921   NORMALIZED FREE ENERGY PREDICTED BY IDOCK:   -2.56 KCAL/MOL
REMARK 922        TOTAL FREE ENERGY PREDICTED BY IDOCK:   -5.55 KCAL/MOL
REMARK 923 INTER-LIGAND FREE ENERGY PREDICTED BY IDOCK:   -6.30 KCAL/MOL
REMARK 924 INTRA-LIGAND FREE ENERGY PREDICTED BY IDOCK:    0.75 KCAL/MOL
REMARK 927      BINDING AFFINITY PREDICTED BY RF-SCORE:    0.00 PKD
ROOT
HETATM    1  C   UNK A   1      -8.940   8.877  69.107  1.00  0.00    -0.140 C  
HETATM    2  C   UNK A   1     -10.294   8.495  68.477  1.00  0.00    -0.230 C  
HETATM    3  C   UNK A   1     -10.941   9.804  68.044  1.00  0.00    -0.236 C  
HETATM    4  C   UNK A   1     -10.194  10.870  68.828  1.00  0.00    -0.210 C  
HETATM    5  C   UNK A   1      -8.749  10.380  68.838  1.00  0.00    -0.157 C  
HETATM    6  N   UNK A   1      -8.002  10.429  67.572  1.00  0.00    -0.106 N  
HETATM    7  C   UNK A   1      -7.475  11.565  66.957  1.00  0.00    -0.151 C  
HETATM    8  C   UNK A   1      -7.304   9.134  67.331  1.00  0.00    -0.084 C  
HETATM    9  C   UNK A   1      -7.550   8.417  65.989  1.00  0.00    -0.085 C  
HETATM   10  C   UNK A   1      -7.735   8.204  68.472  1.00  0.00    -0.112 C  
HETATM   11  O   UNK A   1      -6.683  11.413  66.019  1.00  0.00     0.039 OA 
HETATM   12  O   UNK A   1      -8.398   9.070  65.161  1.00  0.00    -0.139 OA 
HETATM   13  O   UNK A   1      -7.067   7.337  65.700  1.00  0.00    -0.062 OA 
ENDROOT
BRANCH   7  14
HETATM   14  C   UNK A   1      -7.911  12.995  67.382  1.00  0.00    -0.172 C  
HETATM   15  C   UNK A   1      -7.355  13.308  68.780  1.00  0.00    -0.070 C  
BRANCH  14  16
HETATM   16  N   UNK A   1      -9.391  13.098  67.355  1.00  0.00    -0.205 NA 
HETATM   17  H   UNK A   1      -9.780  12.944  68.284  1.00  0.00     0.000 HD 
BRANCH  16  18
HETATM   18  C   UNK A   0      -9.887  14.387  66.779  1.00  0.00    -0.264 C  
BRANCH  18  19
HETATM   19  C   UNK A   0      -8.798  15.458  66.848  1.00  0.00    -0.281 C  
BRANCH  19  20
HETATM   20  C   UNK A   0      -9.306  16.863  67.205  1.00  0.00    -0.241 C  
BRANCH  20  21
HETATM   21  C   UNK A   0      -8.097  17.714  67.509  1.00  0.00    -0.217 A  
HETATM   22  C   UNK A   0      -6.833  17.346  67.029  1.00  0.00    -0.216 A  
HETATM   23  C   UNK A   0      -8.262  18.968  68.115  1.00  0.00    -0.349 A  
HETATM   24  C   UNK A   0      -5.764  18.236  67.106  1.00  0.00    -0.152 A  
HETATM   25  C   UNK A   0      -7.191  19.855  68.193  1.00  0.00    -0.330 A  
HETATM   26  C   UNK A   0      -5.949  19.497  67.674  1.00  0.00    -0.208 A  
ENDBRANCH  20  21
ENDBRANCH  19  20
ENDBRANCH  18  19
BRANCH  18  27
HETATM   27  C   UNK A   0     -10.347  14.162  65.325  1.00  0.00    -0.388 C  
HETATM   28  O   UNK A   0     -10.849  15.007  64.598  1.00  0.00    -0.373 OA 
BRANCH  27  29
HETATM   29  O   UNK A   0     -10.098  12.864  64.970  1.00  0.00    -0.275 OA 
BRANCH  29  30
HETATM   30  C   UNK A   0     -11.245  12.010  64.842  1.00  0.00    -0.320 C  
HETATM   31  C   UNK A   0     -12.531  12.811  64.929  1.00  0.00    -0.563 C  
ENDBRANCH  29  30
ENDBRANCH  27  29
ENDBRANCH  18  27
ENDBRANCH  16  18
ENDBRANCH  14  16
ENDBRANCH   7  14
TORSDOF 9
ENDMDL
MODEL      265
REMARK 921   NORMALIZED FREE ENERGY PREDICTED BY IDOCK:   -2.50 KCAL/MOL
REMARK 922        TOTAL FREE ENERGY PREDICTED BY IDOCK:   -5.45 KCAL/MOL
REMARK 923 INTER-LIGAND FREE ENERGY PREDICTED BY IDOCK:   -4.76 KCAL/MOL
REMARK 924 INTRA-LIGAND FREE ENERGY PREDICTED BY IDOCK:   -0.68 KCAL/MOL
REMARK 927      BINDING AFFINITY PREDICTED BY RF-SCORE:    0.00 PKD
ROOT
HETATM    1  C   UNK A   1     -10.654  15.621  70.888  1.00  0.00     0.040 C  
HETATM    2  C   UNK A   1     -11.475  16.767  70.265  1.00  0.00     0.420 C  
HETATM    3  C   UNK A   1     -11.666  16.398  68.799  1.00  0.00    -0.037 C  
HETATM    4  C   UNK A   1     -10.600  15.350  68.534  1.00  0.00    -0.240 C  
HETATM    5  C   UNK A   1     -10.565  14.522  69.816  1.00  0.00     0.014 C  
HETATM    6  N   UNK A   1     -11.714  13.647  70.096  1.00  0.00    -0.469 N  
HETATM    7  C   UNK A   1     -12.010  12.434  69.476  1.00  0.00    -0.261 C  
HETATM    8  C   UNK A   1     -12.169  13.827  71.504  1.00  0.00    -0.081 C  
HETATM    9  C   UNK A   1     -13.654  14.163  71.749  1.00  0.00    -0.399 C  
HETATM   10  C   UNK A   1     -11.307  14.954  72.086  1.00  0.00    -0.044 C  
HETATM   11  O   UNK A   1     -12.881  11.713  69.979  1.00  0.00     0.073 OA 
HETATM   12  O   UNK A   1     -14.392  14.258  70.618  1.00  0.00     0.495 OA 
HETATM   13  O   UNK A   1     -14.128  14.371  72.851  1.00  0.00    -0.499 OA 
ENDROOT
BRANCH   7  14
HETATM   14  C   UNK A   1     -11.322  12.010  68.149  1.00  0.00    -0.291 C  
HETATM   15  C   UNK A   1     -11.919  12.812  66.981  1.00  0.00    -0.364 C  
BRANCH  14  16
HETATM   16  N   UNK A   1     -11.487  10.551  67.940  1.00  0.00    -0.633 NA 
HETATM   17  H   UNK A   1     -12.004  10.365  67.081  1.00  0.00     0.000 HD 
BRANCH  16  18
HETATM   18  C   UNK A   0     -10.195   9.798  67.953  1.00  0.00    -0.194 C  
BRANCH  18  19
HETATM   19  C   UNK A   0     -10.448   8.298  67.800  1.00  0.00    -0.280 C  
BRANCH  19  20
HETATM   20  C   UNK A   0      -9.779   7.424  68.872  1.00  0.00    -0.150 C  
BRANCH  20  21
HETATM   21  C   UNK A   0     -10.262   7.913  70.216  1.00  0.00    -0.200 A  
HETATM   22  C   UNK A   0     -11.605   7.760  70.585  1.00  0.00    -0.233 A  
HETATM   23  C   UNK A   0      -9.334   8.355  71.170  1.00  0.00    -0.223 A  
HETATM   24  C   UNK A   0     -12.005   7.994  71.899  1.00  0.00    -0.359 A  
HETATM   25  C   UNK A   0      -9.737   8.591  72.483  1.00  0.00    -0.326 A  
HETATM   26  C   UNK A   0     -11.066   8.394  72.851  1.00  0.00    -0.030 A  
ENDBRANCH  20  21
ENDBRANCH  19  20
ENDBRANCH  18  19
BRANCH  18  27
HETATM   27  C   UNK A   0      -9.279  10.319  66.828  1.00  0.00    -0.157 C  
HETATM   28  O   UNK A   0      -8.337  11.086  66.973  1.00  0.00    -0.129 OA 
BRANCH  27  29
HETATM   29  O   UNK A   0      -9.680   9.780  65.637  1.00  0.00    -0.251 OA 
BRANCH  29  30
HETATM   30  C   UNK A   0      -8.657   9.602  64.644  1.00  0.00    -0.183 C  
HETATM   31  C   UNK A   0      -8.230  10.936  64.059  1.00  0.00     0.226 C  
ENDBRANCH  29  30
ENDBRANCH  27  29
ENDBRANCH  18  27
ENDBRANCH  16  18
ENDBRANCH  14  16
ENDBRANCH   7  14
TORSDOF 9
ENDMDL
MODEL      266
REMARK 921   NORMALIZED FREE ENERGY PREDICTED BY IDOCK:   -2.45 KCAL/MOL
REMARK 922        TOTAL FREE ENERGY PREDICTED BY IDOCK:   -5.37 KCAL/MOL
REMARK 923 INTER-LIGAND FREE ENERGY PREDICTED BY IDOCK:   -4.49 KCAL/MOL
REMARK 924 INTRA-LIGAND FREE ENERGY PREDICTED BY IDOCK:   -0.88 KCAL/MOL
REMARK 927      BINDING AFFINITY PREDICTED BY RF-SCORE:    0.00 PKD
ROOT
HETATM    1  C   UNK A   1      -9.619   9.219  70.648  1.00  0.00    -0.334 C  
HETATM    2  C   UNK A   1      -8.235   9.807  70.309  1.00  0.00    -0.178 C  
HETATM    3  C   UNK A   1      -7.380   8.633  69.851  1.00  0.00    -0.052 C  
HETATM    4  C   UNK A   1      -8.114   7.409  70.370  1.00  0.00    -0.108 C  
HETATM    5  C   UNK A   1      -9.589   7.753  70.184  1.00  0.00    -0.168 C  
HETATM    6  N   UNK A   1     -10.113   7.796  68.810  1.00  0.00    -0.191 N  
HETATM    7  C   UNK A   1     -10.399   6.705  67.990  1.00  0.00    -0.191 C  
HETATM    8  C   UNK A   1     -10.909   9.039  68.598  1.00  0.00    -0.017 C  
HETATM    9  C   UNK A   1     -10.536   9.945  67.407  1.00  0.00    -0.267 C  
HETATM   10  C   UNK A   1     -10.777   9.850  69.894  1.00  0.00    -0.318 C  
HETATM   11  O   UNK A   1     -11.042   6.900  66.952  1.00  0.00    -0.379 OA 
HETATM   12  O   UNK A   1      -9.495   9.488  66.671  1.00  0.00    -0.152 OA 
HETATM   13  O   UNK A   1     -11.088  11.002  67.162  1.00  0.00    -0.285 OA 
ENDROOT
BRANCH   7  14
HETATM   14  C   UNK A   1      -9.873   5.281  68.321  1.00  0.00    -0.155 C  
HETATM   15  C   UNK A   1     -10.148   4.962  69.800  1.00  0.00    -0.319 C  
BRANCH  14  16
HETATM   16  N   UNK A   1      -8.425   5.193  68.011  1.00  0.00    -0.100 NA 
HETATM   17  H   UNK A   1      -8.020   4.350  68.417  1.00  0.00     0.000 HD 
BRANCH  16  18
HETATM   18  C   UNK A   0      -8.124   5.275  66.548  1.00  0.00    -0.108 C  
BRANCH  18  19
HETATM   19  C   UNK A   0      -6.682   5.732  66.324  1.00  0.00    -0.057 C  
BRANCH  19  20
HETATM   20  C   UNK A   0      -6.416   6.352  64.945  1.00  0.00    -0.034 C  
BRANCH  20  21
HETATM   21  C   UNK A   0      -6.112   7.815  65.161  1.00  0.00    -0.038 A  
HETATM   22  C   UNK A   0      -6.049   8.694  64.071  1.00  0.00    -0.071 A  
HETATM   23  C   UNK A   0      -6.074   8.334  66.463  1.00  0.00    -0.049 A  
HETATM   24  C   UNK A   0      -6.001  10.071  64.278  1.00  0.00    -0.130 A  
HETATM   25  C   UNK A   0      -6.023   9.712  66.667  1.00  0.00    -0.059 A  
HETATM   26  C   UNK A   0      -6.005  10.578  65.577  1.00  0.00    -0.134 A  
ENDBRANCH  20  21
ENDBRANCH  19  20
ENDBRANCH  18  19
BRANCH  18  27
HETATM   27  C   UNK A   0      -8.375   3.904  65.889  1.00  0.00    -0.109 C  
HETATM   28  O   UNK A   0      -8.911   3.722  64.806  1.00  0.00    -0.117 OA 
BRANCH  27  29
HETATM   29  O   UNK A   0      -7.895   2.918  66.707  1.00  0.00    -0.075 OA 
BRANCH  29  30
HETATM   30  C   UNK A   0      -8.732   1.763  66.867  1.00  0.00    -0.111 C  
HETATM   31  C   UNK A   0      -9.052   1.523  68.332  1.00  0.00    -0.186 C  
ENDBRANCH  29  30
ENDBRANCH  27  29
ENDBRANCH  18  27
ENDBRANCH  16  18
ENDBRANCH  14  16
ENDBRANCH   7  14
TORSDOF 9
ENDMDL
MODEL      267
REMARK 921   NORMALIZED FREE ENERGY PREDICTED BY IDOCK:   -2.44 KCAL/MOL
REMARK 922        TOTAL FREE ENERGY PREDICTED BY IDOCK:   -5.36 KCAL/MOL
REMARK 923 INTER-LIGAND FREE ENERGY PREDICTED BY IDOCK:   -6.07 KCAL/MOL
REMARK 924 INTRA-LIGAND FREE ENERGY PREDICTED BY IDOCK:    0.72 KCAL/MOL
REMARK 927      BINDING AFFINITY PREDICTED BY RF-SCORE:    0.00 PKD
ROOT
HETATM    1  C   UNK A   1      -8.422   9.330  69.201  1.00  0.00    -0.133 C  
HETATM    2  C   UNK A   1      -9.281   8.613  68.141  1.00  0.00    -0.142 C  
HETATM    3  C   UNK A   1     -10.246   9.662  67.602  1.00  0.00    -0.267 C  
HETATM    4  C   UNK A   1     -10.231  10.760  68.651  1.00  0.00    -0.198 C  
HETATM    5  C   UNK A   1      -8.775  10.824  69.102  1.00  0.00    -0.091 C  
HETATM    6  N   UNK A   1      -7.789  11.368  68.155  1.00  0.00    -0.122 N  
HETATM    7  C   UNK A   1      -7.607  12.709  67.818  1.00  0.00    -0.141 C  
HETATM    8  C   UNK A   1      -6.598  10.474  68.077  1.00  0.00    -0.060 C  
HETATM    9  C   UNK A   1      -6.157   9.975  66.686  1.00  0.00    -0.064 C  
HETATM   10  C   UNK A   1      -6.925   9.259  68.955  1.00  0.00    -0.064 C  
HETATM   11  O   UNK A   1      -6.593  13.024  67.183  1.00  0.00    -0.184 OA 
HETATM   12  O   UNK A   1      -6.929  10.424  65.668  1.00  0.00    -0.128 OA 
HETATM   13  O   UNK A   1      -5.227   9.211  66.505  1.00  0.00    -0.036 OA 
ENDROOT
BRANCH   7  14
HETATM   14  C   UNK A   1      -8.672  13.785  68.164  1.00  0.00    -0.183 C  
HETATM   15  C   UNK A   1      -8.639  14.076  69.673  1.00  0.00     0.955 C  
BRANCH  14  16
HETATM   16  N   UNK A   1     -10.014  13.322  67.734  1.00  0.00    -0.218 NA 
HETATM   17  H   UNK A   1     -10.383  12.630  68.386  1.00  0.00     0.000 HD 
BRANCH  16  18
HETATM   18  C   UNK A   0     -10.993  14.435  67.533  1.00  0.00    -0.293 C  
BRANCH  18  19
HETATM   19  C   UNK A   0     -10.548  15.683  68.296  1.00  0.00    -0.262 C  
BRANCH  19  20
HETATM   20  C   UNK A   0     -11.652  16.350  69.129  1.00  0.00    -0.117 C  
BRANCH  20  21
HETATM   21  C   UNK A   0     -11.864  15.499  70.358  1.00  0.00    -0.379 A  
HETATM   22  C   UNK A   0     -11.683  16.044  71.636  1.00  0.00    -0.583 A  
HETATM   23  C   UNK A   0     -12.419  14.216  70.230  1.00  0.00    -0.416 A  
HETATM   24  C   UNK A   0     -12.098  15.341  72.766  1.00  0.00    -0.525 A  
HETATM   25  C   UNK A   0     -12.829  13.515  71.362  1.00  0.00    -0.440 A  
HETATM   26  C   UNK A   0     -12.686  14.083  72.626  1.00  0.00    -0.324 A  
ENDBRANCH  20  21
ENDBRANCH  19  20
ENDBRANCH  18  19
BRANCH  18  27
HETATM   27  C   UNK A   0     -11.137  14.733  66.027  1.00  0.00    -0.330 C  
HETATM   28  O   UNK A   0     -10.912  15.808  65.488  1.00  0.00    -0.322 OA 
BRANCH  27  29
HETATM   29  O   UNK A   0     -11.551  13.600  65.382  1.00  0.00    -0.311 OA 
BRANCH  29  30
HETATM   30  C   UNK A   0     -10.793  13.215  64.225  1.00  0.00    -0.406 C  
HETATM   31  C   UNK A   0     -11.691  12.599  63.168  1.00  0.00    -0.290 C  
ENDBRANCH  29  30
ENDBRANCH  27  29
ENDBRANCH  18  27
ENDBRANCH  16  18
ENDBRANCH  14  16
ENDBRANCH   7  14
TORSDOF 9
ENDMDL
MODEL      268
REMARK 921   NORMALIZED FREE ENERGY PREDICTED BY IDOCK:   -2.41 KCAL/MOL
REMARK 922        TOTAL FREE ENERGY PREDICTED BY IDOCK:   -5.31 KCAL/MOL
REMARK 923 INTER-LIGAND FREE ENERGY PREDICTED BY IDOCK:   -3.62 KCAL/MOL
REMARK 924 INTRA-LIGAND FREE ENERGY PREDICTED BY IDOCK:   -1.69 KCAL/MOL
REMARK 927      BINDING AFFINITY PREDICTED BY RF-SCORE:    0.00 PKD
ROOT
HETATM    1  C   UNK A   1      -9.199  10.450  67.431  1.00  0.00    -0.154 C  
HETATM    2  C   UNK A   1      -8.179  11.596  67.283  1.00  0.00    -0.159 C  
HETATM    3  C   UNK A   1      -6.803  10.951  67.390  1.00  0.00    -0.079 C  
HETATM    4  C   UNK A   1      -7.070   9.604  68.038  1.00  0.00    -0.080 C  
HETATM    5  C   UNK A   1      -8.385   9.145  67.416  1.00  0.00    -0.115 C  
HETATM    6  N   UNK A   1      -8.368   8.744  66.000  1.00  0.00    -0.120 N  
HETATM    7  C   UNK A   1      -7.857   7.558  65.474  1.00  0.00    -0.114 C  
HETATM    8  C   UNK A   1      -9.493   9.390  65.266  1.00  0.00    -0.227 C  
HETATM    9  C   UNK A   1      -9.161  10.197  63.995  1.00  0.00    -0.254 C  
HETATM   10  C   UNK A   1     -10.177  10.321  66.275  1.00  0.00    -0.287 C  
HETATM   11  O   UNK A   1      -8.121   7.272  64.300  1.00  0.00    -0.126 OA 
HETATM   12  O   UNK A   1      -7.842  10.224  63.687  1.00  0.00    -0.157 OA 
HETATM   13  O   UNK A   1      -9.991  10.800  63.339  1.00  0.00    -0.322 OA 
ENDROOT
BRANCH   7  14
HETATM   14  C   UNK A   1      -6.921   6.638  66.306  1.00  0.00    -0.062 C  
HETATM   15  C   UNK A   1      -5.727   6.202  65.442  1.00  0.00    -0.024 C  
BRANCH  14  16
HETATM   16  N   UNK A   1      -7.681   5.466  66.805  1.00  0.00    -0.099 NA 
HETATM   17  H   UNK A   1      -7.686   4.717  66.113  1.00  0.00     0.000 HD 
BRANCH  16  18
HETATM   18  C   UNK A   0      -7.198   4.961  68.128  1.00  0.00    -0.062 C  
BRANCH  18  19
HETATM   19  C   UNK A   0      -7.271   6.067  69.181  1.00  0.00    -0.082 C  
BRANCH  19  20
HETATM   20  C   UNK A   0      -6.551   5.743  70.499  1.00  0.00    -0.044 C  
BRANCH  20  21
HETATM   21  C   UNK A   0      -7.610   5.390  71.515  1.00  0.00    -0.103 A  
HETATM   22  C   UNK A   0      -8.803   6.122  71.578  1.00  0.00    -0.135 A  
HETATM   23  C   UNK A   0      -7.483   4.218  72.275  1.00  0.00    -0.068 A  
HETATM   24  C   UNK A   0      -9.871   5.663  72.346  1.00  0.00    -0.189 A  
HETATM   25  C   UNK A   0      -8.552   3.763  73.045  1.00  0.00    -0.094 A  
HETATM   26  C   UNK A   0      -9.749   4.475  73.067  1.00  0.00    -0.167 A  
ENDBRANCH  20  21
ENDBRANCH  19  20
ENDBRANCH  18  19
BRANCH  18  27
HETATM   27  C   UNK A   0      -8.034   3.738  68.554  1.00  0.00    -0.070 C  
HETATM   28  O   UNK A   0      -9.172   3.773  69.001  1.00  0.00    -0.129 OA 
BRANCH  27  29
HETATM   29  O   UNK A   0      -7.303   2.600  68.346  1.00  0.00    -0.048 OA 
BRANCH  29  30
HETATM   30  C   UNK A   0      -6.996   1.821  69.513  1.00  0.00    -0.033 C  
HETATM   31  C   UNK A   0      -5.602   2.137  70.025  1.00  0.00    -0.017 C  
ENDBRANCH  29  30
ENDBRANCH  27  29
ENDBRANCH  18  27
ENDBRANCH  16  18
ENDBRANCH  14  16
ENDBRANCH   7  14
TORSDOF 9
ENDMDL
MODEL      269
REMARK 921   NORMALIZED FREE ENERGY PREDICTED BY IDOCK:   -2.34 KCAL/MOL
REMARK 922        TOTAL FREE ENERGY PREDICTED BY IDOCK:   -5.20 KCAL/MOL
REMARK 923 INTER-LIGAND FREE ENERGY PREDICTED BY IDOCK:   -4.63 KCAL/MOL
REMARK 924 INTRA-LIGAND FREE ENERGY PREDICTED BY IDOCK:   -0.57 KCAL/MOL
REMARK 927      BINDING AFFINITY PREDICTED BY RF-SCORE:    0.00 PKD
ROOT
HETATM    1  C   UNK A   1      -5.544   9.744  69.365  1.00  0.00    -0.034 C  
HETATM    2  C   UNK A   1      -5.204   8.503  70.213  1.00  0.00    -0.022 C  
HETATM    3  C   UNK A   1      -6.470   8.164  70.990  1.00  0.00    -0.038 C  
HETATM    4  C   UNK A   1      -7.300   9.434  70.928  1.00  0.00    -0.095 C  
HETATM    5  C   UNK A   1      -7.058   9.968  69.518  1.00  0.00    -0.091 C  
HETATM    6  N   UNK A   1      -7.651   9.225  68.395  1.00  0.00    -0.085 N  
HETATM    7  C   UNK A   1      -8.994   9.212  68.019  1.00  0.00    -0.128 C  
HETATM    8  C   UNK A   1      -6.637   9.011  67.324  1.00  0.00    -0.061 C  
HETATM    9  C   UNK A   1      -6.396   7.570  66.831  1.00  0.00    -0.049 C  
HETATM   10  C   UNK A   1      -5.319   9.571  67.872  1.00  0.00    -0.037 C  
HETATM   11  O   UNK A   1      -9.294   8.721  66.924  1.00  0.00    -0.150 OA 
HETATM   12  O   UNK A   1      -7.159   6.640  67.451  1.00  0.00    -0.075 OA 
HETATM   13  O   UNK A   1      -5.566   7.271  65.992  1.00  0.00    -0.030 OA 
ENDROOT
BRANCH   7  14
HETATM   14  C   UNK A   1     -10.109   9.734  68.967  1.00  0.00    -0.187 C  
HETATM   15  C   UNK A   1     -10.051  11.269  69.032  1.00  0.00    -0.147 C  
BRANCH  14  16
HETATM   16  N   UNK A   1      -9.948   9.131  70.313  1.00  0.00    -0.194 NA 
HETATM   17  H   UNK A   1     -10.205   9.798  71.040  1.00  0.00     0.000 HD 
BRANCH  16  18
HETATM   18  C   UNK A   0     -10.696   7.847  70.483  1.00  0.00    -0.233 C  
BRANCH  18  19
HETATM   19  C   UNK A   0      -9.872   6.673  69.955  1.00  0.00    -0.178 C  
BRANCH  19  20
HETATM   20  C   UNK A   0     -10.522   5.907  68.794  1.00  0.00    -0.314 C  
BRANCH  20  21
HETATM   21  C   UNK A   0      -9.833   4.568  68.697  1.00  0.00    -0.168 A  
HETATM   22  C   UNK A   0      -9.441   4.062  67.450  1.00  0.00    -0.231 A  
HETATM   23  C   UNK A   0      -9.419   3.910  69.865  1.00  0.00    -0.267 A  
HETATM   24  C   UNK A   0      -8.605   2.949  67.373  1.00  0.00    -0.118 A  
HETATM   25  C   UNK A   0      -8.587   2.796  69.784  1.00  0.00    -0.112 A  
HETATM   26  C   UNK A   0      -8.167   2.327  68.542  1.00  0.00    -0.073 A  
ENDBRANCH  20  21
ENDBRANCH  19  20
ENDBRANCH  18  19
BRANCH  18  27
HETATM   27  C   UNK A   0     -11.050   7.646  71.970  1.00  0.00    -0.255 C  
HETATM   28  O   UNK A   0     -10.316   7.892  72.917  1.00  0.00    -0.299 OA 
BRANCH  27  29
HETATM   29  O   UNK A   0     -12.324   7.155  72.067  1.00  0.00    -0.304 OA 
BRANCH  29  30
HETATM   30  C   UNK A   0     -13.275   7.668  71.121  1.00  0.00    -0.136 C  
HETATM   31  C   UNK A   0     -14.340   8.496  71.817  1.00  0.00    -0.522 C  
ENDBRANCH  29  30
ENDBRANCH  27  29
ENDBRANCH  18  27
ENDBRANCH  16  18
ENDBRANCH  14  16
ENDBRANCH   7  14
TORSDOF 9
ENDMDL
MODEL      270
REMARK 921   NORMALIZED FREE ENERGY PREDICTED BY IDOCK:   -2.31 KCAL/MOL
REMARK 922        TOTAL FREE ENERGY PREDICTED BY IDOCK:   -5.16 KCAL/MOL
REMARK 923 INTER-LIGAND FREE ENERGY PREDICTED BY IDOCK:   -3.78 KCAL/MOL
REMARK 924 INTRA-LIGAND FREE ENERGY PREDICTED BY IDOCK:   -1.37 KCAL/MOL
REMARK 927      BINDING AFFINITY PREDICTED BY RF-SCORE:    0.00 PKD
ROOT
HETATM    1  C   UNK A   1      -9.292   6.223  72.478  1.00  0.00    -0.146 C  
HETATM    2  C   UNK A   1     -10.255   5.143  71.948  1.00  0.00    -0.269 C  
HETATM    3  C   UNK A   1     -10.102   5.148  70.433  1.00  0.00    -0.333 C  
HETATM    4  C   UNK A   1      -9.447   6.484  70.127  1.00  0.00    -0.164 C  
HETATM    5  C   UNK A   1      -8.457   6.684  71.271  1.00  0.00    -0.125 C  
HETATM    6  N   UNK A   1      -7.266   5.822  71.303  1.00  0.00    -0.072 N  
HETATM    7  C   UNK A   1      -6.140   5.922  70.486  1.00  0.00    -0.030 C  
HETATM    8  C   UNK A   1      -7.072   5.257  72.669  1.00  0.00    -0.087 C  
HETATM    9  C   UNK A   1      -6.941   3.727  72.808  1.00  0.00    -0.044 C  
HETATM   10  C   UNK A   1      -8.279   5.724  73.494  1.00  0.00    -0.112 C  
HETATM   11  O   UNK A   1      -5.133   5.270  70.787  1.00  0.00    -0.004 OA 
HETATM   12  O   UNK A   1      -7.019   3.057  71.634  1.00  0.00    -0.030 OA 
HETATM   13  O   UNK A   1      -6.821   3.152  73.875  1.00  0.00    -0.033 OA 
ENDROOT
BRANCH   7  14
HETATM   14  C   UNK A   1      -6.153   6.776  69.188  1.00  0.00    -0.026 C  
HETATM   15  C   UNK A   1      -5.209   6.148  68.150  1.00  0.00    -0.004 C  
BRANCH  14  16
HETATM   16  N   UNK A   1      -5.758   8.172  69.499  1.00  0.00    -0.026 NA 
HETATM   17  H   UNK A   1      -4.747   8.247  69.603  1.00  0.00     0.000 HD 
BRANCH  16  18
HETATM   18  C   UNK A   0      -6.264   9.170  68.506  1.00  0.00    -0.049 C  
BRANCH  18  19
HETATM   19  C   UNK A   0      -7.073   8.473  67.413  1.00  0.00    -0.080 C  
BRANCH  19  20
HETATM   20  C   UNK A   0      -8.580   8.772  67.444  1.00  0.00    -0.126 C  
BRANCH  20  21
HETATM   21  C   UNK A   0      -9.289   7.572  66.864  1.00  0.00    -0.197 A  
HETATM   22  C   UNK A   0      -8.568   6.592  66.168  1.00  0.00    -0.146 A  
HETATM   23  C   UNK A   0     -10.637   7.341  67.176  1.00  0.00    -0.416 A  
HETATM   24  C   UNK A   0      -9.170   5.379  65.836  1.00  0.00    -0.165 A  
HETATM   25  C   UNK A   0     -11.236   6.129  66.840  1.00  0.00    -0.157 A  
HETATM   26  C   UNK A   0     -10.499   5.144  66.187  1.00  0.00    -0.301 A  
ENDBRANCH  20  21
ENDBRANCH  19  20
ENDBRANCH  18  19
BRANCH  18  27
HETATM   27  C   UNK A   0      -7.115  10.234  69.227  1.00  0.00    -0.083 C  
HETATM   28  O   UNK A   0      -7.818  10.039  70.209  1.00  0.00    -0.172 OA 
BRANCH  27  29
HETATM   29  O   UNK A   0      -6.955  11.438  68.599  1.00  0.00    -0.073 OA 
BRANCH  29  30
HETATM   30  C   UNK A   0      -8.155  12.183  68.339  1.00  0.00    -0.149 C  
HETATM   31  C   UNK A   0      -8.451  12.234  66.851  1.00  0.00    -0.159 C  
ENDBRANCH  29  30
ENDBRANCH  27  29
ENDBRANCH  18  27
ENDBRANCH  16  18
ENDBRANCH  14  16
ENDBRANCH   7  14
TORSDOF 9
ENDMDL
MODEL      271
REMARK 921   NORMALIZED FREE ENERGY PREDICTED BY IDOCK:   -2.27 KCAL/MOL
REMARK 922        TOTAL FREE ENERGY PREDICTED BY IDOCK:   -5.10 KCAL/MOL
REMARK 923 INTER-LIGAND FREE ENERGY PREDICTED BY IDOCK:   -4.03 KCAL/MOL
REMARK 924 INTRA-LIGAND FREE ENERGY PREDICTED BY IDOCK:   -1.07 KCAL/MOL
REMARK 927      BINDING AFFINITY PREDICTED BY RF-SCORE:    0.00 PKD
ROOT
HETATM    1  C   UNK A   1      -9.756   9.872  64.682  1.00  0.00    -0.265 C  
HETATM    2  C   UNK A   1      -9.903  11.405  64.760  1.00  0.00    -0.302 C  
HETATM    3  C   UNK A   1     -10.080  11.736  66.236  1.00  0.00    -0.248 C  
HETATM    4  C   UNK A   1     -10.486  10.417  66.871  1.00  0.00    -0.300 C  
HETATM    5  C   UNK A   1      -9.648   9.376  66.134  1.00  0.00    -0.247 C  
HETATM    6  N   UNK A   1      -8.202   9.349  66.403  1.00  0.00    -0.110 N  
HETATM    7  C   UNK A   1      -7.573   8.856  67.546  1.00  0.00    -0.093 C  
HETATM    8  C   UNK A   1      -7.439   9.292  65.123  1.00  0.00    -0.105 C  
HETATM    9  C   UNK A   1      -6.351  10.357  64.880  1.00  0.00    -0.086 C  
HETATM   10  C   UNK A   1      -8.484   9.392  64.004  1.00  0.00    -0.203 C  
HETATM   11  O   UNK A   1      -6.347   8.698  67.522  1.00  0.00    -0.055 OA 
HETATM   12  O   UNK A   1      -6.212  11.246  65.892  1.00  0.00    -0.043 OA 
HETATM   13  O   UNK A   1      -5.694  10.433  63.857  1.00  0.00    -0.140 OA 
ENDROOT
BRANCH   7  14
HETATM   14  C   UNK A   1      -8.368   8.568  68.849  1.00  0.00    -0.118 C  
HETATM   15  C   UNK A   1      -8.474   9.855  69.683  1.00  0.00    -0.198 C  
BRANCH  14  16
HETATM   16  N   UNK A   1      -7.705   7.484  69.615  1.00  0.00    -0.098 NA 
HETATM   17  H   UNK A   1      -7.202   7.863  70.416  1.00  0.00     0.000 HD 
BRANCH  16  18
HETATM   18  C   UNK A   0      -8.641   6.398  70.043  1.00  0.00    -0.135 C  
BRANCH  18  19
HETATM   19  C   UNK A   0      -7.971   5.031  69.910  1.00  0.00    -0.074 C  
BRANCH  19  20
HETATM   20  C   UNK A   0      -6.910   4.732  70.979  1.00  0.00    -0.036 C  
BRANCH  20  21
HETATM   21  C   UNK A   0      -7.500   3.716  71.927  1.00  0.00    -0.056 A  
HETATM   22  C   UNK A   0      -8.662   3.014  71.579  1.00  0.00    -0.116 A  
HETATM   23  C   UNK A   0      -6.789   3.339  73.075  1.00  0.00    -0.038 A  
HETATM   24  C   UNK A   0      -9.077   1.920  72.335  1.00  0.00    -0.109 A  
HETATM   25  C   UNK A   0      -7.208   2.246  73.832  1.00  0.00    -0.032 A  
HETATM   26  C   UNK A   0      -8.339   1.528  73.453  1.00  0.00    -0.049 A  
ENDBRANCH  20  21
ENDBRANCH  19  20
ENDBRANCH  18  19
BRANCH  18  27
HETATM   27  C   UNK A   0      -9.097   6.649  71.494  1.00  0.00    -0.142 C  
HETATM   28  O   UNK A   0      -8.445   7.218  72.358  1.00  0.00    -0.110 OA 
BRANCH  27  29
HETATM   29  O   UNK A   0     -10.356   6.140  71.663  1.00  0.00    -0.207 OA 
BRANCH  29  30
HETATM   30  C   UNK A   0     -10.979   6.397  72.931  1.00  0.00    -0.250 C  
HETATM   31  C   UNK A   0     -11.408   5.103  73.598  1.00  0.00    -0.060 C  
ENDBRANCH  29  30
ENDBRANCH  27  29
ENDBRANCH  18  27
ENDBRANCH  16  18
ENDBRANCH  14  16
ENDBRANCH   7  14
TORSDOF 9
ENDMDL
MODEL      272
REMARK 921   NORMALIZED FREE ENERGY PREDICTED BY IDOCK:   -2.25 KCAL/MOL
REMARK 922        TOTAL FREE ENERGY PREDICTED BY IDOCK:   -5.06 KCAL/MOL
REMARK 923 INTER-LIGAND FREE ENERGY PREDICTED BY IDOCK:   -5.06 KCAL/MOL
REMARK 924 INTRA-LIGAND FREE ENERGY PREDICTED BY IDOCK:    0.00 KCAL/MOL
REMARK 927      BINDING AFFINITY PREDICTED BY RF-SCORE:    0.00 PKD
ROOT
HETATM    1  C   UNK A   1      -6.493   7.484  66.813  1.00  0.00    -0.056 C  
HETATM    2  C   UNK A   1      -5.811   7.910  68.128  1.00  0.00    -0.040 C  
HETATM    3  C   UNK A   1      -6.358   9.292  68.457  1.00  0.00    -0.053 C  
HETATM    4  C   UNK A   1      -6.941   9.788  67.145  1.00  0.00    -0.085 C  
HETATM    5  C   UNK A   1      -7.569   8.544  66.523  1.00  0.00    -0.088 C  
HETATM    6  N   UNK A   1      -8.786   8.006  67.151  1.00  0.00    -0.129 N  
HETATM    7  C   UNK A   1     -10.073   8.538  67.069  1.00  0.00    -0.277 C  
HETATM    8  C   UNK A   1      -8.664   6.532  67.338  1.00  0.00    -0.117 C  
HETATM    9  C   UNK A   1      -8.899   5.959  68.750  1.00  0.00    -0.111 C  
HETATM   10  C   UNK A   1      -7.245   6.166  66.888  1.00  0.00    -0.074 C  
HETATM   11  O   UNK A   1     -11.022   7.848  67.462  1.00  0.00    -0.141 OA 
HETATM   12  O   UNK A   1      -9.198   6.894  69.683  1.00  0.00    -0.146 OA 
HETATM   13  O   UNK A   1      -8.787   4.779  69.029  1.00  0.00    -0.090 OA 
ENDROOT
BRANCH   7  14
HETATM   14  C   UNK A   1     -10.323   9.985  66.561  1.00  0.00    -0.198 C  
HETATM   15  C   UNK A   1      -9.691  10.158  65.170  1.00  0.00    -0.370 C  
BRANCH  14  16
HETATM   16  N   UNK A   1      -9.770  10.962  67.530  1.00  0.00    -0.166 NA 
HETATM   17  H   UNK A   1      -8.983  11.467  67.124  1.00  0.00     0.000 HD 
BRANCH  16  18
HETATM   18  C   UNK A   0     -10.792  11.914  68.064  1.00  0.00    -0.216 C  
BRANCH  18  19
HETATM   19  C   UNK A   0     -11.427  12.712  66.925  1.00  0.00    -0.402 C  
BRANCH  19  20
HETATM   20  C   UNK A   0     -10.541  13.829  66.356  1.00  0.00    -0.284 C  
BRANCH  20  21
HETATM   21  C   UNK A   0     -10.476  14.924  67.393  1.00  0.00    -0.255 A  
HETATM   22  C   UNK A   0      -9.549  15.967  67.266  1.00  0.00    -0.220 A  
HETATM   23  C   UNK A   0     -11.463  15.001  68.388  1.00  0.00    -0.340 A  
HETATM   24  C   UNK A   0      -9.637  17.092  68.083  1.00  0.00    -0.266 A  
HETATM   25  C   UNK A   0     -11.546  16.126  69.206  1.00  0.00    -0.270 A  
HETATM   26  C   UNK A   0     -10.647  17.176  69.042  1.00  0.00    -0.282 A  
ENDBRANCH  20  21
ENDBRANCH  19  20
ENDBRANCH  18  19
BRANCH  18  27
HETATM   27  C   UNK A   0     -11.863  11.137  68.856  1.00  0.00    -0.337 C  
HETATM   28  O   UNK A   0     -13.035  11.011  68.534  1.00  0.00     0.991 OA 
BRANCH  27  29
HETATM   29  O   UNK A   0     -11.291  10.601  69.977  1.00  0.00    -0.278 OA 
BRANCH  29  30
HETATM   30  C   UNK A   0     -12.061  10.689  71.186  1.00  0.00    -0.341 C  
HETATM   31  C   UNK A   0     -12.923   9.454  71.372  1.00  0.00    -0.421 C  
ENDBRANCH  29  30
ENDBRANCH  27  29
ENDBRANCH  18  27
ENDBRANCH  16  18
ENDBRANCH  14  16
ENDBRANCH   7  14
TORSDOF 9
ENDMDL
MODEL      273
REMARK 921   NORMALIZED FREE ENERGY PREDICTED BY IDOCK:   -2.17 KCAL/MOL
REMARK 922        TOTAL FREE ENERGY PREDICTED BY IDOCK:   -4.94 KCAL/MOL
REMARK 923 INTER-LIGAND FREE ENERGY PREDICTED BY IDOCK:   -4.43 KCAL/MOL
REMARK 924 INTRA-LIGAND FREE ENERGY PREDICTED BY IDOCK:   -0.51 KCAL/MOL
REMARK 927      BINDING AFFINITY PREDICTED BY RF-SCORE:    0.00 PKD
ROOT
HETATM    1  C   UNK A   1      -9.910   5.760  73.023  1.00  0.00    -0.179 C  
HETATM    2  C   UNK A   1      -8.994   6.832  73.645  1.00  0.00    -0.163 C  
HETATM    3  C   UNK A   1      -7.882   7.075  72.634  1.00  0.00    -0.096 C  
HETATM    4  C   UNK A   1      -7.926   5.857  71.727  1.00  0.00    -0.111 C  
HETATM    5  C   UNK A   1      -9.416   5.557  71.580  1.00  0.00    -0.148 C  
HETATM    6  N   UNK A   1     -10.226   6.493  70.784  1.00  0.00    -0.185 N  
HETATM    7  C   UNK A   1     -10.245   6.608  69.394  1.00  0.00    -0.183 C  
HETATM    8  C   UNK A   1     -11.472   6.852  71.518  1.00  0.00    -0.277 C  
HETATM    9  C   UNK A   1     -11.783   8.347  71.732  1.00  0.00    -0.310 C  
HETATM   10  C   UNK A   1     -11.366   6.171  72.889  1.00  0.00    -0.204 C  
HETATM   11  O   UNK A   1     -11.141   7.281  68.871  1.00  0.00    -0.080 OA 
HETATM   12  O   UNK A   1     -10.856   9.184  71.210  1.00  0.00    -0.275 OA 
HETATM   13  O   UNK A   1     -12.749   8.756  72.351  1.00  0.00    -0.386 OA 
ENDROOT
BRANCH   7  14
HETATM   14  C   UNK A   1      -9.138   5.968  68.511  1.00  0.00    -0.112 C  
HETATM   15  C   UNK A   1      -9.110   4.448  68.741  1.00  0.00    -0.173 C  
BRANCH  14  16
HETATM   16  N   UNK A   1      -7.825   6.585  68.825  1.00  0.00    -0.109 NA 
HETATM   17  H   UNK A   1      -7.266   5.965  69.410  1.00  0.00     0.000 HD 
BRANCH  16  18
HETATM   18  C   UNK A   0      -7.058   7.001  67.610  1.00  0.00    -0.085 C  
BRANCH  18  19
HETATM   19  C   UNK A   0      -7.892   6.780  66.348  1.00  0.00    -0.104 C  
BRANCH  19  20
HETATM   20  C   UNK A   0      -7.185   5.974  65.248  1.00  0.00    -0.070 C  
BRANCH  20  21
HETATM   21  C   UNK A   0      -8.255   5.279  64.441  1.00  0.00    -0.135 A  
HETATM   22  C   UNK A   0      -8.108   5.124  63.056  1.00  0.00    -0.100 A  
HETATM   23  C   UNK A   0      -9.309   4.628  65.097  1.00  0.00    -0.153 A  
HETATM   24  C   UNK A   0      -8.969   4.289  62.347  1.00  0.00    -0.110 A  
HETATM   25  C   UNK A   0     -10.171   3.796  64.384  1.00  0.00    -0.227 A  
HETATM   26  C   UNK A   0      -9.990   3.613  63.015  1.00  0.00    -0.153 A  
ENDBRANCH  20  21
ENDBRANCH  19  20
ENDBRANCH  18  19
BRANCH  18  27
HETATM   27  C   UNK A   0      -6.640   8.479  67.742  1.00  0.00    -0.062 C  
HETATM   28  O   UNK A   0      -6.268   9.199  66.826  1.00  0.00    -0.063 OA 
BRANCH  27  29
HETATM   29  O   UNK A   0      -6.760   8.865  69.049  1.00  0.00    -0.050 OA 
BRANCH  29  30
HETATM   30  C   UNK A   0      -6.165  10.125  69.396  1.00  0.00    -0.046 C  
HETATM   31  C   UNK A   0      -5.569  10.077  70.792  1.00  0.00    -0.078 C  
ENDBRANCH  29  30
ENDBRANCH  27  29
ENDBRANCH  18  27
ENDBRANCH  16  18
ENDBRANCH  14  16
ENDBRANCH   7  14
TORSDOF 9
ENDMDL
MODEL      274
REMARK 921   NORMALIZED FREE ENERGY PREDICTED BY IDOCK:   -2.15 KCAL/MOL
REMARK 922        TOTAL FREE ENERGY PREDICTED BY IDOCK:   -4.92 KCAL/MOL
REMARK 923 INTER-LIGAND FREE ENERGY PREDICTED BY IDOCK:   -6.45 KCAL/MOL
REMARK 924 INTRA-LIGAND FREE ENERGY PREDICTED BY IDOCK:    1.53 KCAL/MOL
REMARK 927      BINDING AFFINITY PREDICTED BY RF-SCORE:    0.00 PKD
ROOT
HETATM    1  C   UNK A   1      -6.615   7.431  66.713  1.00  0.00    -0.057 C  
HETATM    2  C   UNK A   1      -6.603   8.815  66.033  1.00  0.00    -0.057 C  
HETATM    3  C   UNK A   1      -8.062   9.233  65.904  1.00  0.00    -0.111 C  
HETATM    4  C   UNK A   1      -8.840   7.939  66.069  1.00  0.00    -0.191 C  
HETATM    5  C   UNK A   1      -8.070   7.176  67.143  1.00  0.00    -0.114 C  
HETATM    6  N   UNK A   1      -8.134   7.685  68.522  1.00  0.00    -0.123 N  
HETATM    7  C   UNK A   1      -9.211   7.577  69.402  1.00  0.00    -0.149 C  
HETATM    8  C   UNK A   1      -6.768   7.748  69.115  1.00  0.00    -0.048 C  
HETATM    9  C   UNK A   1      -6.301   9.089  69.716  1.00  0.00    -0.038 C  
HETATM   10  C   UNK A   1      -5.802   7.348  67.993  1.00  0.00    -0.031 C  
HETATM   11  O   UNK A   1      -9.028   7.854  70.594  1.00  0.00    -0.145 OA 
HETATM   12  O   UNK A   1      -7.217  10.082  69.631  1.00  0.00    -0.087 OA 
HETATM   13  O   UNK A   1      -5.193   9.268  70.190  1.00  0.00    -0.028 OA 
ENDROOT
BRANCH   7  14
HETATM   14  C   UNK A   1     -10.630   7.184  68.905  1.00  0.00    -0.201 C  
HETATM   15  C   UNK A   1     -10.733   7.435  67.392  1.00  0.00    -0.348 C  
BRANCH  14  16
HETATM   16  N   UNK A   1     -11.656   7.955  69.650  1.00  0.00    -0.267 NA 
HETATM   17  H   UNK A   1     -11.915   7.473  70.510  1.00  0.00     0.000 HD 
BRANCH  16  18
HETATM   18  C   UNK A   0     -11.249   9.366  69.935  1.00  0.00    -0.155 C  
BRANCH  18  19
HETATM   19  C   UNK A   0     -11.548  10.262  68.733  1.00  0.00    -0.118 C  
BRANCH  19  20
HETATM   20  C   UNK A   0     -10.353  11.096  68.245  1.00  0.00    -0.198 C  
BRANCH  20  21
HETATM   21  C   UNK A   0     -10.874  12.065  67.212  1.00  0.00    -0.290 A  
HETATM   22  C   UNK A   0     -11.716  13.119  67.591  1.00  0.00    -0.414 A  
HETATM   23  C   UNK A   0     -10.372  12.025  65.903  1.00  0.00    -0.278 A  
HETATM   24  C   UNK A   0     -12.009  14.144  66.693  1.00  0.00    -0.470 A  
HETATM   25  C   UNK A   0     -10.669  13.049  65.006  1.00  0.00    -0.333 A  
HETATM   26  C   UNK A   0     -11.472  14.115  65.406  1.00  0.00    -0.325 A  
ENDBRANCH  20  21
ENDBRANCH  19  20
ENDBRANCH  18  19
BRANCH  18  27
HETATM   27  C   UNK A   0     -11.980   9.872  71.194  1.00  0.00    -0.384 C  
HETATM   28  O   UNK A   0     -11.991   9.318  72.284  1.00  0.00    -0.299 OA 
BRANCH  27  29
HETATM   29  O   UNK A   0     -12.613  11.050  70.903  1.00  0.00    -0.351 OA 
BRANCH  29  30
HETATM   30  C   UNK A   0     -13.402  11.624  71.957  1.00  0.00    -0.300 C  
HETATM   31  C   UNK A   0     -13.353  13.141  71.908  1.00  0.00    -0.546 C  
ENDBRANCH  29  30
ENDBRANCH  27  29
ENDBRANCH  18  27
ENDBRANCH  16  18
ENDBRANCH  14  16
ENDBRANCH   7  14
TORSDOF 9
ENDMDL
MODEL      275
REMARK 921   NORMALIZED FREE ENERGY PREDICTED BY IDOCK:   -2.15 KCAL/MOL
REMARK 922        TOTAL FREE ENERGY PREDICTED BY IDOCK:   -4.92 KCAL/MOL
REMARK 923 INTER-LIGAND FREE ENERGY PREDICTED BY IDOCK:   -5.13 KCAL/MOL
REMARK 924 INTRA-LIGAND FREE ENERGY PREDICTED BY IDOCK:    0.21 KCAL/MOL
REMARK 927      BINDING AFFINITY PREDICTED BY RF-SCORE:    0.00 PKD
ROOT
HETATM    1  C   UNK A   1     -14.247  14.067  71.267  1.00  0.00     0.030 C  
HETATM    2  C   UNK A   1     -13.776  12.882  72.132  1.00  0.00    -0.505 C  
HETATM    3  C   UNK A   1     -12.570  12.290  71.413  1.00  0.00    -0.303 C  
HETATM    4  C   UNK A   1     -12.677  12.826  69.996  1.00  0.00     0.246 C  
HETATM    5  C   UNK A   1     -13.179  14.257  70.176  1.00  0.00     0.385 C  
HETATM    6  N   UNK A   1     -12.247  15.241  70.749  1.00  0.00    -0.328 N  
HETATM    7  C   UNK A   1     -11.166  15.841  70.103  1.00  0.00    -0.349 C  
HETATM    8  C   UNK A   1     -12.915  16.017  71.832  1.00  0.00    -0.212 C  
HETATM    9  C   UNK A   1     -12.231  16.071  73.212  1.00  0.00    -0.527 C  
HETATM   10  C   UNK A   1     -14.308  15.398  71.997  1.00  0.00    -0.653 C  
HETATM   11  O   UNK A   1     -10.620  16.810  70.644  1.00  0.00     0.245 OA 
HETATM   12  O   UNK A   1     -11.066  15.384  73.279  1.00  0.00     0.327 OA 
HETATM   13  O   UNK A   1     -12.703  16.640  74.180  1.00  0.00    -0.638 OA 
ENDROOT
BRANCH   7  14
HETATM   14  C   UNK A   1     -10.603  15.279  68.768  1.00  0.00    -0.240 C  
HETATM   15  C   UNK A   1     -11.656  15.438  67.659  1.00  0.00    -0.202 C  
BRANCH  14  16
HETATM   16  N   UNK A   1     -10.216  13.857  68.943  1.00  0.00    -0.384 NA 
HETATM   17  H   UNK A   1     -11.021  13.245  68.808  1.00  0.00     0.000 HD 
BRANCH  16  18
HETATM   18  C   UNK A   0      -9.078  13.438  68.069  1.00  0.00    -0.205 C  
BRANCH  18  19
HETATM   19  C   UNK A   0      -8.470  12.129  68.573  1.00  0.00    -0.083 C  
BRANCH  19  20
HETATM   20  C   UNK A   0      -7.005  11.907  68.168  1.00  0.00    -0.078 C  
BRANCH  20  21
HETATM   21  C   UNK A   0      -6.631  10.505  68.584  1.00  0.00    -0.052 A  
HETATM   22  C   UNK A   0      -7.369   9.839  69.571  1.00  0.00    -0.092 A  
HETATM   23  C   UNK A   0      -5.660   9.799  67.859  1.00  0.00    -0.040 A  
HETATM   24  C   UNK A   0      -7.178   8.477  69.794  1.00  0.00    -0.052 A  
HETATM   25  C   UNK A   0      -5.469   8.437  68.086  1.00  0.00    -0.035 A  
HETATM   26  C   UNK A   0      -6.238   7.774  69.039  1.00  0.00    -0.036 A  
ENDBRANCH  20  21
ENDBRANCH  19  20
ENDBRANCH  18  19
BRANCH  18  27
HETATM   27  C   UNK A   0      -9.568  13.292  66.614  1.00  0.00    -0.262 C  
HETATM   28  O   UNK A   0      -9.411  14.115  65.723  1.00  0.00    -0.181 OA 
BRANCH  27  29
HETATM   29  O   UNK A   0     -10.201  12.088  66.472  1.00  0.00    -0.202 OA 
BRANCH  29  30
HETATM   30  C   UNK A   0     -10.667  11.768  65.152  1.00  0.00    -0.291 C  
HETATM   31  C   UNK A   0      -9.948  10.549  64.603  1.00  0.00    -0.415 C  
ENDBRANCH  29  30
ENDBRANCH  27  29
ENDBRANCH  18  27
ENDBRANCH  16  18
ENDBRANCH  14  16
ENDBRANCH   7  14
TORSDOF 9
ENDMDL
MODEL      276
REMARK 921   NORMALIZED FREE ENERGY PREDICTED BY IDOCK:   -2.13 KCAL/MOL
REMARK 922        TOTAL FREE ENERGY PREDICTED BY IDOCK:   -4.89 KCAL/MOL
REMARK 923 INTER-LIGAND FREE ENERGY PREDICTED BY IDOCK:   -5.11 KCAL/MOL
REMARK 924 INTRA-LIGAND FREE ENERGY PREDICTED BY IDOCK:    0.22 KCAL/MOL
REMARK 927      BINDING AFFINITY PREDICTED BY RF-SCORE:    0.00 PKD
ROOT
HETATM    1  C   UNK A   1      -9.518  17.886  67.619  1.00  0.00    -0.260 C  
HETATM    2  C   UNK A   1     -10.945  18.240  67.156  1.00  0.00    -0.085 C  
HETATM    3  C   UNK A   1     -11.280  17.260  66.039  1.00  0.00     0.688 C  
HETATM    4  C   UNK A   1      -9.932  16.718  65.598  1.00  0.00    -0.163 C  
HETATM    5  C   UNK A   1      -9.142  16.581  66.897  1.00  0.00    -0.220 C  
HETATM    6  N   UNK A   1      -9.546  15.520  67.833  1.00  0.00    -0.206 N  
HETATM    7  C   UNK A   1      -9.308  14.152  67.697  1.00  0.00    -0.209 C  
HETATM    8  C   UNK A   1      -9.651  16.062  69.217  1.00  0.00    -0.255 C  
HETATM    9  C   UNK A   1     -10.970  15.844  69.983  1.00  0.00    -0.358 C  
HETATM   10  C   UNK A   1      -9.393  17.570  69.100  1.00  0.00     0.015 C  
HETATM   11  O   UNK A   1      -9.509  13.419  68.673  1.00  0.00    -0.154 OA 
HETATM   12  O   UNK A   1     -11.908  15.162  69.284  1.00  0.00    -0.304 OA 
HETATM   13  O   UNK A   1     -11.184  16.277  71.101  1.00  0.00    -0.315 OA 
ENDROOT
BRANCH   7  14
HETATM   14  C   UNK A   1      -8.865  13.535  66.341  1.00  0.00     0.133 C  
HETATM   15  C   UNK A   1     -10.106  13.126  65.532  1.00  0.00    -0.271 C  
BRANCH  14  16
HETATM   16  N   UNK A   1      -7.973  12.375  66.584  1.00  0.00    -0.396 NA 
HETATM   17  H   UNK A   1      -7.183  12.643  67.169  1.00  0.00     0.000 HD 
BRANCH  16  18
HETATM   18  C   UNK A   0      -8.681  11.190  67.159  1.00  0.00    -0.141 C  
BRANCH  18  19
HETATM   19  C   UNK A   0      -9.313  10.352  66.047  1.00  0.00    -0.219 C  
BRANCH  19  20
HETATM   20  C   UNK A   0     -10.695   9.776  66.389  1.00  0.00    -0.013 C  
BRANCH  20  21
HETATM   21  C   UNK A   0     -10.924  10.001  67.864  1.00  0.00    -0.311 A  
HETATM   22  C   UNK A   0     -11.650  11.114  68.306  1.00  0.00    -0.359 A  
HETATM   23  C   UNK A   0     -10.570   9.003  68.784  1.00  0.00    -0.196 A  
HETATM   24  C   UNK A   0     -12.062  11.204  69.635  1.00  0.00    -0.406 A  
HETATM   25  C   UNK A   0     -10.980   9.097  70.112  1.00  0.00    -0.267 A  
HETATM   26  C   UNK A   0     -11.739  10.187  70.533  1.00  0.00    -0.407 A  
ENDBRANCH  20  21
ENDBRANCH  19  20
ENDBRANCH  18  19
BRANCH  18  27
HETATM   27  C   UNK A   0      -7.691  10.347  67.989  1.00  0.00    -0.092 C  
HETATM   28  O   UNK A   0      -7.571  10.381  69.205  1.00  0.00    -0.095 OA 
BRANCH  27  29
HETATM   29  O   UNK A   0      -6.971   9.544  67.147  1.00  0.00    -0.083 OA 
BRANCH  29  30
HETATM   30  C   UNK A   0      -6.615   8.249  67.656  1.00  0.00    -0.058 C  
HETATM   31  C   UNK A   0      -7.547   7.178  67.116  1.00  0.00    -0.103 C  
ENDBRANCH  29  30
ENDBRANCH  27  29
ENDBRANCH  18  27
ENDBRANCH  16  18
ENDBRANCH  14  16
ENDBRANCH   7  14
TORSDOF 9
ENDMDL
MODEL      277
REMARK 921   NORMALIZED FREE ENERGY PREDICTED BY IDOCK:   -2.12 KCAL/MOL
REMARK 922        TOTAL FREE ENERGY PREDICTED BY IDOCK:   -4.87 KCAL/MOL
REMARK 923 INTER-LIGAND FREE ENERGY PREDICTED BY IDOCK:   -6.41 KCAL/MOL
REMARK 924 INTRA-LIGAND FREE ENERGY PREDICTED BY IDOCK:    1.53 KCAL/MOL
REMARK 927      BINDING AFFINITY PREDICTED BY RF-SCORE:    0.00 PKD
ROOT
HETATM    1  C   UNK A   1      -6.755   9.331  65.204  1.00  0.00    -0.077 C  
HETATM    2  C   UNK A   1      -7.193  10.209  64.015  1.00  0.00    -0.106 C  
HETATM    3  C   UNK A   1      -8.716  10.208  64.029  1.00  0.00    -0.224 C  
HETATM    4  C   UNK A   1      -9.083   9.010  64.887  1.00  0.00    -0.132 C  
HETATM    5  C   UNK A   1      -8.035   9.011  65.996  1.00  0.00    -0.103 C  
HETATM    6  N   UNK A   1      -8.111  10.076  67.008  1.00  0.00    -0.116 N  
HETATM    7  C   UNK A   1      -9.029  10.170  68.054  1.00  0.00    -0.125 C  
HETATM    8  C   UNK A   1      -6.769  10.689  67.218  1.00  0.00    -0.078 C  
HETATM    9  C   UNK A   1      -6.640  12.219  67.079  1.00  0.00    -0.043 C  
HETATM   10  C   UNK A   1      -5.837  10.022  66.197  1.00  0.00    -0.063 C  
HETATM   11  O   UNK A   1      -8.822  11.000  68.947  1.00  0.00    -0.164 OA 
HETATM   12  O   UNK A   1      -7.801  12.845  66.774  1.00  0.00     0.040 OA 
HETATM   13  O   UNK A   1      -5.588  12.823  67.188  1.00  0.00    -0.334 OA 
ENDROOT
BRANCH   7  14
HETATM   14  C   UNK A   1     -10.322   9.308  68.080  1.00  0.00    -0.215 C  
HETATM   15  C   UNK A   1     -11.278   9.780  66.972  1.00  0.00     0.353 C  
BRANCH  14  16
HETATM   16  N   UNK A   1     -10.959   9.397  69.416  1.00  0.00    -0.377 NA 
HETATM   17  H   UNK A   1     -10.338   9.031  70.138  1.00  0.00     0.000 HD 
BRANCH  16  18
HETATM   18  C   UNK A   0     -11.421  10.776  69.765  1.00  0.00    -0.311 C  
BRANCH  18  19
HETATM   19  C   UNK A   0     -11.979  11.482  68.529  1.00  0.00    -0.293 C  
BRANCH  19  20
HETATM   20  C   UNK A   0     -12.022  13.013  68.633  1.00  0.00    -0.298 C  
BRANCH  20  21
HETATM   21  C   UNK A   0     -11.299  13.566  67.428  1.00  0.00    -0.338 A  
HETATM   22  C   UNK A   0     -11.550  13.046  66.152  1.00  0.00    -0.412 A  
HETATM   23  C   UNK A   0     -10.514  14.721  67.557  1.00  0.00    -0.245 A  
HETATM   24  C   UNK A   0     -11.067  13.698  65.019  1.00  0.00    -0.338 A  
HETATM   25  C   UNK A   0     -10.030  15.369  66.422  1.00  0.00    -0.295 A  
HETATM   26  C   UNK A   0     -10.321  14.868  65.155  1.00  0.00    -0.431 A  
ENDBRANCH  20  21
ENDBRANCH  19  20
ENDBRANCH  18  19
BRANCH  18  27
HETATM   27  C   UNK A   0     -12.482  10.701  70.882  1.00  0.00    -0.397 C  
HETATM   28  O   UNK A   0     -12.764  11.603  71.658  1.00  0.00    -0.340 OA 
BRANCH  27  29
HETATM   29  O   UNK A   0     -13.066   9.464  70.864  1.00  0.00    -0.199 OA 
BRANCH  29  30
HETATM   30  C   UNK A   0     -12.896   8.665  72.044  1.00  0.00    -0.379 C  
HETATM   31  C   UNK A   0     -12.266   7.325  71.706  1.00  0.00    -0.368 C  
ENDBRANCH  29  30
ENDBRANCH  27  29
ENDBRANCH  18  27
ENDBRANCH  16  18
ENDBRANCH  14  16
ENDBRANCH   7  14
TORSDOF 9
ENDMDL
MODEL      278
REMARK 921   NORMALIZED FREE ENERGY PREDICTED BY IDOCK:   -2.01 KCAL/MOL
REMARK 922        TOTAL FREE ENERGY PREDICTED BY IDOCK:   -4.69 KCAL/MOL
REMARK 923 INTER-LIGAND FREE ENERGY PREDICTED BY IDOCK:   -5.27 KCAL/MOL
REMARK 924 INTRA-LIGAND FREE ENERGY PREDICTED BY IDOCK:    0.58 KCAL/MOL
REMARK 927      BINDING AFFINITY PREDICTED BY RF-SCORE:    0.00 PKD
ROOT
HETATM    1  C   UNK A   1     -10.709   9.013  70.965  1.00  0.00    -0.339 C  
HETATM    2  C   UNK A   1      -9.262   8.818  71.457  1.00  0.00    -0.332 C  
HETATM    3  C   UNK A   1      -8.753   7.553  70.777  1.00  0.00    -0.140 C  
HETATM    4  C   UNK A   1     -10.013   6.842  70.316  1.00  0.00    -0.192 C  
HETATM    5  C   UNK A   1     -10.931   7.971  69.855  1.00  0.00    -0.172 C  
HETATM    6  N   UNK A   1     -10.574   8.678  68.616  1.00  0.00    -0.367 N  
HETATM    7  C   UNK A   1     -10.719   8.204  67.312  1.00  0.00    -0.193 C  
HETATM    8  C   UNK A   1     -10.651  10.153  68.821  1.00  0.00    -0.213 C  
HETATM    9  C   UNK A   1      -9.413  11.000  68.466  1.00  0.00    -0.188 C  
HETATM   10  C   UNK A   1     -10.977  10.356  70.306  1.00  0.00    -0.353 C  
HETATM   11  O   UNK A   1     -10.585   9.002  66.377  1.00  0.00    -0.148 OA 
HETATM   12  O   UNK A   1      -8.368  10.279  67.995  1.00  0.00    -0.112 OA 
HETATM   13  O   UNK A   1      -9.347  12.204  68.630  1.00  0.00    -0.141 OA 
ENDROOT
BRANCH   7  14
HETATM   14  C   UNK A   1     -10.976   6.700  67.019  1.00  0.00    -0.393 C  
HETATM   15  C   UNK A   1     -11.029   5.919  68.343  1.00  0.00    -0.264 C  
BRANCH  14  16
HETATM   16  N   UNK A   1      -9.917   6.173  66.124  1.00  0.00    -0.392 NA 
HETATM   17  H   UNK A   1      -9.929   6.657  65.227  1.00  0.00     0.000 HD 
BRANCH  16  18
HETATM   18  C   UNK A   0      -8.550   6.214  66.731  1.00  0.00    -0.111 C  
BRANCH  18  19
HETATM   19  C   UNK A   0      -8.168   4.841  67.283  1.00  0.00    -0.106 C  
BRANCH  19  20
HETATM   20  C   UNK A   0      -7.122   4.873  68.407  1.00  0.00    -0.061 C  
BRANCH  20  21
HETATM   21  C   UNK A   0      -7.673   4.067  69.558  1.00  0.00    -0.053 A  
HETATM   22  C   UNK A   0      -7.127   4.201  70.842  1.00  0.00    -0.033 A  
HETATM   23  C   UNK A   0      -8.849   3.322  69.387  1.00  0.00    -0.153 A  
HETATM   24  C   UNK A   0      -7.773   3.644  71.943  1.00  0.00    -0.058 A  
HETATM   25  C   UNK A   0      -9.491   2.763  70.490  1.00  0.00    -0.202 A  
HETATM   26  C   UNK A   0      -8.964   2.938  71.767  1.00  0.00    -0.136 A  
ENDBRANCH  20  21
ENDBRANCH  19  20
ENDBRANCH  18  19
BRANCH  18  27
HETATM   27  C   UNK A   0      -7.529   6.687  65.677  1.00  0.00    -0.082 C  
HETATM   28  O   UNK A   0      -6.484   6.120  65.392  1.00  0.00    -0.037 OA 
BRANCH  27  29
HETATM   29  O   UNK A   0      -7.981   7.843  65.101  1.00  0.00    -0.116 OA 
BRANCH  29  30
HETATM   30  C   UNK A   0      -6.975   8.751  64.625  1.00  0.00    -0.080 C  
HETATM   31  C   UNK A   0      -7.440   9.467  63.369  1.00  0.00    -0.106 C  
ENDBRANCH  29  30
ENDBRANCH  27  29
ENDBRANCH  18  27
ENDBRANCH  16  18
ENDBRANCH  14  16
ENDBRANCH   7  14
TORSDOF 9
ENDMDL
MODEL      279
REMARK 921   NORMALIZED FREE ENERGY PREDICTED BY IDOCK:   -1.95 KCAL/MOL
REMARK 922        TOTAL FREE ENERGY PREDICTED BY IDOCK:   -4.61 KCAL/MOL
REMARK 923 INTER-LIGAND FREE ENERGY PREDICTED BY IDOCK:   -6.10 KCAL/MOL
REMARK 924 INTRA-LIGAND FREE ENERGY PREDICTED BY IDOCK:    1.49 KCAL/MOL
REMARK 927      BINDING AFFINITY PREDICTED BY RF-SCORE:    0.00 PKD
ROOT
HETATM    1  C   UNK A   1     -11.996  13.704  67.789  1.00  0.00    -0.387 C  
HETATM    2  C   UNK A   1     -11.449  12.468  68.529  1.00  0.00    -0.346 C  
HETATM    3  C   UNK A   1      -9.952  12.436  68.246  1.00  0.00    -0.224 C  
HETATM    4  C   UNK A   1      -9.781  13.331  67.031  1.00  0.00    -0.238 C  
HETATM    5  C   UNK A   1     -10.769  14.470  67.265  1.00  0.00    -0.287 C  
HETATM    6  N   UNK A   1     -10.460  15.434  68.333  1.00  0.00    -0.235 N  
HETATM    7  C   UNK A   1      -9.502  16.447  68.292  1.00  0.00    -0.217 C  
HETATM    8  C   UNK A   1     -11.658  15.658  69.191  1.00  0.00    -0.383 C  
HETATM    9  C   UNK A   1     -11.508  15.461  70.712  1.00  0.00    -0.355 C  
HETATM   10  C   UNK A   1     -12.734  14.695  68.673  1.00  0.00     0.670 C  
HETATM   11  O   UNK A   1      -9.520  17.311  69.177  1.00  0.00    -0.180 OA 
HETATM   12  O   UNK A   1     -10.263  15.095  71.101  1.00  0.00     0.324 OA 
HETATM   13  O   UNK A   1     -12.426  15.576  71.504  1.00  0.00    -0.345 OA 
ENDROOT
BRANCH   7  14
HETATM   14  C   UNK A   1      -8.390  16.471  67.207  1.00  0.00    -0.174 C  
HETATM   15  C   UNK A   1      -7.634  15.132  67.217  1.00  0.00    -0.236 C  
BRANCH  14  16
HETATM   16  N   UNK A   1      -7.473  17.610  67.450  1.00  0.00    -0.191 NA 
HETATM   17  H   UNK A   1      -6.545  17.413  67.075  1.00  0.00     0.000 HD 
BRANCH  16  18
HETATM   18  C   UNK A   0      -7.990  18.913  66.929  1.00  0.00    -0.256 C  
BRANCH  18  19
HETATM   19  C   UNK A   0      -7.915  19.990  68.011  1.00  0.00    -0.277 C  
BRANCH  19  20
HETATM   20  C   UNK A   0      -6.522  20.609  68.202  1.00  0.00    -0.341 C  
BRANCH  20  21
HETATM   21  C   UNK A   0      -5.886  19.928  69.390  1.00  0.00    -0.308 A  
HETATM   22  C   UNK A   0      -5.812  20.584  70.626  1.00  0.00    -0.233 A  
HETATM   23  C   UNK A   0      -5.534  18.573  69.309  1.00  0.00    -0.204 A  
HETATM   24  C   UNK A   0      -5.442  19.885  71.773  1.00  0.00    -0.434 A  
HETATM   25  C   UNK A   0      -5.161  17.877  70.458  1.00  0.00    -0.265 A  
HETATM   26  C   UNK A   0      -5.132  18.527  71.689  1.00  0.00    -0.127 A  
ENDBRANCH  20  21
ENDBRANCH  19  20
ENDBRANCH  18  19
BRANCH  18  27
HETATM   27  C   UNK A   0      -7.184  19.330  65.682  1.00  0.00    -0.209 C  
HETATM   28  O   UNK A   0      -7.538  20.148  64.845  1.00  0.00    -0.120 OA 
BRANCH  27  29
HETATM   29  O   UNK A   0      -6.001  18.642  65.662  1.00  0.00    -0.177 OA 
BRANCH  29  30
HETATM   30  C   UNK A   0      -5.377  18.491  64.377  1.00  0.00    -0.091 C  
HETATM   31  C   UNK A   0      -5.197  19.838  63.699  1.00  0.00    -0.255 C  
ENDBRANCH  29  30
ENDBRANCH  27  29
ENDBRANCH  18  27
ENDBRANCH  16  18
ENDBRANCH  14  16
ENDBRANCH   7  14
TORSDOF 9
ENDMDL
MODEL      280
REMARK 921   NORMALIZED FREE ENERGY PREDICTED BY IDOCK:   -1.92 KCAL/MOL
REMARK 922        TOTAL FREE ENERGY PREDICTED BY IDOCK:   -4.55 KCAL/MOL
REMARK 923 INTER-LIGAND FREE ENERGY PREDICTED BY IDOCK:   -3.82 KCAL/MOL
REMARK 924 INTRA-LIGAND FREE ENERGY PREDICTED BY IDOCK:   -0.73 KCAL/MOL
REMARK 927      BINDING AFFINITY PREDICTED BY RF-SCORE:    0.00 PKD
ROOT
HETATM    1  C   UNK A   1      -9.387   7.686  66.208  1.00  0.00    -0.189 C  
HETATM    2  C   UNK A   1     -10.758   8.011  66.832  1.00  0.00    -0.201 C  
HETATM    3  C   UNK A   1     -10.762   7.351  68.205  1.00  0.00    -0.169 C  
HETATM    4  C   UNK A   1      -9.645   6.325  68.132  1.00  0.00    -0.115 C  
HETATM    5  C   UNK A   1      -8.556   7.018  67.317  1.00  0.00    -0.121 C  
HETATM    6  N   UNK A   1      -7.833   8.132  67.950  1.00  0.00    -0.120 N  
HETATM    7  C   UNK A   1      -6.852   8.037  68.937  1.00  0.00    -0.061 C  
HETATM    8  C   UNK A   1      -7.762   9.296  67.022  1.00  0.00    -0.095 C  
HETATM    9  C   UNK A   1      -8.264  10.662  67.532  1.00  0.00    -0.111 C  
HETATM   10  C   UNK A   1      -8.579   8.901  65.786  1.00  0.00    -0.181 C  
HETATM   11  O   UNK A   1      -6.184   9.044  69.201  1.00  0.00    -0.042 OA 
HETATM   12  O   UNK A   1      -8.726  10.640  68.805  1.00  0.00    -0.142 OA 
HETATM   13  O   UNK A   1      -8.292  11.670  66.851  1.00  0.00    -0.159 OA 
ENDROOT
BRANCH   7  14
HETATM   14  C   UNK A   1      -6.634   6.726  69.742  1.00  0.00    -0.048 C  
HETATM   15  C   UNK A   1      -5.445   6.904  70.701  1.00  0.00    -0.023 C  
BRANCH  14  16
HETATM   16  N   UNK A   1      -6.411   5.594  68.810  1.00  0.00    -0.036 NA 
HETATM   17  H   UNK A   1      -5.423   5.515  68.568  1.00  0.00     0.000 HD 
BRANCH  16  18
HETATM   18  C   UNK A   0      -6.937   4.290  69.320  1.00  0.00    -0.050 C  
BRANCH  18  19
HETATM   19  C   UNK A   0      -8.221   4.508  70.120  1.00  0.00    -0.069 C  
BRANCH  19  20
HETATM   20  C   UNK A   0      -8.068   4.327  71.637  1.00  0.00    -0.091 C  
BRANCH  20  21
HETATM   21  C   UNK A   0      -8.827   5.449  72.303  1.00  0.00    -0.131 A  
HETATM   22  C   UNK A   0      -8.193   6.274  73.241  1.00  0.00    -0.115 A  
HETATM   23  C   UNK A   0     -10.113   5.783  71.853  1.00  0.00    -0.228 A  
HETATM   24  C   UNK A   0      -8.810   7.443  73.683  1.00  0.00    -0.244 A  
HETATM   25  C   UNK A   0     -10.729   6.951  72.299  1.00  0.00    -0.253 A  
HETATM   26  C   UNK A   0     -10.072   7.788  73.198  1.00  0.00    -0.390 A  
ENDBRANCH  20  21
ENDBRANCH  19  20
ENDBRANCH  18  19
BRANCH  18  27
HETATM   27  C   UNK A   0      -7.180   3.331  68.138  1.00  0.00    -0.050 C  
HETATM   28  O   UNK A   0      -7.408   3.665  66.984  1.00  0.00    -0.066 OA 
BRANCH  27  29
HETATM   29  O   UNK A   0      -7.093   2.040  68.582  1.00  0.00    -0.042 OA 
BRANCH  29  30
HETATM   30  C   UNK A   0      -8.281   1.491  69.174  1.00  0.00    -0.044 C  
HETATM   31  C   UNK A   0      -9.452   1.564  68.210  1.00  0.00    -0.234 C  
ENDBRANCH  29  30
ENDBRANCH  27  29
ENDBRANCH  18  27
ENDBRANCH  16  18
ENDBRANCH  14  16
ENDBRANCH   7  14
TORSDOF 9
ENDMDL
MODEL      281
REMARK 921   NORMALIZED FREE ENERGY PREDICTED BY IDOCK:   -1.68 KCAL/MOL
REMARK 922        TOTAL FREE ENERGY PREDICTED BY IDOCK:   -4.19 KCAL/MOL
REMARK 923 INTER-LIGAND FREE ENERGY PREDICTED BY IDOCK:   -5.39 KCAL/MOL
REMARK 924 INTRA-LIGAND FREE ENERGY PREDICTED BY IDOCK:    1.20 KCAL/MOL
REMARK 927      BINDING AFFINITY PREDICTED BY RF-SCORE:    0.00 PKD
ROOT
HETATM    1  C   UNK A   1     -13.902  13.464  71.081  1.00  0.00     0.450 C  
HETATM    2  C   UNK A   1     -13.284  12.307  71.890  1.00  0.00    -0.481 C  
HETATM    3  C   UNK A   1     -11.941  12.007  71.237  1.00  0.00     0.490 C  
HETATM    4  C   UNK A   1     -12.042  12.643  69.862  1.00  0.00    -0.322 C  
HETATM    5  C   UNK A   1     -12.811  13.939  70.106  1.00  0.00     0.003 C  
HETATM    6  N   UNK A   1     -12.121  15.017  70.832  1.00  0.00    -0.298 N  
HETATM    7  C   UNK A   1     -11.125  15.856  70.331  1.00  0.00    -0.370 C  
HETATM    8  C   UNK A   1     -12.997  15.560  71.908  1.00  0.00    -0.441 C  
HETATM    9  C   UNK A   1     -12.437  15.608  73.344  1.00  0.00    -0.523 C  
HETATM   10  C   UNK A   1     -14.261  14.690  71.903  1.00  0.00    -0.628 C  
HETATM   11  O   UNK A   1     -10.809  16.853  70.991  1.00  0.00     0.354 OA 
HETATM   12  O   UNK A   1     -11.173  15.137  73.459  1.00  0.00     0.249 OA 
HETATM   13  O   UNK A   1     -13.075  15.993  74.307  1.00  0.00    -0.534 OA 
ENDROOT
BRANCH   7  14
HETATM   14  C   UNK A   1     -10.374  15.527  69.012  1.00  0.00    -0.235 C  
HETATM   15  C   UNK A   1     -11.392  15.216  67.903  1.00  0.00    -0.346 C  
BRANCH  14  16
HETATM   16  N   UNK A   1      -9.450  14.387  69.229  1.00  0.00    -0.405 NA 
HETATM   17  H   UNK A   1      -9.899  13.506  68.982  1.00  0.00     0.000 HD 
BRANCH  16  18
HETATM   18  C   UNK A   0      -8.143  14.535  68.516  1.00  0.00    -0.148 C  
BRANCH  18  19
HETATM   19  C   UNK A   0      -7.304  15.639  69.159  1.00  0.00    -0.187 C  
BRANCH  19  20
HETATM   20  C   UNK A   0      -6.182  16.190  68.267  1.00  0.00    -0.121 C  
BRANCH  20  21
HETATM   21  C   UNK A   0      -6.574  17.592  67.865  1.00  0.00    -0.179 A  
HETATM   22  C   UNK A   0      -5.934  18.226  66.792  1.00  0.00    -0.177 A  
HETATM   23  C   UNK A   0      -7.702  18.193  68.444  1.00  0.00    -0.303 A  
HETATM   24  C   UNK A   0      -6.443  19.415  66.272  1.00  0.00    -0.203 A  
HETATM   25  C   UNK A   0      -8.206  19.383  67.924  1.00  0.00    -0.341 A  
HETATM   26  C   UNK A   0      -7.588  19.983  66.830  1.00  0.00    -0.306 A  
ENDBRANCH  20  21
ENDBRANCH  19  20
ENDBRANCH  18  19
BRANCH  18  27
HETATM   27  C   UNK A   0      -7.389  13.190  68.531  1.00  0.00    -0.111 C  
HETATM   28  O   UNK A   0      -7.898  12.086  68.405  1.00  0.00    -0.136 OA 
BRANCH  27  29
HETATM   29  O   UNK A   0      -6.052  13.428  68.701  1.00  0.00    -0.077 OA 
BRANCH  29  30
HETATM   30  C   UNK A   0      -5.367  12.566  69.622  1.00  0.00    -0.079 C  
HETATM   31  C   UNK A   0      -6.342  11.642  70.330  1.00  0.00     0.020 C  
ENDBRANCH  29  30
ENDBRANCH  27  29
ENDBRANCH  18  27
ENDBRANCH  16  18
ENDBRANCH  14  16
ENDBRANCH   7  14
TORSDOF 9
ENDMDL
MODEL      282
REMARK 921   NORMALIZED FREE ENERGY PREDICTED BY IDOCK:   -1.67 KCAL/MOL
REMARK 922        TOTAL FREE ENERGY PREDICTED BY IDOCK:   -4.17 KCAL/MOL
REMARK 923 INTER-LIGAND FREE ENERGY PREDICTED BY IDOCK:   -5.68 KCAL/MOL
REMARK 924 INTRA-LIGAND FREE ENERGY PREDICTED BY IDOCK:    1.51 KCAL/MOL
REMARK 927      BINDING AFFINITY PREDICTED BY RF-SCORE:    0.00 PKD
ROOT
HETATM    1  C   UNK A   1      -6.734   6.867  65.843  1.00  0.00    -0.052 C  
HETATM    2  C   UNK A   1      -5.779   6.976  67.048  1.00  0.00    -0.018 C  
HETATM    3  C   UNK A   1      -6.630   7.455  68.217  1.00  0.00    -0.050 C  
HETATM    4  C   UNK A   1      -7.874   8.031  67.564  1.00  0.00    -0.118 C  
HETATM    5  C   UNK A   1      -8.152   7.090  66.395  1.00  0.00    -0.112 C  
HETATM    6  N   UNK A   1      -8.636   5.736  66.709  1.00  0.00    -0.112 N  
HETATM    7  C   UNK A   1      -9.919   5.384  67.127  1.00  0.00    -0.174 C  
HETATM    8  C   UNK A   1      -7.863   4.719  65.940  1.00  0.00    -0.095 C  
HETATM    9  C   UNK A   1      -7.200   3.569  66.724  1.00  0.00    -0.067 C  
HETATM   10  C   UNK A   1      -6.774   5.496  65.190  1.00  0.00    -0.044 C  
HETATM   11  O   UNK A   1     -10.230   4.187  67.130  1.00  0.00    -0.049 OA 
HETATM   12  O   UNK A   1      -7.405   3.622  68.061  1.00  0.00    -0.060 OA 
HETATM   13  O   UNK A   1      -6.512   2.707  66.208  1.00  0.00    -0.027 OA 
ENDROOT
BRANCH   7  14
HETATM   14  C   UNK A   1     -10.926   6.449  67.643  1.00  0.00    -0.349 C  
HETATM   15  C   UNK A   1     -10.466   7.848  67.201  1.00  0.00    -0.414 C  
BRANCH  14  16
HETATM   16  N   UNK A   1     -11.040   6.361  69.119  1.00  0.00    -0.408 NA 
HETATM   17  H   UNK A   1     -11.539   5.514  69.392  1.00  0.00     0.000 HD 
BRANCH  16  18
HETATM   18  C   UNK A   0      -9.725   6.452  69.825  1.00  0.00    -0.154 C  
BRANCH  18  19
HETATM   19  C   UNK A   0      -9.666   7.713  70.686  1.00  0.00    -0.174 C  
BRANCH  19  20
HETATM   20  C   UNK A   0     -10.280   7.561  72.085  1.00  0.00    -0.238 C  
BRANCH  20  21
HETATM   21  C   UNK A   0     -11.739   7.936  71.979  1.00  0.00    -0.360 A  
HETATM   22  C   UNK A   0     -12.112   9.257  71.696  1.00  0.00    -0.451 A  
HETATM   23  C   UNK A   0     -12.718   6.931  71.983  1.00  0.00    -0.230 A  
HETATM   24  C   UNK A   0     -13.432   9.560  71.370  1.00  0.00    -0.405 A  
HETATM   25  C   UNK A   0     -14.038   7.239  71.659  1.00  0.00    -0.522 A  
HETATM   26  C   UNK A   0     -14.390   8.547  71.336  1.00  0.00    -0.387 A  
ENDBRANCH  20  21
ENDBRANCH  19  20
ENDBRANCH  18  19
BRANCH  18  27
HETATM   27  C   UNK A   0      -9.508   5.189  70.683  1.00  0.00    -0.170 C  
HETATM   28  O   UNK A   0      -9.947   4.075  70.435  1.00  0.00    -0.182 OA 
BRANCH  27  29
HETATM   29  O   UNK A   0      -8.736   5.510  71.766  1.00  0.00    -0.133 OA 
BRANCH  29  30
HETATM   30  C   UNK A   0      -7.461   4.854  71.853  1.00  0.00    -0.085 C  
HETATM   31  C   UNK A   0      -6.343   5.777  71.402  1.00  0.00    -0.044 C  
ENDBRANCH  29  30
ENDBRANCH  27  29
ENDBRANCH  18  27
ENDBRANCH  16  18
ENDBRANCH  14  16
ENDBRANCH   7  14
TORSDOF 9
ENDMDL
MODEL      283
REMARK 921   NORMALIZED FREE ENERGY PREDICTED BY IDOCK:   -1.58 KCAL/MOL
REMARK 922        TOTAL FREE ENERGY PREDICTED BY IDOCK:   -4.04 KCAL/MOL
REMARK 923 INTER-LIGAND FREE ENERGY PREDICTED BY IDOCK:   -5.78 KCAL/MOL
REMARK 924 INTRA-LIGAND FREE ENERGY PREDICTED BY IDOCK:    1.73 KCAL/MOL
REMARK 927      BINDING AFFINITY PREDICTED BY RF-SCORE:    0.00 PKD
ROOT
HETATM    1  C   UNK A   1     -10.089  11.712  64.946  1.00  0.00    -0.303 C  
HETATM    2  C   UNK A   1     -11.265  10.829  65.406  1.00  0.00     0.335 C  
HETATM    3  C   UNK A   1     -11.417  11.076  66.902  1.00  0.00     0.028 C  
HETATM    4  C   UNK A   1     -10.092  11.692  67.317  1.00  0.00    -0.221 C  
HETATM    5  C   UNK A   1      -9.721  12.600  66.147  1.00  0.00    -0.251 C  
HETATM    6  N   UNK A   1     -10.516  13.822  65.952  1.00  0.00    -0.290 N  
HETATM    7  C   UNK A   1     -10.451  14.991  66.710  1.00  0.00    -0.283 C  
HETATM    8  C   UNK A   1     -10.920  13.954  64.523  1.00  0.00    -0.369 C  
HETATM    9  C   UNK A   1     -12.417  14.141  64.207  1.00  0.00    -0.266 C  
HETATM   10  C   UNK A   1     -10.425  12.681  63.825  1.00  0.00    -0.411 C  
HETATM   11  O   UNK A   1     -11.018  16.004  66.281  1.00  0.00    -0.218 OA 
HETATM   12  O   UNK A   1     -13.214  14.164  65.302  1.00  0.00    -0.760 OA 
HETATM   13  O   UNK A   1     -12.867  14.218  63.078  1.00  0.00    -0.166 OA 
ENDROOT
BRANCH   7  14
HETATM   14  C   UNK A   1      -9.744  15.024  68.093  1.00  0.00    -0.215 C  
HETATM   15  C   UNK A   1     -10.563  15.884  69.069  1.00  0.00    -0.247 C  
BRANCH  14  16
HETATM   16  N   UNK A   1      -8.364  15.546  67.942  1.00  0.00    -0.141 NA 
HETATM   17  H   UNK A   1      -8.272  16.458  68.389  1.00  0.00     0.000 HD 
BRANCH  16  18
HETATM   18  C   UNK A   0      -7.313  14.604  68.438  1.00  0.00    -0.115 C  
BRANCH  18  19
HETATM   19  C   UNK A   0      -7.599  13.182  67.955  1.00  0.00    -0.144 C  
BRANCH  19  20
HETATM   20  C   UNK A   0      -7.117  12.076  68.905  1.00  0.00    -0.104 C  
BRANCH  20  21
HETATM   21  C   UNK A   0      -7.884  10.822  68.563  1.00  0.00    -0.122 A  
HETATM   22  C   UNK A   0      -7.612  10.127  67.377  1.00  0.00    -0.094 A  
HETATM   23  C   UNK A   0      -8.742  10.248  69.513  1.00  0.00    -0.155 A  
HETATM   24  C   UNK A   0      -8.146   8.857  67.167  1.00  0.00    -0.103 A  
HETATM   25  C   UNK A   0      -9.276   8.979  69.299  1.00  0.00    -0.145 A  
HETATM   26  C   UNK A   0      -8.965   8.278  68.137  1.00  0.00    -0.139 A  
ENDBRANCH  20  21
ENDBRANCH  19  20
ENDBRANCH  18  19
BRANCH  18  27
HETATM   27  C   UNK A   0      -5.926  15.078  67.962  1.00  0.00    -0.146 C  
HETATM   28  O   UNK A   0      -5.148  14.431  67.275  1.00  0.00    -0.272 OA 
BRANCH  27  29
HETATM   29  O   UNK A   0      -5.702  16.346  68.425  1.00  0.00    -0.102 OA 
BRANCH  29  30
HETATM   30  C   UNK A   0      -5.837  17.405  67.464  1.00  0.00    -0.134 C  
HETATM   31  C   UNK A   0      -6.781  18.481  67.971  1.00  0.00    -0.222 C  
ENDBRANCH  29  30
ENDBRANCH  27  29
ENDBRANCH  18  27
ENDBRANCH  16  18
ENDBRANCH  14  16
ENDBRANCH   7  14
TORSDOF 9
ENDMDL
MODEL      284
REMARK 921   NORMALIZED FREE ENERGY PREDICTED BY IDOCK:   -1.49 KCAL/MOL
REMARK 922        TOTAL FREE ENERGY PREDICTED BY IDOCK:   -3.91 KCAL/MOL
REMARK 923 INTER-LIGAND FREE ENERGY PREDICTED BY IDOCK:   -5.00 KCAL/MOL
REMARK 924 INTRA-LIGAND FREE ENERGY PREDICTED BY IDOCK:    1.10 KCAL/MOL
REMARK 927      BINDING AFFINITY PREDICTED BY RF-SCORE:    0.00 PKD
ROOT
HETATM    1  C   UNK A   1      -8.954   8.582  65.438  1.00  0.00    -0.150 C  
HETATM    2  C   UNK A   1      -8.526   9.118  64.058  1.00  0.00    -0.195 C  
HETATM    3  C   UNK A   1      -9.260  10.440  63.873  1.00  0.00    -0.301 C  
HETATM    4  C   UNK A   1     -10.390  10.387  64.887  1.00  0.00    -0.238 C  
HETATM    5  C   UNK A   1      -9.767   9.707  66.103  1.00  0.00    -0.252 C  
HETATM    6  N   UNK A   1      -8.771  10.466  66.875  1.00  0.00    -0.127 N  
HETATM    7  C   UNK A   1      -9.023  11.518  67.756  1.00  0.00    -0.160 C  
HETATM    8  C   UNK A   1      -7.569   9.625  67.139  1.00  0.00    -0.091 C  
HETATM    9  C   UNK A   1      -6.191  10.183  66.731  1.00  0.00    -0.068 C  
HETATM   10  C   UNK A   1      -7.806   8.305  66.393  1.00  0.00    -0.095 C  
HETATM   11  O   UNK A   1      -8.108  11.899  68.495  1.00  0.00    -0.148 OA 
HETATM   12  O   UNK A   1      -6.238  11.411  66.163  1.00  0.00    -0.080 OA 
HETATM   13  O   UNK A   1      -5.147   9.569  66.860  1.00  0.00    -0.034 OA 
ENDROOT
BRANCH   7  14
HETATM   14  C   UNK A   1     -10.394  12.250  67.776  1.00  0.00    -0.207 C  
HETATM   15  C   UNK A   1     -11.523  11.222  67.952  1.00  0.00    -0.360 C  
BRANCH  14  16
HETATM   16  N   UNK A   1     -10.566  13.031  66.527  1.00  0.00    -0.279 NA 
HETATM   17  H   UNK A   1     -10.688  12.410  65.727  1.00  0.00     0.000 HD 
BRANCH  16  18
HETATM   18  C   UNK A   0     -11.677  14.030  66.597  1.00  0.00    -0.399 C  
BRANCH  18  19
HETATM   19  C   UNK A   0     -11.119  15.436  66.815  1.00  0.00    -0.244 C  
BRANCH  19  20
HETATM   20  C   UNK A   0      -9.651  15.612  66.402  1.00  0.00    -0.316 C  
BRANCH  20  21
HETATM   21  C   UNK A   0      -8.810  15.439  67.643  1.00  0.00    -0.179 A  
HETATM   22  C   UNK A   0      -9.382  14.946  68.823  1.00  0.00    -0.203 A  
HETATM   23  C   UNK A   0      -7.418  15.598  67.570  1.00  0.00    -0.205 A  
HETATM   24  C   UNK A   0      -8.574  14.566  69.893  1.00  0.00     0.719 A  
HETATM   25  C   UNK A   0      -6.612  15.221  68.642  1.00  0.00    -0.097 A  
HETATM   26  C   UNK A   0      -7.188  14.690  69.794  1.00  0.00    -0.058 A  
ENDBRANCH  20  21
ENDBRANCH  19  20
ENDBRANCH  18  19
BRANCH  18  27
HETATM   27  C   UNK A   0     -12.516  13.964  65.305  1.00  0.00    -0.478 C  
HETATM   28  O   UNK A   0     -13.708  14.221  65.216  1.00  0.00    -0.206 OA 
BRANCH  27  29
HETATM   29  O   UNK A   0     -11.712  13.580  64.267  1.00  0.00    -0.386 OA 
BRANCH  29  30
HETATM   30  C   UNK A   0     -12.377  13.027  63.121  1.00  0.00    -0.146 C  
HETATM   31  C   UNK A   0     -12.609  11.536  63.294  1.00  0.00    -0.018 C  
ENDBRANCH  29  30
ENDBRANCH  27  29
ENDBRANCH  18  27
ENDBRANCH  16  18
ENDBRANCH  14  16
ENDBRANCH   7  14
TORSDOF 9
ENDMDL
MODEL      285
REMARK 921   NORMALIZED FREE ENERGY PREDICTED BY IDOCK:   -1.42 KCAL/MOL
REMARK 922        TOTAL FREE ENERGY PREDICTED BY IDOCK:   -3.79 KCAL/MOL
REMARK 923 INTER-LIGAND FREE ENERGY PREDICTED BY IDOCK:   -3.83 KCAL/MOL
REMARK 924 INTRA-LIGAND FREE ENERGY PREDICTED BY IDOCK:    0.03 KCAL/MOL
REMARK 927      BINDING AFFINITY PREDICTED BY RF-SCORE:    0.00 PKD
ROOT
HETATM    1  C   UNK A   1      -9.817   8.160  67.049  1.00  0.00    -0.299 C  
HETATM    2  C   UNK A   1     -11.231   7.583  67.258  1.00  0.00     0.271 C  
HETATM    3  C   UNK A   1     -11.097   6.526  68.347  1.00  0.00    -0.340 C  
HETATM    4  C   UNK A   1      -9.611   6.212  68.385  1.00  0.00    -0.123 C  
HETATM    5  C   UNK A   1      -8.939   7.565  68.164  1.00  0.00    -0.129 C  
HETATM    6  N   UNK A   1      -9.016   8.552  69.252  1.00  0.00    -0.145 N  
HETATM    7  C   UNK A   1      -8.296   8.536  70.446  1.00  0.00    -0.124 C  
HETATM    8  C   UNK A   1      -9.426   9.881  68.716  1.00  0.00    -0.157 C  
HETATM    9  C   UNK A   1     -10.642  10.578  69.359  1.00  0.00    -0.240 C  
HETATM   10  C   UNK A   1      -9.715   9.665  67.225  1.00  0.00    -0.213 C  
HETATM   11  O   UNK A   1      -8.305   9.551  71.153  1.00  0.00    -0.285 OA 
HETATM   12  O   UNK A   1     -11.211   9.876  70.367  1.00  0.00    -0.266 OA 
HETATM   13  O   UNK A   1     -11.091  11.644  68.979  1.00  0.00    -0.215 OA 
ENDROOT
BRANCH   7  14
HETATM   14  C   UNK A   1      -7.547   7.262  70.926  1.00  0.00    -0.084 C  
HETATM   15  C   UNK A   1      -7.047   7.471  72.365  1.00  0.00    -0.072 C  
BRANCH  14  16
HETATM   16  N   UNK A   1      -6.425   6.959  70.004  1.00  0.00    -0.039 NA 
HETATM   17  H   UNK A   1      -5.564   7.401  70.326  1.00  0.00     0.000 HD 
BRANCH  16  18
HETATM   18  C   UNK A   0      -6.217   5.495  69.780  1.00  0.00    -0.026 C  
BRANCH  18  19
HETATM   19  C   UNK A   0      -7.536   4.738  69.937  1.00  0.00    -0.055 C  
BRANCH  19  20
HETATM   20  C   UNK A   0      -7.594   3.802  71.153  1.00  0.00    -0.044 C  
BRANCH  20  21
HETATM   21  C   UNK A   0      -8.620   4.366  72.106  1.00  0.00    -0.119 A  
HETATM   22  C   UNK A   0      -8.382   4.360  73.487  1.00  0.00    -0.098 A  
HETATM   23  C   UNK A   0      -9.730   5.062  71.603  1.00  0.00    -0.226 A  
HETATM   24  C   UNK A   0      -9.209   5.081  74.347  1.00  0.00    -0.116 A  
HETATM   25  C   UNK A   0     -10.557   5.778  72.466  1.00  0.00    -0.262 A  
HETATM   26  C   UNK A   0     -10.287   5.803  73.832  1.00  0.00    -0.286 A  
ENDBRANCH  20  21
ENDBRANCH  19  20
ENDBRANCH  18  19
BRANCH  18  27
HETATM   27  C   UNK A   0      -5.614   5.266  68.380  1.00  0.00    -0.015 C  
HETATM   28  O   UNK A   0      -5.396   6.134  67.546  1.00  0.00    -0.004 OA 
BRANCH  27  29
HETATM   29  O   UNK A   0      -5.353   3.933  68.217  1.00  0.00    -0.011 OA 
BRANCH  29  30
HETATM   30  C   UNK A   0      -6.483   3.095  67.928  1.00  0.00    -0.037 C  
HETATM   31  C   UNK A   0      -7.234   3.598  66.709  1.00  0.00    -0.067 C  
ENDBRANCH  29  30
ENDBRANCH  27  29
ENDBRANCH  18  27
ENDBRANCH  16  18
ENDBRANCH  14  16
ENDBRANCH   7  14
TORSDOF 9
ENDMDL
MODEL      286
REMARK 921   NORMALIZED FREE ENERGY PREDICTED BY IDOCK:   -1.29 KCAL/MOL
REMARK 922        TOTAL FREE ENERGY PREDICTED BY IDOCK:   -3.60 KCAL/MOL
REMARK 923 INTER-LIGAND FREE ENERGY PREDICTED BY IDOCK:   -7.17 KCAL/MOL
REMARK 924 INTRA-LIGAND FREE ENERGY PREDICTED BY IDOCK:    3.57 KCAL/MOL
REMARK 927      BINDING AFFINITY PREDICTED BY RF-SCORE:    0.00 PKD
ROOT
HETATM    1  C   UNK A   1      -7.974   9.432  68.230  1.00  0.00    -0.094 C  
HETATM    2  C   UNK A   1      -7.104   9.298  69.495  1.00  0.00    -0.060 C  
HETATM    3  C   UNK A   1      -6.988  10.702  70.076  1.00  0.00    -0.131 C  
HETATM    4  C   UNK A   1      -7.374  11.617  68.927  1.00  0.00    -0.107 C  
HETATM    5  C   UNK A   1      -8.508  10.875  68.225  1.00  0.00    -0.134 C  
HETATM    6  N   UNK A   1      -9.801  10.786  68.921  1.00  0.00    -0.194 N  
HETATM    7  C   UNK A   1     -10.739  11.807  69.073  1.00  0.00    -0.169 C  
HETATM    8  C   UNK A   1     -10.311   9.386  68.888  1.00  0.00    -0.213 C  
HETATM    9  C   UNK A   1     -10.691   8.721  70.226  1.00  0.00    -0.227 C  
HETATM   10  C   UNK A   1      -9.212   8.552  68.218  1.00  0.00    -0.140 C  
HETATM   11  O   UNK A   1     -11.868  11.513  69.484  1.00  0.00    -0.298 OA 
HETATM   12  O   UNK A   1     -10.509   9.515  71.308  1.00  0.00    -0.320 OA 
HETATM   13  O   UNK A   1     -11.079   7.571  70.325  1.00  0.00    -0.257 OA 
ENDROOT
BRANCH   7  14
HETATM   14  C   UNK A   1     -10.373  13.293  68.803  1.00  0.00    -0.140 C  
HETATM   15  C   UNK A   1     -11.641  14.158  68.887  1.00  0.00    -0.345 C  
BRANCH  14  16
HETATM   16  N   UNK A   1      -9.723  13.418  67.475  1.00  0.00    -0.219 NA 
HETATM   17  H   UNK A   1      -9.765  12.534  66.968  1.00  0.00     0.000 HD 
BRANCH  16  18
HETATM   18  C   UNK A   0     -10.276  14.532  66.644  1.00  0.00    -0.275 C  
BRANCH  18  19
HETATM   19  C   UNK A   0     -11.622  14.132  66.040  1.00  0.00    -0.364 C  
BRANCH  19  20
HETATM   20  C   UNK A   0     -11.964  12.640  66.173  1.00  0.00    -0.458 C  
BRANCH  20  21
HETATM   21  C   UNK A   0     -11.252  11.914  65.057  1.00  0.00    -0.350 A  
HETATM   22  C   UNK A   0     -11.104  12.518  63.801  1.00  0.00    -0.503 A  
HETATM   23  C   UNK A   0     -10.580  10.713  65.325  1.00  0.00    -0.191 A  
HETATM   24  C   UNK A   0     -10.256  11.958  62.848  1.00  0.00     0.023 A  
HETATM   25  C   UNK A   0      -9.735  10.154  64.368  1.00  0.00    -0.345 A  
HETATM   26  C   UNK A   0      -9.560  10.785  63.139  1.00  0.00    -0.385 A  
ENDBRANCH  20  21
ENDBRANCH  19  20
ENDBRANCH  18  19
BRANCH  18  27
HETATM   27  C   UNK A   0     -10.415  15.803  67.505  1.00  0.00    -0.288 C  
HETATM   28  O   UNK A   0     -11.467  16.289  67.893  1.00  0.00    -0.218 OA 
BRANCH  27  29
HETATM   29  O   UNK A   0      -9.169  16.299  67.777  1.00  0.00    -0.202 OA 
BRANCH  29  30
HETATM   30  C   UNK A   0      -9.121  17.622  68.334  1.00  0.00    -0.277 C  
HETATM   31  C   UNK A   0      -7.716  18.192  68.258  1.00  0.00    -0.291 C  
ENDBRANCH  29  30
ENDBRANCH  27  29
ENDBRANCH  18  27
ENDBRANCH  16  18
ENDBRANCH  14  16
ENDBRANCH   7  14
TORSDOF 9
ENDMDL
MODEL      287
REMARK 921   NORMALIZED FREE ENERGY PREDICTED BY IDOCK:   -0.87 KCAL/MOL
REMARK 922        TOTAL FREE ENERGY PREDICTED BY IDOCK:   -2.96 KCAL/MOL
REMARK 923 INTER-LIGAND FREE ENERGY PREDICTED BY IDOCK:   -4.53 KCAL/MOL
REMARK 924 INTRA-LIGAND FREE ENERGY PREDICTED BY IDOCK:    1.57 KCAL/MOL
REMARK 927      BINDING AFFINITY PREDICTED BY RF-SCORE:    0.00 PKD
ROOT
HETATM    1  C   UNK A   1      -6.523   9.642  64.484  1.00  0.00    -0.101 C  
HETATM    2  C   UNK A   1      -7.742  10.237  63.752  1.00  0.00    -0.100 C  
HETATM    3  C   UNK A   1      -8.820   9.161  63.784  1.00  0.00    -0.095 C  
HETATM    4  C   UNK A   1      -8.063   7.881  64.094  1.00  0.00    -0.093 C  
HETATM    5  C   UNK A   1      -6.997   8.313  65.098  1.00  0.00    -0.074 C  
HETATM    6  N   UNK A   1      -7.441   8.677  66.452  1.00  0.00    -0.086 N  
HETATM    7  C   UNK A   1      -7.849   7.804  67.460  1.00  0.00    -0.122 C  
HETATM    8  C   UNK A   1      -6.819   9.965  66.872  1.00  0.00    -0.087 C  
HETATM    9  C   UNK A   1      -7.749  11.095  67.357  1.00  0.00    -0.120 C  
HETATM   10  C   UNK A   1      -6.026  10.467  65.658  1.00  0.00    -0.118 C  
HETATM   11  O   UNK A   1      -7.975   8.247  68.608  1.00  0.00    -0.117 OA 
HETATM   12  O   UNK A   1      -9.064  10.773  67.342  1.00  0.00    -0.143 OA 
HETATM   13  O   UNK A   1      -7.357  12.201  67.685  1.00  0.00    -0.102 OA 
ENDROOT
BRANCH   7  14
HETATM   14  C   UNK A   1      -8.207   6.323  67.156  1.00  0.00    -0.109 C  
HETATM   15  C   UNK A   1      -9.715   6.106  67.359  1.00  0.00    -0.133 C  
BRANCH  14  16
HETATM   16  N   UNK A   1      -7.411   5.423  68.026  1.00  0.00    -0.072 NA 
HETATM   17  H   UNK A   1      -6.536   5.869  68.301  1.00  0.00     0.000 HD 
BRANCH  16  18
HETATM   18  C   UNK A   0      -8.160   4.941  69.228  1.00  0.00    -0.078 C  
BRANCH  18  19
HETATM   19  C   UNK A   0      -9.542   5.590  69.293  1.00  0.00    -0.184 C  
BRANCH  19  20
HETATM   20  C   UNK A   0     -10.268   5.414  70.634  1.00  0.00    -0.323 C  
BRANCH  20  21
HETATM   21  C   UNK A   0     -10.773   6.773  71.055  1.00  0.00    -0.265 A  
HETATM   22  C   UNK A   0      -9.871   7.777  71.432  1.00  0.00    -0.195 A  
HETATM   23  C   UNK A   0     -12.129   7.092  70.897  1.00  0.00    -0.403 A  
HETATM   24  C   UNK A   0     -10.309   9.090  71.596  1.00  0.00    -0.420 A  
HETATM   25  C   UNK A   0     -12.564   8.405  71.064  1.00  0.00    -0.058 A  
HETATM   26  C   UNK A   0     -11.653   9.405  71.396  1.00  0.00    -0.451 A  
ENDBRANCH  20  21
ENDBRANCH  19  20
ENDBRANCH  18  19
BRANCH  18  27
HETATM   27  C   UNK A   0      -8.275   3.404  69.184  1.00  0.00    -0.059 C  
HETATM   28  O   UNK A   0      -7.670   2.623  69.905  1.00  0.00    -0.043 OA 
BRANCH  27  29
HETATM   29  O   UNK A   0      -9.171   3.048  68.213  1.00  0.00    -0.154 OA 
BRANCH  29  30
HETATM   30  C   UNK A   0      -8.800   1.937  67.383  1.00  0.00    -0.127 C  
HETATM   31  C   UNK A   0      -8.485   2.396  65.970  1.00  0.00    -0.100 C  
ENDBRANCH  29  30
ENDBRANCH  27  29
ENDBRANCH  18  27
ENDBRANCH  16  18
ENDBRANCH  14  16
ENDBRANCH   7  14
TORSDOF 9
ENDMDL
MODEL      288
REMARK 921   NORMALIZED FREE ENERGY PREDICTED BY IDOCK:   -0.86 KCAL/MOL
REMARK 922        TOTAL FREE ENERGY PREDICTED BY IDOCK:   -2.94 KCAL/MOL
REMARK 923 INTER-LIGAND FREE ENERGY PREDICTED BY IDOCK:   -5.63 KCAL/MOL
REMARK 924 INTRA-LIGAND FREE ENERGY PREDICTED BY IDOCK:    2.69 KCAL/MOL
REMARK 927      BINDING AFFINITY PREDICTED BY RF-SCORE:    0.00 PKD
ROOT
HETATM    1  C   UNK A   1      -6.031   9.636  64.974  1.00  0.00    -0.075 C  
HETATM    2  C   UNK A   1      -7.162  10.303  64.168  1.00  0.00    -0.057 C  
HETATM    3  C   UNK A   1      -8.459   9.677  64.665  1.00  0.00    -0.183 C  
HETATM    4  C   UNK A   1      -8.017   8.401  65.360  1.00  0.00    -0.122 C  
HETATM    5  C   UNK A   1      -6.717   8.788  66.059  1.00  0.00    -0.068 C  
HETATM    6  N   UNK A   1      -6.807   9.688  67.219  1.00  0.00    -0.082 N  
HETATM    7  C   UNK A   1      -7.245   9.357  68.502  1.00  0.00    -0.072 C  
HETATM    8  C   UNK A   1      -5.809  10.789  67.099  1.00  0.00    -0.050 C  
HETATM    9  C   UNK A   1      -6.314  12.241  67.210  1.00  0.00    -0.150 C  
HETATM   10  C   UNK A   1      -5.138  10.603  65.732  1.00  0.00    -0.099 C  
HETATM   11  O   UNK A   1      -7.048  10.163  69.418  1.00  0.00    -0.065 OA 
HETATM   12  O   UNK A   1      -7.649  12.348  67.409  1.00  0.00    -0.143 OA 
HETATM   13  O   UNK A   1      -5.598  13.218  67.087  1.00  0.00    -0.327 OA 
ENDROOT
BRANCH   7  14
HETATM   14  C   UNK A   1      -8.022   8.040  68.779  1.00  0.00    -0.119 C  
HETATM   15  C   UNK A   1      -9.188   7.912  67.786  1.00  0.00    -0.144 C  
BRANCH  14  16
HETATM   16  N   UNK A   1      -8.505   8.027  70.182  1.00  0.00    -0.126 NA 
HETATM   17  H   UNK A   1      -7.738   8.210  70.829  1.00  0.00     0.000 HD 
BRANCH  16  18
HETATM   18  C   UNK A   0      -9.642   8.966  70.429  1.00  0.00    -0.194 C  
BRANCH  18  19
HETATM   19  C   UNK A   0     -10.064   9.649  69.128  1.00  0.00    -0.196 C  
BRANCH  19  20
HETATM   20  C   UNK A   0     -11.351  10.481  69.232  1.00  0.00    -0.325 C  
BRANCH  20  21
HETATM   21  C   UNK A   0     -11.240  11.608  68.233  1.00  0.00    -0.320 A  
HETATM   22  C   UNK A   0     -11.158  12.936  68.671  1.00  0.00    -0.307 A  
HETATM   23  C   UNK A   0     -11.036  11.318  66.876  1.00  0.00    -0.348 A  
HETATM   24  C   UNK A   0     -10.824  13.952  67.777  1.00  0.00    -0.261 A  
HETATM   25  C   UNK A   0     -10.706  12.336  65.984  1.00  0.00    -0.296 A  
HETATM   26  C   UNK A   0     -10.583  13.647  66.437  1.00  0.00    -0.284 A  
ENDBRANCH  20  21
ENDBRANCH  19  20
ENDBRANCH  18  19
BRANCH  18  27
HETATM   27  C   UNK A   0     -10.822   8.198  71.056  1.00  0.00    -0.235 C  
HETATM   28  O   UNK A   0     -11.609   8.646  71.878  1.00  0.00    -0.303 OA 
BRANCH  27  29
HETATM   29  O   UNK A   0     -10.858   6.931  70.540  1.00  0.00    -0.234 OA 
BRANCH  29  30
HETATM   30  C   UNK A   0     -10.482   5.871  71.434  1.00  0.00    -0.236 C  
HETATM   31  C   UNK A   0      -9.347   5.047  70.851  1.00  0.00    -0.204 C  
ENDBRANCH  29  30
ENDBRANCH  27  29
ENDBRANCH  18  27
ENDBRANCH  16  18
ENDBRANCH  14  16
ENDBRANCH   7  14
TORSDOF 9
ENDMDL
MODEL      289
REMARK 921   NORMALIZED FREE ENERGY PREDICTED BY IDOCK:   -0.28 KCAL/MOL
REMARK 922        TOTAL FREE ENERGY PREDICTED BY IDOCK:   -2.07 KCAL/MOL
REMARK 923 INTER-LIGAND FREE ENERGY PREDICTED BY IDOCK:   -3.20 KCAL/MOL
REMARK 924 INTRA-LIGAND FREE ENERGY PREDICTED BY IDOCK:    1.13 KCAL/MOL
REMARK 927      BINDING AFFINITY PREDICTED BY RF-SCORE:    0.00 PKD
ROOT
HETATM    1  C   UNK A   1      -6.778   6.657  65.940  1.00  0.00    -0.048 C  
HETATM    2  C   UNK A   1      -5.635   6.325  66.918  1.00  0.00    -0.013 C  
HETATM    3  C   UNK A   1      -6.240   6.397  68.314  1.00  0.00    -0.036 C  
HETATM    4  C   UNK A   1      -7.521   7.192  68.127  1.00  0.00    -0.099 C  
HETATM    5  C   UNK A   1      -8.064   6.713  66.784  1.00  0.00    -0.113 C  
HETATM    6  N   UNK A   1      -8.604   5.346  66.714  1.00  0.00    -0.110 N  
HETATM    7  C   UNK A   1      -9.827   4.905  67.218  1.00  0.00    -0.184 C  
HETATM    8  C   UNK A   1      -8.055   4.633  65.525  1.00  0.00    -0.107 C  
HETATM    9  C   UNK A   1      -7.373   3.269  65.749  1.00  0.00    -0.072 C  
HETATM   10  C   UNK A   1      -7.041   5.592  64.889  1.00  0.00    -0.060 C  
HETATM   11  O   UNK A   1     -10.234   3.786  66.881  1.00  0.00     0.174 OA 
HETATM   12  O   UNK A   1      -7.353   2.867  67.042  1.00  0.00    -0.060 OA 
HETATM   13  O   UNK A   1      -6.854   2.617  64.861  1.00  0.00    -0.041 OA 
ENDROOT
BRANCH   7  14
HETATM   14  C   UNK A   1     -10.642   5.755  68.231  1.00  0.00    -0.217 C  
HETATM   15  C   UNK A   1     -10.316   7.244  68.033  1.00  0.00    -0.243 C  
BRANCH  14  16
HETATM   16  N   UNK A   1     -10.339   5.316  69.615  1.00  0.00    -0.278 NA 
HETATM   17  H   UNK A   1     -11.020   4.627  69.933  1.00  0.00     0.000 HD 
BRANCH  16  18
HETATM   18  C   UNK A   0      -8.945   4.801  69.784  1.00  0.00    -0.096 C  
BRANCH  18  19
HETATM   19  C   UNK A   0      -8.236   5.539  70.920  1.00  0.00    -0.118 C  
BRANCH  19  20
HETATM   20  C   UNK A   0      -9.174   6.283  71.882  1.00  0.00    -0.147 C  
BRANCH  20  21
HETATM   21  C   UNK A   0      -9.632   5.290  72.922  1.00  0.00    -0.160 A  
HETATM   22  C   UNK A   0     -10.964   4.858  72.950  1.00  0.00    -0.332 A  
HETATM   23  C   UNK A   0      -8.688   4.660  73.747  1.00  0.00    -0.105 A  
HETATM   24  C   UNK A   0     -11.338   3.779  73.749  1.00  0.00    -0.170 A  
HETATM   25  C   UNK A   0      -9.065   3.583  74.547  1.00  0.00    -0.100 A  
HETATM   26  C   UNK A   0     -10.383   3.132  74.535  1.00  0.00    -0.224 A  
ENDBRANCH  20  21
ENDBRANCH  19  20
ENDBRANCH  18  19
BRANCH  18  27
HETATM   27  C   UNK A   0      -8.981   3.283  70.053  1.00  0.00    -0.106 C  
HETATM   28  O   UNK A   0      -9.763   2.489  69.549  1.00  0.00    -0.034 OA 
BRANCH  27  29
HETATM   29  O   UNK A   0      -7.993   2.960  70.942  1.00  0.00    -0.049 OA 
BRANCH  29  30
HETATM   30  C   UNK A   0      -6.966   2.080  70.458  1.00  0.00    -0.033 C  
HETATM   31  C   UNK A   0      -5.763   2.867  69.970  1.00  0.00    -0.018 C  
ENDBRANCH  29  30
ENDBRANCH  27  29
ENDBRANCH  18  27
ENDBRANCH  16  18
ENDBRANCH  14  16
ENDBRANCH   7  14
TORSDOF 9
ENDMDL
MODEL      290
REMARK 921   NORMALIZED FREE ENERGY PREDICTED BY IDOCK:    0.31 KCAL/MOL
REMARK 922        TOTAL FREE ENERGY PREDICTED BY IDOCK:   -1.16 KCAL/MOL
REMARK 923 INTER-LIGAND FREE ENERGY PREDICTED BY IDOCK:   -1.96 KCAL/MOL
REMARK 924 INTRA-LIGAND FREE ENERGY PREDICTED BY IDOCK:    0.80 KCAL/MOL
REMARK 927      BINDING AFFINITY PREDICTED BY RF-SCORE:    0.00 PKD
ROOT
HETATM    1  C   UNK A   1      -6.759   6.662  65.933  1.00  0.00    -0.048 C  
HETATM    2  C   UNK A   1      -5.573   6.307  66.852  1.00  0.00    -0.013 C  
HETATM    3  C   UNK A   1      -6.127   6.302  68.271  1.00  0.00    -0.027 C  
HETATM    4  C   UNK A   1      -7.428   7.080  68.169  1.00  0.00    -0.099 C  
HETATM    5  C   UNK A   1      -8.012   6.653  66.826  1.00  0.00    -0.108 C  
HETATM    6  N   UNK A   1      -8.530   5.280  66.710  1.00  0.00    -0.108 N  
HETATM    7  C   UNK A   1      -9.725   4.792  67.238  1.00  0.00    -0.182 C  
HETATM    8  C   UNK A   1      -8.014   4.635  65.470  1.00  0.00    -0.095 C  
HETATM    9  C   UNK A   1      -7.299   3.276  65.603  1.00  0.00    -0.072 C  
HETATM   10  C   UNK A   1      -7.041   5.643  64.843  1.00  0.00    -0.060 C  
HETATM   11  O   UNK A   1     -10.124   3.683  66.863  1.00  0.00     0.087 OA 
HETATM   12  O   UNK A   1      -7.223   2.814  66.874  1.00  0.00    -0.059 OA 
HETATM   13  O   UNK A   1      -6.803   2.677  64.666  1.00  0.00    -0.041 OA 
ENDROOT
BRANCH   7  14
HETATM   14  C   UNK A   1     -10.516   5.577  68.320  1.00  0.00    -0.157 C  
HETATM   15  C   UNK A   1     -10.162   7.071  68.234  1.00  0.00    -0.206 C  
BRANCH  14  16
HETATM   16  N   UNK A   1     -10.212   5.028  69.664  1.00  0.00    -0.252 NA 
HETATM   17  H   UNK A   1     -10.936   4.371  69.957  1.00  0.00     0.000 HD 
BRANCH  16  18
HETATM   18  C   UNK A   0      -8.858   4.400  69.758  1.00  0.00    -0.084 C  
BRANCH  18  19
HETATM   19  C   UNK A   0      -8.097   4.951  70.965  1.00  0.00    -0.092 C  
BRANCH  19  20
HETATM   20  C   UNK A   0      -8.983   5.609  72.033  1.00  0.00    -0.142 C  
BRANCH  20  21
HETATM   21  C   UNK A   0      -8.349   6.932  72.389  1.00  0.00    -0.114 A  
HETATM   22  C   UNK A   0      -7.752   7.116  73.643  1.00  0.00    -0.116 A  
HETATM   23  C   UNK A   0      -8.196   7.919  71.404  1.00  0.00    -0.115 A  
HETATM   24  C   UNK A   0      -6.969   8.242  73.892  1.00  0.00    -0.170 A  
HETATM   25  C   UNK A   0      -7.416   9.045  71.657  1.00  0.00     0.011 A  
HETATM   26  C   UNK A   0      -6.789   9.198  72.891  1.00  0.00     0.447 A  
ENDBRANCH  20  21
ENDBRANCH  19  20
ENDBRANCH  18  19
BRANCH  18  27
HETATM   27  C   UNK A   0      -9.001   2.868  69.850  1.00  0.00    -0.106 C  
HETATM   28  O   UNK A   0      -9.821   2.191  69.246  1.00  0.00     0.064 OA 
BRANCH  27  29
HETATM   29  O   UNK A   0      -8.055   2.380  70.710  1.00  0.00    -0.048 OA 
BRANCH  29  30
HETATM   30  C   UNK A   0      -7.079   1.492  70.142  1.00  0.00    -0.033 C  
HETATM   31  C   UNK A   0      -5.808   2.241  69.782  1.00  0.00    -0.022 C  
ENDBRANCH  29  30
ENDBRANCH  27  29
ENDBRANCH  18  27
ENDBRANCH  16  18
ENDBRANCH  14  16
ENDBRANCH   7  14
TORSDOF 9
ENDMDL
MODEL      291
REMARK 921   NORMALIZED FREE ENERGY PREDICTED BY IDOCK:    1.65 KCAL/MOL
REMARK 922        TOTAL FREE ENERGY PREDICTED BY IDOCK:    0.88 KCAL/MOL
REMARK 923 INTER-LIGAND FREE ENERGY PREDICTED BY IDOCK:   -3.29 KCAL/MOL
REMARK 924 INTRA-LIGAND FREE ENERGY PREDICTED BY IDOCK:    4.17 KCAL/MOL
REMARK 927      BINDING AFFINITY PREDICTED BY RF-SCORE:    0.00 PKD
ROOT
HETATM    1  C   UNK A   1      -9.472   6.773  73.811  1.00  0.00    -0.215 C  
HETATM    2  C   UNK A   1     -10.920   6.259  73.939  1.00  0.00     0.184 C  
HETATM    3  C   UNK A   1     -11.488   6.246  72.526  1.00  0.00    -0.300 C  
HETATM    4  C   UNK A   1     -10.560   7.155  71.739  1.00  0.00    -0.230 C  
HETATM    5  C   UNK A   1      -9.175   6.852  72.303  1.00  0.00    -0.134 C  
HETATM    6  N   UNK A   1      -8.578   5.546  71.983  1.00  0.00    -0.130 N  
HETATM    7  C   UNK A   1      -8.023   5.158  70.764  1.00  0.00    -0.096 C  
HETATM    8  C   UNK A   1      -8.036   4.908  73.216  1.00  0.00    -0.100 C  
HETATM    9  C   UNK A   1      -8.500   3.478  73.557  1.00  0.00    -0.083 C  
HETATM   10  C   UNK A   1      -8.416   5.839  74.375  1.00  0.00    -0.108 C  
HETATM   11  O   UNK A   1      -7.362   4.113  70.723  1.00  0.00    -0.040 OA 
HETATM   12  O   UNK A   1      -9.375   2.954  72.666  1.00  0.00    -0.095 OA 
HETATM   13  O   UNK A   1      -8.156   2.875  74.558  1.00  0.00    -0.066 OA 
ENDROOT
BRANCH   7  14
HETATM   14  C   UNK A   1      -8.273   5.970  69.463  1.00  0.00    -0.115 C  
HETATM   15  C   UNK A   1      -7.082   6.907  69.204  1.00  0.00    -0.084 C  
BRANCH  14  16
HETATM   16  N   UNK A   1      -9.541   6.730  69.580  1.00  0.00    -0.148 NA 
HETATM   17  H   UNK A   1      -9.808   6.839  70.558  1.00  0.00     0.000 HD 
BRANCH  16  18
HETATM   18  C   UNK A   0      -9.506   8.057  68.890  1.00  0.00    -0.151 C  
BRANCH  18  19
HETATM   19  C   UNK A   0      -8.062   8.513  68.680  1.00  0.00    -0.121 C  
BRANCH  19  20
HETATM   20  C   UNK A   0      -7.916   9.924  68.092  1.00  0.00    -0.100 C  
BRANCH  20  21
HETATM   21  C   UNK A   0      -6.969   9.827  66.920  1.00  0.00    -0.088 A  
HETATM   22  C   UNK A   0      -6.992   8.704  66.082  1.00  0.00    -0.080 A  
HETATM   23  C   UNK A   0      -6.192  10.938  66.558  1.00  0.00    -0.122 A  
HETATM   24  C   UNK A   0      -6.293   8.711  64.877  1.00  0.00    -0.065 A  
HETATM   25  C   UNK A   0      -5.491  10.940  65.354  1.00  0.00    -0.094 A  
HETATM   26  C   UNK A   0      -5.556   9.836  64.507  1.00  0.00    -0.080 A  
ENDBRANCH  20  21
ENDBRANCH  19  20
ENDBRANCH  18  19
BRANCH  18  27
HETATM   27  C   UNK A   0     -10.254   7.963  67.545  1.00  0.00    -0.242 C  
HETATM   28  O   UNK A   0     -11.197   8.663  67.204  1.00  0.00     0.264 OA 
BRANCH  27  29
HETATM   29  O   UNK A   0      -9.691   6.974  66.786  1.00  0.00    -0.172 OA 
BRANCH  29  30
HETATM   30  C   UNK A   0     -10.488   5.796  66.585  1.00  0.00    -0.268 C  
HETATM   31  C   UNK A   0      -9.666   4.684  65.959  1.00  0.00    -0.208 C  
ENDBRANCH  29  30
ENDBRANCH  27  29
ENDBRANCH  18  27
ENDBRANCH  16  18
ENDBRANCH  14  16
ENDBRANCH   7  14
TORSDOF 9
ENDMDL
MODEL      292
REMARK 921   NORMALIZED FREE ENERGY PREDICTED BY IDOCK:    1.85 KCAL/MOL
REMARK 922        TOTAL FREE ENERGY PREDICTED BY IDOCK:    1.19 KCAL/MOL
REMARK 923 INTER-LIGAND FREE ENERGY PREDICTED BY IDOCK:   -2.73 KCAL/MOL
REMARK 924 INTRA-LIGAND FREE ENERGY PREDICTED BY IDOCK:    3.93 KCAL/MOL
REMARK 927      BINDING AFFINITY PREDICTED BY RF-SCORE:    0.00 PKD
ROOT
HETATM    1  C   UNK A   1      -5.973  10.422  63.339  1.00  0.00    -0.129 C  
HETATM    2  C   UNK A   1      -7.445  10.866  63.235  1.00  0.00     0.343 C  
HETATM    3  C   UNK A   1      -8.280   9.645  63.596  1.00  0.00    -0.162 C  
HETATM    4  C   UNK A   1      -7.324   8.476  63.438  1.00  0.00    -0.103 C  
HETATM    5  C   UNK A   1      -5.992   9.012  63.955  1.00  0.00    -0.071 C  
HETATM    6  N   UNK A   1      -5.865   9.246  65.402  1.00  0.00    -0.057 N  
HETATM    7  C   UNK A   1      -5.711   8.278  66.394  1.00  0.00    -0.040 C  
HETATM    8  C   UNK A   1      -5.274  10.590  65.659  1.00  0.00    -0.098 C  
HETATM    9  C   UNK A   1      -6.036  11.551  66.593  1.00  0.00    -0.135 C  
HETATM   10  C   UNK A   1      -5.125  11.255  64.284  1.00  0.00     0.632 C  
HETATM   11  O   UNK A   1      -5.393   8.646  67.532  1.00  0.00    -0.034 OA 
HETATM   12  O   UNK A   1      -7.190  11.042  67.086  1.00  0.00    -0.099 OA 
HETATM   13  O   UNK A   1      -5.670  12.685  66.842  1.00  0.00    -0.308 OA 
ENDROOT
BRANCH   7  14
HETATM   14  C   UNK A   1      -5.994   6.776  66.115  1.00  0.00    -0.034 C  
HETATM   15  C   UNK A   1      -7.055   6.650  65.009  1.00  0.00    -0.064 C  
BRANCH  14  16
HETATM   16  N   UNK A   1      -6.435   6.106  67.363  1.00  0.00    -0.045 NA 
HETATM   17  H   UNK A   1      -5.808   6.333  68.134  1.00  0.00     0.000 HD 
BRANCH  16  18
HETATM   18  C   UNK A   0      -7.854   6.402  67.729  1.00  0.00    -0.104 C  
BRANCH  18  19
HETATM   19  C   UNK A   0      -8.776   6.164  66.532  1.00  0.00    -0.133 C  
BRANCH  19  20
HETATM   20  C   UNK A   0     -10.257   6.478  66.794  1.00  0.00    -0.257 C  
BRANCH  20  21
HETATM   21  C   UNK A   0     -10.367   7.965  67.028  1.00  0.00    -0.411 A  
HETATM   22  C   UNK A   0     -10.913   8.456  68.221  1.00  0.00     0.154 A  
HETATM   23  C   UNK A   0      -9.758   8.858  66.134  1.00  0.00    -0.338 A  
HETATM   24  C   UNK A   0     -10.806   9.808  68.541  1.00  0.00    -0.227 A  
HETATM   25  C   UNK A   0      -9.656  10.210  66.455  1.00  0.00    -0.242 A  
HETATM   26  C   UNK A   0     -10.163  10.681  67.663  1.00  0.00    -0.229 A  
ENDBRANCH  20  21
ENDBRANCH  19  20
ENDBRANCH  18  19
BRANCH  18  27
HETATM   27  C   UNK A   0      -8.274   5.530  68.929  1.00  0.00    -0.099 C  
HETATM   28  O   UNK A   0      -8.149   5.831  70.107  1.00  0.00    -0.104 OA 
BRANCH  27  29
HETATM   29  O   UNK A   0      -8.818   4.363  68.467  1.00  0.00    -0.097 OA 
BRANCH  29  30
HETATM   30  C   UNK A   0      -9.431   3.515  69.451  1.00  0.00    -0.164 C  
HETATM   31  C   UNK A   0      -9.633   2.111  68.908  1.00  0.00    -0.082 C  
ENDBRANCH  29  30
ENDBRANCH  27  29
ENDBRANCH  18  27
ENDBRANCH  16  18
ENDBRANCH  14  16
ENDBRANCH   7  14
TORSDOF 9
ENDMDL
MODEL      293
REMARK 921   NORMALIZED FREE ENERGY PREDICTED BY IDOCK:    2.04 KCAL/MOL
REMARK 922        TOTAL FREE ENERGY PREDICTED BY IDOCK:    1.48 KCAL/MOL
REMARK 923 INTER-LIGAND FREE ENERGY PREDICTED BY IDOCK:   -2.76 KCAL/MOL
REMARK 924 INTRA-LIGAND FREE ENERGY PREDICTED BY IDOCK:    4.24 KCAL/MOL
REMARK 927      BINDING AFFINITY PREDICTED BY RF-SCORE:    0.00 PKD
ROOT
HETATM    1  C   UNK A   1      -9.499   5.936  73.401  1.00  0.00    -0.138 C  
HETATM    2  C   UNK A   1     -10.930   5.368  73.338  1.00  0.00    -0.349 C  
HETATM    3  C   UNK A   1     -11.335   5.409  71.870  1.00  0.00    -0.058 C  
HETATM    4  C   UNK A   1     -10.360   6.387  71.239  1.00  0.00    -0.244 C  
HETATM    5  C   UNK A   1      -9.037   6.101  71.943  1.00  0.00    -0.140 C  
HETATM    6  N   UNK A   1      -8.358   4.833  71.632  1.00  0.00    -0.108 N  
HETATM    7  C   UNK A   1      -7.654   4.527  70.467  1.00  0.00    -0.053 C  
HETATM    8  C   UNK A   1      -7.933   4.152  72.888  1.00  0.00    -0.085 C  
HETATM    9  C   UNK A   1      -8.378   2.692  73.106  1.00  0.00    -0.070 C  
HETATM   10  C   UNK A   1      -8.478   5.009  74.037  1.00  0.00    -0.106 C  
HETATM   11  O   UNK A   1      -6.954   3.508  70.453  1.00  0.00    -0.033 OA 
HETATM   12  O   UNK A   1      -9.126   2.186  72.097  1.00  0.00    -0.075 OA 
HETATM   13  O   UNK A   1      -8.126   2.050  74.109  1.00  0.00    -0.051 OA 
ENDROOT
BRANCH   7  14
HETATM   14  C   UNK A   1      -7.787   5.396  69.185  1.00  0.00    -0.090 C  
HETATM   15  C   UNK A   1      -7.308   4.591  67.966  1.00  0.00    -0.065 C  
BRANCH  14  16
HETATM   16  N   UNK A   1      -7.009   6.649  69.344  1.00  0.00    -0.065 NA 
HETATM   17  H   UNK A   1      -6.270   6.530  70.036  1.00  0.00     0.000 HD 
BRANCH  16  18
HETATM   18  C   UNK A   0      -6.452   7.170  68.058  1.00  0.00    -0.048 C  
BRANCH  18  19
HETATM   19  C   UNK A   0      -6.578   6.119  66.955  1.00  0.00    -0.059 C  
BRANCH  19  20
HETATM   20  C   UNK A   0      -7.698   6.391  65.939  1.00  0.00    -0.094 C  
BRANCH  20  21
HETATM   21  C   UNK A   0      -8.037   5.075  65.281  1.00  0.00    -0.117 A  
HETATM   22  C   UNK A   0      -9.321   4.852  64.764  1.00  0.00    -0.010 A  
HETATM   23  C   UNK A   0      -7.021   4.143  65.022  1.00  0.00    -0.058 A  
HETATM   24  C   UNK A   0      -9.572   3.744  63.957  1.00  0.00    -0.160 A  
HETATM   25  C   UNK A   0      -7.276   3.035  64.218  1.00  0.00    -0.058 A  
HETATM   26  C   UNK A   0      -8.544   2.845  63.672  1.00  0.00    -0.086 A  
ENDBRANCH  20  21
ENDBRANCH  19  20
ENDBRANCH  18  19
BRANCH  18  27
HETATM   27  C   UNK A   0      -7.181   8.471  67.665  1.00  0.00    -0.084 C  
HETATM   28  O   UNK A   0      -8.392   8.641  67.680  1.00  0.00    -0.119 OA 
BRANCH  27  29
HETATM   29  O   UNK A   0      -6.256   9.412  67.304  1.00  0.00    -0.056 OA 
BRANCH  29  30
HETATM   30  C   UNK A   0      -5.540  10.043  68.377  1.00  0.00    -0.042 C  
HETATM   31  C   UNK A   0      -5.347  11.524  68.105  1.00  0.00    -0.043 C  
ENDBRANCH  29  30
ENDBRANCH  27  29
ENDBRANCH  18  27
ENDBRANCH  16  18
ENDBRANCH  14  16
ENDBRANCH   7  14
TORSDOF 9
ENDMDL
MODEL      294
REMARK 921   NORMALIZED FREE ENERGY PREDICTED BY IDOCK:    2.12 KCAL/MOL
REMARK 922        TOTAL FREE ENERGY PREDICTED BY IDOCK:    1.61 KCAL/MOL
REMARK 923 INTER-LIGAND FREE ENERGY PREDICTED BY IDOCK:   -3.53 KCAL/MOL
REMARK 924 INTRA-LIGAND FREE ENERGY PREDICTED BY IDOCK:    5.14 KCAL/MOL
REMARK 927      BINDING AFFINITY PREDICTED BY RF-SCORE:    0.00 PKD
ROOT
HETATM    1  C   UNK A   1      -9.472   6.773  73.811  1.00  0.00    -0.215 C  
HETATM    2  C   UNK A   1     -10.919   6.258  73.934  1.00  0.00     0.184 C  
HETATM    3  C   UNK A   1     -11.483   6.244  72.519  1.00  0.00    -0.300 C  
HETATM    4  C   UNK A   1     -10.552   7.153  71.735  1.00  0.00    -0.230 C  
HETATM    5  C   UNK A   1      -9.169   6.850  72.304  1.00  0.00    -0.134 C  
HETATM    6  N   UNK A   1      -8.570   5.544  71.987  1.00  0.00    -0.130 N  
HETATM    7  C   UNK A   1      -8.011   5.155  70.770  1.00  0.00    -0.096 C  
HETATM    8  C   UNK A   1      -8.032   4.908  73.223  1.00  0.00    -0.100 C  
HETATM    9  C   UNK A   1      -8.498   3.478  73.564  1.00  0.00    -0.083 C  
HETATM   10  C   UNK A   1      -8.417   5.839  74.380  1.00  0.00    -0.108 C  
HETATM   11  O   UNK A   1      -7.349   4.111  70.733  1.00  0.00    -0.040 OA 
HETATM   12  O   UNK A   1      -9.369   2.953  72.670  1.00  0.00    -0.095 OA 
HETATM   13  O   UNK A   1      -8.157   2.876  74.566  1.00  0.00    -0.066 OA 
ENDROOT
BRANCH   7  14
HETATM   14  C   UNK A   1      -8.256   5.966  69.468  1.00  0.00    -0.113 C  
HETATM   15  C   UNK A   1      -8.754   7.376  69.825  1.00  0.00    -0.141 C  
BRANCH  14  16
HETATM   16  N   UNK A   1      -9.231   5.253  68.607  1.00  0.00    -0.113 NA 
HETATM   17  H   UNK A   1      -9.778   4.589  69.155  1.00  0.00     0.000 HD 
BRANCH  16  18
HETATM   18  C   UNK A   0     -10.127   6.169  67.836  1.00  0.00    -0.153 C  
BRANCH  18  19
HETATM   19  C   UNK A   0     -10.211   7.535  68.519  1.00  0.00    -0.216 C  
BRANCH  19  20
HETATM   20  C   UNK A   0     -11.206   8.511  67.875  1.00  0.00     0.575 C  
BRANCH  20  21
HETATM   21  C   UNK A   0     -10.478   9.815  67.654  1.00  0.00    -0.305 A  
HETATM   22  C   UNK A   0     -11.070  11.029  68.028  1.00  0.00    -0.343 A  
HETATM   23  C   UNK A   0      -9.137   9.804  67.243  1.00  0.00    -0.150 A  
HETATM   24  C   UNK A   0     -10.320  12.203  68.043  1.00  0.00    -0.213 A  
HETATM   25  C   UNK A   0      -8.390  10.980  67.256  1.00  0.00    -0.125 A  
HETATM   26  C   UNK A   0      -8.976  12.174  67.672  1.00  0.00    -0.178 A  
ENDBRANCH  20  21
ENDBRANCH  19  20
ENDBRANCH  18  19
BRANCH  18  27
HETATM   27  C   UNK A   0      -9.609   6.307  66.391  1.00  0.00    -0.119 C  
HETATM   28  O   UNK A   0      -9.053   7.291  65.923  1.00  0.00    -0.128 OA 
BRANCH  27  29
HETATM   29  O   UNK A   0      -9.862   5.147  65.711  1.00  0.00    -0.151 OA 
BRANCH  29  30
HETATM   30  C   UNK A   0      -9.072   4.007  66.085  1.00  0.00    -0.141 C  
HETATM   31  C   UNK A   0      -8.691   3.187  64.865  1.00  0.00    -0.108 C  
ENDBRANCH  29  30
ENDBRANCH  27  29
ENDBRANCH  18  27
ENDBRANCH  16  18
ENDBRANCH  14  16
ENDBRANCH   7  14
TORSDOF 9
ENDMDL
MODEL      295
REMARK 921   NORMALIZED FREE ENERGY PREDICTED BY IDOCK:    2.51 KCAL/MOL
REMARK 922        TOTAL FREE ENERGY PREDICTED BY IDOCK:    2.20 KCAL/MOL
REMARK 923 INTER-LIGAND FREE ENERGY PREDICTED BY IDOCK:   -1.86 KCAL/MOL
REMARK 924 INTRA-LIGAND FREE ENERGY PREDICTED BY IDOCK:    4.05 KCAL/MOL
REMARK 927      BINDING AFFINITY PREDICTED BY RF-SCORE:    0.00 PKD
ROOT
HETATM    1  C   UNK A   1      -6.228  18.996  68.092  1.00  0.00    -0.231 C  
HETATM    2  C   UNK A   1      -5.611  19.184  69.491  1.00  0.00    -0.229 C  
HETATM    3  C   UNK A   1      -6.783  19.349  70.450  1.00  0.00     0.202 C  
HETATM    4  C   UNK A   1      -7.954  19.709  69.552  1.00  0.00     0.156 C  
HETATM    5  C   UNK A   1      -7.745  18.853  68.306  1.00  0.00    -0.301 C  
HETATM    6  N   UNK A   1      -7.959  17.403  68.429  1.00  0.00    -0.250 N  
HETATM    7  C   UNK A   1      -9.186  16.744  68.515  1.00  0.00    -0.243 C  
HETATM    8  C   UNK A   1      -6.823  16.658  67.814  1.00  0.00    -0.141 C  
HETATM    9  C   UNK A   1      -6.099  15.603  68.674  1.00  0.00    -0.100 C  
HETATM   10  C   UNK A   1      -5.807  17.722  67.380  1.00  0.00    -0.163 C  
HETATM   11  O   UNK A   1      -9.204  15.514  68.386  1.00  0.00    -0.184 OA 
HETATM   12  O   UNK A   1      -6.597  15.474  69.926  1.00  0.00    -0.170 OA 
HETATM   13  O   UNK A   1      -5.135  14.965  68.292  1.00  0.00    -0.101 OA 
ENDROOT
BRANCH   7  14
HETATM   14  C   UNK A   1     -10.499  17.512  68.832  1.00  0.00    -0.286 C  
HETATM   15  C   UNK A   1     -10.251  18.503  69.981  1.00  0.00     1.083 C  
BRANCH  14  16
HETATM   16  N   UNK A   1     -11.574  16.549  69.175  1.00  0.00    -0.207 NA 
HETATM   17  H   UNK A   1     -12.491  16.986  69.087  1.00  0.00     0.000 HD 
BRANCH  16  18
HETATM   18  C   UNK A   0     -11.513  15.281  68.383  1.00  0.00    -0.345 C  
BRANCH  18  19
HETATM   19  C   UNK A   0     -12.513  14.261  68.928  1.00  0.00     0.075 C  
BRANCH  19  20
HETATM   20  C   UNK A   0     -12.069  13.559  70.219  1.00  0.00    -0.425 C  
BRANCH  20  21
HETATM   21  C   UNK A   0     -12.264  14.536  71.353  1.00  0.00    -0.425 A  
HETATM   22  C   UNK A   0     -11.226  15.398  71.732  1.00  0.00    -0.380 A  
HETATM   23  C   UNK A   0     -13.540  14.712  71.909  1.00  0.00    -0.483 A  
HETATM   24  C   UNK A   0     -11.471  16.451  72.612  1.00  0.00     0.064 A  
HETATM   25  C   UNK A   0     -13.781  15.764  72.791  1.00  0.00    -0.639 A  
HETATM   26  C   UNK A   0     -12.753  16.641  73.128  1.00  0.00     0.075 A  
ENDBRANCH  20  21
ENDBRANCH  19  20
ENDBRANCH  18  19
BRANCH  18  27
HETATM   27  C   UNK A   0     -11.791  15.584  66.897  1.00  0.00     0.351 C  
HETATM   28  O   UNK A   0     -12.873  15.901  66.424  1.00  0.00     2.355 OA 
BRANCH  27  29
HETATM   29  O   UNK A   0     -10.629  15.450  66.187  1.00  0.00    -0.298 OA 
BRANCH  29  30
HETATM   30  C   UNK A   0     -10.457  14.212  65.480  1.00  0.00    -0.339 C  
HETATM   31  C   UNK A   0     -10.086  13.089  66.433  1.00  0.00    -0.279 C  
ENDBRANCH  29  30
ENDBRANCH  27  29
ENDBRANCH  18  27
ENDBRANCH  16  18
ENDBRANCH  14  16
ENDBRANCH   7  14
TORSDOF 9
ENDMDL
MODEL      296
REMARK 921   NORMALIZED FREE ENERGY PREDICTED BY IDOCK:    3.46 KCAL/MOL
REMARK 922        TOTAL FREE ENERGY PREDICTED BY IDOCK:    3.65 KCAL/MOL
REMARK 923 INTER-LIGAND FREE ENERGY PREDICTED BY IDOCK:   -1.88 KCAL/MOL
REMARK 924 INTRA-LIGAND FREE ENERGY PREDICTED BY IDOCK:    5.52 KCAL/MOL
REMARK 927      BINDING AFFINITY PREDICTED BY RF-SCORE:    0.00 PKD
ROOT
HETATM    1  C   UNK A   1     -10.319  11.985  67.310  1.00  0.00    -0.232 C  
HETATM    2  C   UNK A   1     -10.481  12.576  65.896  1.00  0.00    -0.289 C  
HETATM    3  C   UNK A   1     -10.363  14.086  66.055  1.00  0.00    -0.312 C  
HETATM    4  C   UNK A   1     -10.603  14.328  67.535  1.00  0.00    -0.261 C  
HETATM    5  C   UNK A   1      -9.909  13.155  68.221  1.00  0.00    -0.227 C  
HETATM    6  N   UNK A   1      -8.438  13.128  68.206  1.00  0.00    -0.171 N  
HETATM    7  C   UNK A   1      -7.580  13.916  68.974  1.00  0.00    -0.002 C  
HETATM    8  C   UNK A   1      -7.949  11.780  67.799  1.00  0.00    -0.141 C  
HETATM    9  C   UNK A   1      -6.956  11.694  66.623  1.00  0.00    -0.026 C  
HETATM   10  C   UNK A   1      -9.200  10.966  67.446  1.00  0.00    -0.155 C  
HETATM   11  O   UNK A   1      -6.381  13.617  69.012  1.00  0.00    -0.090 OA 
HETATM   12  O   UNK A   1      -6.635  12.894  66.082  1.00  0.00     1.655 OA 
HETATM   13  O   UNK A   1      -6.522  10.647  66.178  1.00  0.00    -0.112 OA 
ENDROOT
BRANCH   7  14
HETATM   14  C   UNK A   1      -8.088  15.181  69.719  1.00  0.00     0.009 C  
HETATM   15  C   UNK A   1      -9.406  14.858  70.442  1.00  0.00     0.995 C  
BRANCH  14  16
HETATM   16  N   UNK A   1      -8.262  16.296  68.756  1.00  0.00    -0.215 NA 
HETATM   17  H   UNK A   1      -7.765  16.102  67.886  1.00  0.00     0.000 HD 
BRANCH  16  18
HETATM   18  C   UNK A   0      -9.694  16.632  68.485  1.00  0.00    -0.244 C  
BRANCH  18  19
HETATM   19  C   UNK A   0     -10.352  17.216  69.735  1.00  0.00     0.099 C  
BRANCH  19  20
HETATM   20  C   UNK A   0     -11.878  17.057  69.787  1.00  0.00     1.732 C  
BRANCH  20  21
HETATM   21  C   UNK A   0     -12.179  15.900  70.708  1.00  0.00    -0.373 A  
HETATM   22  C   UNK A   0     -12.614  16.134  72.020  1.00  0.00    -0.353 A  
HETATM   23  C   UNK A   0     -12.200  14.592  70.200  1.00  0.00    -0.391 A  
HETATM   24  C   UNK A   0     -13.111  15.087  72.793  1.00  0.00    -0.549 A  
HETATM   25  C   UNK A   0     -12.695  13.547  70.978  1.00  0.00    -0.399 A  
HETATM   26  C   UNK A   0     -13.166  13.797  72.265  1.00  0.00    -0.563 A  
ENDBRANCH  20  21
ENDBRANCH  19  20
ENDBRANCH  18  19
BRANCH  18  27
HETATM   27  C   UNK A   0      -9.781  17.620  67.304  1.00  0.00    -0.284 C  
HETATM   28  O   UNK A   0     -10.603  17.580  66.400  1.00  0.00    -0.297 OA 
BRANCH  27  29
HETATM   29  O   UNK A   0      -8.793  18.558  67.430  1.00  0.00    -0.265 OA 
BRANCH  29  30
HETATM   30  C   UNK A   0      -7.491  18.066  67.784  1.00  0.00    -0.211 C  
HETATM   31  C   UNK A   0      -6.452  18.495  66.763  1.00  0.00    -0.206 C  
ENDBRANCH  29  30
ENDBRANCH  27  29
ENDBRANCH  18  27
ENDBRANCH  16  18
ENDBRANCH  14  16
ENDBRANCH   7  14
TORSDOF 9
ENDMDL
MODEL      297
REMARK 921   NORMALIZED FREE ENERGY PREDICTED BY IDOCK:    4.95 KCAL/MOL
REMARK 922        TOTAL FREE ENERGY PREDICTED BY IDOCK:    5.93 KCAL/MOL
REMARK 923 INTER-LIGAND FREE ENERGY PREDICTED BY IDOCK:   -1.68 KCAL/MOL
REMARK 924 INTRA-LIGAND FREE ENERGY PREDICTED BY IDOCK:    7.60 KCAL/MOL
REMARK 927      BINDING AFFINITY PREDICTED BY RF-SCORE:    0.00 PKD
ROOT
HETATM    1  C   UNK A   1      -7.346   9.503  64.492  1.00  0.00    -0.114 C  
HETATM    2  C   UNK A   1      -7.950   8.419  65.405  1.00  0.00    -0.122 C  
HETATM    3  C   UNK A   1      -7.751   8.912  66.833  1.00  0.00    -0.098 C  
HETATM    4  C   UNK A   1      -6.672   9.974  66.716  1.00  0.00    -0.076 C  
HETATM    5  C   UNK A   1      -6.994  10.689  65.406  1.00  0.00    -0.013 C  
HETATM    6  N   UNK A   1      -8.193  11.542  65.370  1.00  0.00    -0.214 N  
HETATM    7  C   UNK A   1      -8.336  12.806  65.943  1.00  0.00     1.245 C  
HETATM    8  C   UNK A   1      -9.003  11.245  64.154  1.00  0.00     0.117 C  
HETATM    9  C   UNK A   1     -10.492  10.896  64.343  1.00  0.00    -0.333 C  
HETATM   10  C   UNK A   1      -8.306  10.068  63.460  1.00  0.00    -0.171 C  
HETATM   11  O   UNK A   1      -9.322  13.485  65.632  1.00  0.00     0.041 OA 
HETATM   12  O   UNK A   1     -10.901  10.901  65.634  1.00  0.00    -0.165 OA 
HETATM   13  O   UNK A   1     -11.239  10.598  63.429  1.00  0.00     0.587 OA 
ENDROOT
BRANCH   7  14
HETATM   14  C   UNK A   1      -7.328  13.338  66.998  1.00  0.00     0.276 C  
HETATM   15  C   UNK A   1      -7.595  12.661  68.353  1.00  0.00    -0.132 C  
BRANCH  14  16
HETATM   16  N   UNK A   1      -7.439  14.813  67.102  1.00  0.00    -0.281 NA 
HETATM   17  H   UNK A   1      -8.125  15.171  66.438  1.00  0.00     0.000 HD 
BRANCH  16  18
HETATM   18  C   UNK A   0      -7.742  15.292  68.487  1.00  0.00    -0.128 C  
BRANCH  18  19
HETATM   19  C   UNK A   0      -9.200  15.006  68.844  1.00  0.00    -0.206 C  
BRANCH  19  20
HETATM   20  C   UNK A   0      -9.649  13.559  68.589  1.00  0.00    -0.077 C  
BRANCH  20  21
HETATM   21  C   UNK A   0     -10.962  13.362  69.308  1.00  0.00    -0.159 A  
HETATM   22  C   UNK A   0     -11.455  12.071  69.540  1.00  0.00    -0.351 A  
HETATM   23  C   UNK A   0     -11.600  14.458  69.906  1.00  0.00    -0.341 A  
HETATM   24  C   UNK A   0     -12.536  11.873  70.397  1.00  0.00    -0.252 A  
HETATM   25  C   UNK A   0     -12.683  14.258  70.760  1.00  0.00    -0.419 A  
HETATM   26  C   UNK A   0     -13.138  12.967  71.018  1.00  0.00    -0.100 A  
ENDBRANCH  20  21
ENDBRANCH  19  20
ENDBRANCH  18  19
BRANCH  18  27
HETATM   27  C   UNK A   0      -6.786  14.616  69.490  1.00  0.00    -0.165 C  
HETATM   28  O   UNK A   0      -7.120  13.881  70.408  1.00  0.00     0.404 OA 
BRANCH  27  29
HETATM   29  O   UNK A   0      -5.498  14.962  69.186  1.00  0.00    -0.095 OA 
BRANCH  29  30
HETATM   30  C   UNK A   0      -5.152  16.344  69.370  1.00  0.00    -0.124 C  
HETATM   31  C   UNK A   0      -6.298  17.250  68.957  1.00  0.00    -0.210 C  
ENDBRANCH  29  30
ENDBRANCH  27  29
ENDBRANCH  18  27
ENDBRANCH  16  18
ENDBRANCH  14  16
ENDBRANCH   7  14
TORSDOF 9
ENDMDL
MODEL      298
REMARK 921   NORMALIZED FREE ENERGY PREDICTED BY IDOCK:    7.86 KCAL/MOL
REMARK 922        TOTAL FREE ENERGY PREDICTED BY IDOCK:   10.36 KCAL/MOL
REMARK 923 INTER-LIGAND FREE ENERGY PREDICTED BY IDOCK:    2.81 KCAL/MOL
REMARK 924 INTRA-LIGAND FREE ENERGY PREDICTED BY IDOCK:    7.55 KCAL/MOL
REMARK 927      BINDING AFFINITY PREDICTED BY RF-SCORE:    0.00 PKD
ROOT
HETATM    1  C   UNK A   1     -10.144  11.726  64.925  1.00  0.00    -0.298 C  
HETATM    2  C   UNK A   1     -11.550  11.095  64.874  1.00  0.00     0.336 C  
HETATM    3  C   UNK A   1     -11.877  10.677  66.302  1.00  0.00     1.898 C  
HETATM    4  C   UNK A   1     -10.530  10.648  67.002  1.00  0.00    -0.295 C  
HETATM    5  C   UNK A   1      -9.779  11.841  66.416  1.00  0.00    -0.214 C  
HETATM    6  N   UNK A   1     -10.232  13.188  66.797  1.00  0.00    -0.248 N  
HETATM    7  C   UNK A   1     -10.022  13.824  68.020  1.00  0.00    -0.246 C  
HETATM    8  C   UNK A   1     -10.362  14.051  65.589  1.00  0.00    -0.329 C  
HETATM    9  C   UNK A   1     -11.707  14.766  65.350  1.00  0.00    -0.289 C  
HETATM   10  C   UNK A   1     -10.067  13.144  64.388  1.00  0.00    -0.224 C  
HETATM   11  O   UNK A   1     -10.266  15.034  68.104  1.00  0.00    -0.218 OA 
HETATM   12  O   UNK A   1     -12.641  14.516  66.298  1.00  0.00    -0.274 OA 
HETATM   13  O   UNK A   1     -11.941  15.462  64.379  1.00  0.00    -0.396 OA 
ENDROOT
BRANCH   7  14
HETATM   14  C   UNK A   1      -9.556  13.037  69.276  1.00  0.00     0.788 C  
HETATM   15  C   UNK A   1      -9.853  13.861  70.539  1.00  0.00     2.998 C  
BRANCH  14  16
HETATM   16  N   UNK A   1      -8.111  12.721  69.165  1.00  0.00    -0.205 NA 
HETATM   17  H   UNK A   1      -7.597  13.100  69.960  1.00  0.00     0.000 HD 
BRANCH  16  18
HETATM   18  C   UNK A   0      -7.831  11.261  69.001  1.00  0.00    -0.079 C  
BRANCH  18  19
HETATM   19  C   UNK A   0      -7.686  10.908  67.520  1.00  0.00    -0.109 C  
BRANCH  19  20
HETATM   20  C   UNK A   0      -7.124   9.504  67.250  1.00  0.00    -0.086 C  
BRANCH  20  21
HETATM   21  C   UNK A   0      -7.295   9.227  65.776  1.00  0.00    -0.094 A  
HETATM   22  C   UNK A   0      -6.586   9.977  64.828  1.00  0.00    -0.127 A  
HETATM   23  C   UNK A   0      -8.021   8.102  65.358  1.00  0.00    -0.126 A  
HETATM   24  C   UNK A   0      -6.560   9.579  63.493  1.00  0.00    -0.103 A  
HETATM   25  C   UNK A   0      -7.995   7.709  64.022  1.00  0.00    -0.099 A  
HETATM   26  C   UNK A   0      -7.252   8.435  63.095  1.00  0.00    -0.093 A  
ENDBRANCH  20  21
ENDBRANCH  19  20
ENDBRANCH  18  19
BRANCH  18  27
HETATM   27  C   UNK A   0      -6.557  10.885  69.783  1.00  0.00    -0.140 C  
HETATM   28  O   UNK A   0      -5.683  10.122  69.398  1.00  0.00    -0.038 OA 
BRANCH  27  29
HETATM   29  O   UNK A   0      -6.553  11.550  70.979  1.00  0.00     0.384 OA 
BRANCH  29  30
HETATM   30  C   UNK A   0      -6.193  12.939  70.932  1.00  0.00     0.598 C  
HETATM   31  C   UNK A   0      -6.821  13.623  69.731  1.00  0.00     0.138 C  
ENDBRANCH  29  30
ENDBRANCH  27  29
ENDBRANCH  18  27
ENDBRANCH  16  18
ENDBRANCH  14  16
ENDBRANCH   7  14
TORSDOF 9
ENDMDL
MODEL      299
REMARK 921   NORMALIZED FREE ENERGY PREDICTED BY IDOCK:   11.22 KCAL/MOL
REMARK 922        TOTAL FREE ENERGY PREDICTED BY IDOCK:   15.48 KCAL/MOL
REMARK 923 INTER-LIGAND FREE ENERGY PREDICTED BY IDOCK:    7.78 KCAL/MOL
REMARK 924 INTRA-LIGAND FREE ENERGY PREDICTED BY IDOCK:    7.70 KCAL/MOL
REMARK 927      BINDING AFFINITY PREDICTED BY RF-SCORE:    0.00 PKD
ROOT
HETATM    1  C   UNK A   1      -9.829  20.226  65.823  1.00  0.00    -0.208 C  
HETATM    2  C   UNK A   1     -11.342  20.523  65.811  1.00  0.00     1.482 C  
HETATM    3  C   UNK A   1     -12.024  19.219  65.419  1.00  0.00     4.159 C  
HETATM    4  C   UNK A   1     -10.918  18.392  64.787  1.00  0.00     2.164 C  
HETATM    5  C   UNK A   1      -9.688  18.705  65.635  1.00  0.00     0.495 C  
HETATM    6  N   UNK A   1      -9.649  18.172  67.005  1.00  0.00    -0.278 N  
HETATM    7  C   UNK A   1      -9.409  16.851  67.381  1.00  0.00    -0.235 C  
HETATM    8  C   UNK A   1      -9.249  19.241  67.965  1.00  0.00    -0.321 C  
HETATM    9  C   UNK A   1     -10.165  19.509  69.175  1.00  0.00    -0.185 C  
HETATM   10  C   UNK A   1      -9.135  20.528  67.139  1.00  0.00    -0.452 C  
HETATM   11  O   UNK A   1      -9.186  16.608  68.573  1.00  0.00    -0.218 OA 
HETATM   12  O   UNK A   1     -11.261  18.715  69.224  1.00  0.00     1.721 OA 
HETATM   13  O   UNK A   1      -9.960  20.381  69.999  1.00  0.00     0.194 OA 
ENDROOT
BRANCH   7  14
HETATM   14  C   UNK A   1      -9.483  15.688  66.353  1.00  0.00    -0.292 C  
HETATM   15  C   UNK A   1     -10.875  15.038  66.411  1.00  0.00    -0.326 C  
BRANCH  14  16
HETATM   16  N   UNK A   1      -8.414  14.699  66.634  1.00  0.00    -0.429 NA 
HETATM   17  H   UNK A   1      -7.738  14.672  65.870  1.00  0.00     0.000 HD 
BRANCH  16  18
HETATM   18  C   UNK A   0      -7.726  14.922  67.943  1.00  0.00    -0.141 C  
BRANCH  18  19
HETATM   19  C   UNK A   0      -8.713  15.451  68.983  1.00  0.00    -0.231 C  
BRANCH  19  20
HETATM   20  C   UNK A   0      -9.023  14.472  70.125  1.00  0.00     1.220 C  
BRANCH  20  21
HETATM   21  C   UNK A   0     -10.524  14.332  70.202  1.00  0.00     0.551 A  
HETATM   22  C   UNK A   0     -11.212  13.554  69.261  1.00  0.00    -0.285 A  
HETATM   23  C   UNK A   0     -11.214  14.829  71.318  1.00  0.00    -0.059 A  
HETATM   24  C   UNK A   0     -12.554  13.233  69.459  1.00  0.00     0.218 A  
HETATM   25  C   UNK A   0     -12.557  14.508  71.511  1.00  0.00    -0.419 A  
HETATM   26  C   UNK A   0     -13.220  13.698  70.593  1.00  0.00     0.062 A  
ENDBRANCH  20  21
ENDBRANCH  19  20
ENDBRANCH  18  19
BRANCH  18  27
HETATM   27  C   UNK A   0      -7.077  13.606  68.418  1.00  0.00    -0.107 C  
HETATM   28  O   UNK A   0      -7.205  12.514  67.883  1.00  0.00    -0.091 OA 
BRANCH  27  29
HETATM   29  O   UNK A   0      -6.326  13.854  69.535  1.00  0.00    -0.108 OA 
BRANCH  29  30
HETATM   30  C   UNK A   0      -5.266  12.924  69.806  1.00  0.00    -0.082 C  
HETATM   31  C   UNK A   0      -5.610  12.039  70.991  1.00  0.00    -0.019 C  
ENDBRANCH  29  30
ENDBRANCH  27  29
ENDBRANCH  18  27
ENDBRANCH  16  18
ENDBRANCH  14  16
ENDBRANCH   7  14
TORSDOF 9
ENDMDL
MODEL      300
REMARK 921   NORMALIZED FREE ENERGY PREDICTED BY IDOCK:   14.82 KCAL/MOL
REMARK 922        TOTAL FREE ENERGY PREDICTED BY IDOCK:   20.99 KCAL/MOL
REMARK 923 INTER-LIGAND FREE ENERGY PREDICTED BY IDOCK:    2.73 KCAL/MOL
REMARK 924 INTRA-LIGAND FREE ENERGY PREDICTED BY IDOCK:   18.26 KCAL/MOL
REMARK 927      BINDING AFFINITY PREDICTED BY RF-SCORE:    0.00 PKD
ROOT
HETATM    1  C   UNK A   1      -8.862  13.787  68.674  1.00  0.00    -0.047 C  
HETATM    2  C   UNK A   1      -7.988  13.668  69.939  1.00  0.00     1.468 C  
HETATM    3  C   UNK A   1      -7.424  15.060  70.193  1.00  0.00     0.239 C  
HETATM    4  C   UNK A   1      -7.597  15.783  68.868  1.00  0.00    -0.181 C  
HETATM    5  C   UNK A   1      -8.943  15.288  68.347  1.00  0.00    -0.184 C  
HETATM    6  N   UNK A   1     -10.156  15.745  69.043  1.00  0.00    -0.212 N  
HETATM    7  C   UNK A   1     -10.738  17.010  68.962  1.00  0.00    -0.271 C  
HETATM    8  C   UNK A   1     -11.059  14.593  69.322  1.00  0.00    -0.269 C  
HETATM    9  C   UNK A   1     -11.529  14.375  70.774  1.00  0.00    -0.086 C  
HETATM   10  C   UNK A   1     -10.302  13.342  68.856  1.00  0.00    -0.079 C  
HETATM   11  O   UNK A   1     -11.873  17.167  69.426  1.00  0.00     0.990 OA 
HETATM   12  O   UNK A   1     -11.049  15.287  71.652  1.00  0.00    -0.356 OA 
HETATM   13  O   UNK A   1     -12.232  13.445  71.125  1.00  0.00    -0.315 OA 
ENDROOT
BRANCH   7  14
HETATM   14  C   UNK A   1      -9.968  18.222  68.368  1.00  0.00    -0.382 C  
HETATM   15  C   UNK A   1     -10.342  18.393  66.886  1.00  0.00    -0.417 C  
BRANCH  14  16
HETATM   16  N   UNK A   1      -8.507  18.022  68.535  1.00  0.00    -0.310 NA 
HETATM   17  H   UNK A   1      -8.311  17.092  68.905  1.00  0.00     0.000 HD 
BRANCH  16  18
HETATM   18  C   UNK A   0      -7.725  18.271  67.285  1.00  0.00    -0.219 C  
BRANCH  18  19
HETATM   19  C   UNK A   0      -6.228  18.325  67.593  1.00  0.00    -0.187 C  
BRANCH  19  20
HETATM   20  C   UNK A   0      -5.706  19.717  67.980  1.00  0.00    -0.222 C  
BRANCH  20  21
HETATM   21  C   UNK A   0      -5.819  19.837  69.481  1.00  0.00    -0.304 A  
HETATM   22  C   UNK A   0      -6.480  20.931  70.056  1.00  0.00     0.992 A  
HETATM   23  C   UNK A   0      -5.424  18.767  70.298  1.00  0.00    -0.232 A  
HETATM   24  C   UNK A   0      -6.788  20.932  71.415  1.00  0.00     1.925 A  
HETATM   25  C   UNK A   0      -5.731  18.773  71.657  1.00  0.00     0.179 A  
HETATM   26  C   UNK A   0      -6.427  19.845  72.210  1.00  0.00     0.651 A  
ENDBRANCH  20  21
ENDBRANCH  19  20
ENDBRANCH  18  19
BRANCH  18  27
HETATM   27  C   UNK A   0      -8.034  17.170  66.251  1.00  0.00    -0.304 C  
HETATM   28  O   UNK A   0      -7.349  16.181  66.036  1.00  0.00     0.252 OA 
BRANCH  27  29
HETATM   29  O   UNK A   0      -9.207  17.471  65.613  1.00  0.00    -0.441 OA 
BRANCH  29  30
HETATM   30  C   UNK A   0      -9.922  18.615  66.105  1.00  0.00    -0.330 C  
HETATM   31  C   UNK A   0     -10.080  19.664  65.018  1.00  0.00     1.382 C  
ENDBRANCH  29  30
ENDBRANCH  27  29
ENDBRANCH  18  27
ENDBRANCH  16  18
ENDBRANCH  14  16
ENDBRANCH   7  14
TORSDOF 9
ENDMDL
