MODEL        1
REMARK 921   NORMALIZED FREE ENERGY PREDICTED BY IDOCK:   -5.79 KCAL/MOL
REMARK 922        TOTAL FREE ENERGY PREDICTED BY IDOCK:   -9.23 KCAL/MOL
REMARK 923 INTER-LIGAND FREE ENERGY PREDICTED BY IDOCK:   -8.84 KCAL/MOL
REMARK 924 INTRA-LIGAND FREE ENERGY PREDICTED BY IDOCK:   -0.39 KCAL/MOL
REMARK 927      BINDING AFFINITY PREDICTED BY RF-SCORE:    0.00 PKD
ROOT
HETATM    1  C   UNL     1     -12.581  11.848  63.328  1.00  0.00    -0.344 C  
HETATM    2  N   UNL     1     -12.883  12.634  64.502  1.00  0.00    -0.745 NA 
HETATM    3  H   UNL     1     -13.749  12.391  64.981  1.00  0.00     0.000 HD 
ENDROOT
BRANCH   2   4
HETATM    4  C   UNL     1     -12.161  13.671  65.069  1.00  0.00    -0.421 C  
HETATM    5  C   UNL     1     -12.044  14.837  64.396  1.00  0.00    -0.440 C  
HETATM    6  O   UNL     1     -10.834  15.965  66.030  1.00  0.00    -0.305 OA 
HETATM    7  N   UNL     1     -11.336  15.990  64.899  1.00  0.00    -0.282 N  
HETATM    8  O   UNL     1     -11.289  16.960  64.129  1.00  0.00    -1.208 OA 
BRANCH   4   9
HETATM    9  N   UNL     1     -11.568  13.453  66.298  1.00  0.00    -0.330 NA 
HETATM   10  H   UNL     1     -12.001  13.944  67.081  1.00  0.00     0.000 HD 
BRANCH   9  11
HETATM   11  C   UNL     1     -10.425  12.632  66.643  1.00  0.00    -0.245 C  
BRANCH  11  12
HETATM   12  C   UNL     1     -10.733  11.160  66.346  1.00  0.00    -0.247 C  
BRANCH  12  13
HETATM   13  S   UNL     1     -11.009  10.175  67.857  1.00  0.00    -0.235 SA 
BRANCH  13  14
HETATM   14  C   UNL     1     -10.739  11.464  69.118  1.00  0.00    -0.189 C  
BRANCH  14  15
HETATM   15  C   UNL     1     -11.692  11.305  70.238  1.00  0.00    -0.324 A  
HETATM   16  C   UNL     1     -12.216  10.213  70.893  1.00  0.00    -0.455 A  
HETATM   17  C   UNL     1     -13.089  10.729  71.882  1.00  0.00    -0.557 A  
HETATM   18  C   UNL     1     -13.051  12.102  71.764  1.00  0.00    -0.352 A  
HETATM   19  O   UNL     1     -12.207  12.457  70.754  1.00  0.00    -0.369 OA 
BRANCH  18  20
HETATM   20  C   UNL     1     -13.734  13.219  72.480  1.00  0.00    -0.508 C  
BRANCH  20  21
HETATM   21  N   UNL     1     -13.027  14.510  72.366  1.00  0.00    -0.360 NA 
HETATM   22  C   UNL     1     -13.819  15.491  71.618  1.00  0.00    -0.456 C  
HETATM   23  C   UNL     1     -12.746  15.027  73.708  1.00  0.00    -0.471 C  
ENDBRANCH  20  21
ENDBRANCH  18  20
ENDBRANCH  14  15
ENDBRANCH  13  14
ENDBRANCH  12  13
ENDBRANCH  11  12
ENDBRANCH   9  11
ENDBRANCH   4   9
ENDBRANCH   2   4
TORSDOF 9
ENDMDL
MODEL        2
REMARK 921   NORMALIZED FREE ENERGY PREDICTED BY IDOCK:   -5.58 KCAL/MOL
REMARK 922        TOTAL FREE ENERGY PREDICTED BY IDOCK:   -8.90 KCAL/MOL
REMARK 923 INTER-LIGAND FREE ENERGY PREDICTED BY IDOCK:   -8.10 KCAL/MOL
REMARK 924 INTRA-LIGAND FREE ENERGY PREDICTED BY IDOCK:   -0.81 KCAL/MOL
REMARK 927      BINDING AFFINITY PREDICTED BY RF-SCORE:    0.00 PKD
ROOT
HETATM    1  C   UNL     1     -10.400  16.326  65.949  1.00  0.00    -0.365 C  
HETATM    2  N   UNL     1     -10.971  15.012  66.142  1.00  0.00    -0.332 NA 
HETATM    3  H   UNL     1     -11.513  14.892  66.998  1.00  0.00     0.000 HD 
ENDROOT
BRANCH   2   4
HETATM    4  C   UNL     1     -10.886  13.894  65.331  1.00  0.00    -0.319 C  
HETATM    5  C   UNL     1     -11.932  13.576  64.536  1.00  0.00    -0.410 C  
HETATM    6  O   UNL     1     -10.939  11.734  63.520  1.00  0.00    -0.396 OA 
HETATM    7  N   UNL     1     -11.944  12.448  63.636  1.00  0.00    -0.495 N  
HETATM    8  O   UNL     1     -13.004  12.277  63.015  1.00  0.00    -0.516 OA 
BRANCH   4   9
HETATM    9  N   UNL     1      -9.733  13.135  65.392  1.00  0.00    -0.497 NA 
HETATM   10  H   UNL     1      -9.307  12.920  64.490  1.00  0.00     0.000 HD 
BRANCH   9  11
HETATM   11  C   UNL     1      -9.037  12.597  66.544  1.00  0.00    -0.162 C  
BRANCH  11  12
HETATM   12  C   UNL     1      -9.258  11.083  66.626  1.00  0.00    -0.167 C  
BRANCH  12  13
HETATM   13  S   UNL     1     -10.826  10.638  67.446  1.00  0.00    -0.291 SA 
BRANCH  13  14
HETATM   14  C   UNL     1     -11.011  12.075  68.553  1.00  0.00    -0.240 C  
BRANCH  14  15
HETATM   15  C   UNL     1     -11.797  11.710  69.753  1.00  0.00    -0.357 A  
HETATM   16  C   UNL     1     -12.122  10.512  70.348  1.00  0.00    -0.418 A  
HETATM   17  C   UNL     1     -12.913  10.836  71.478  1.00  0.00    -0.562 A  
HETATM   18  C   UNL     1     -13.029  12.210  71.497  1.00  0.00    -0.295 A  
HETATM   19  O   UNL     1     -12.358  12.746  70.439  1.00  0.00    -0.318 OA 
BRANCH  18  20
HETATM   20  C   UNL     1     -13.728  13.175  72.396  1.00  0.00    -0.540 C  
BRANCH  20  21
HETATM   21  N   UNL     1     -13.277  14.570  72.224  1.00  0.00    -0.358 NA 
HETATM   22  C   UNL     1     -14.402  15.463  71.926  1.00  0.00    -0.543 C  
HETATM   23  C   UNL     1     -12.608  15.017  73.448  1.00  0.00    -0.518 C  
ENDBRANCH  20  21
ENDBRANCH  18  20
ENDBRANCH  14  15
ENDBRANCH  13  14
ENDBRANCH  12  13
ENDBRANCH  11  12
ENDBRANCH   9  11
ENDBRANCH   4   9
ENDBRANCH   2   4
TORSDOF 9
ENDMDL
MODEL        3
REMARK 921   NORMALIZED FREE ENERGY PREDICTED BY IDOCK:   -5.56 KCAL/MOL
REMARK 922        TOTAL FREE ENERGY PREDICTED BY IDOCK:   -8.87 KCAL/MOL
REMARK 923 INTER-LIGAND FREE ENERGY PREDICTED BY IDOCK:   -8.37 KCAL/MOL
REMARK 924 INTRA-LIGAND FREE ENERGY PREDICTED BY IDOCK:   -0.51 KCAL/MOL
REMARK 927      BINDING AFFINITY PREDICTED BY RF-SCORE:    0.00 PKD
ROOT
HETATM    1  C   UNL     1     -12.718  11.859  63.360  1.00  0.00    -0.366 C  
HETATM    2  N   UNL     1     -12.949  12.597  64.582  1.00  0.00    -0.844 NA 
HETATM    3  H   UNL     1     -13.800  12.352  65.087  1.00  0.00     0.000 HD 
ENDROOT
BRANCH   2   4
HETATM    4  C   UNL     1     -12.177  13.589  65.163  1.00  0.00    -0.428 C  
HETATM    5  C   UNL     1     -12.040  14.773  64.526  1.00  0.00    -0.446 C  
HETATM    6  O   UNL     1     -10.748  15.803  66.163  1.00  0.00    -0.316 OA 
HETATM    7  N   UNL     1     -11.279  15.883  65.048  1.00  0.00    -0.329 N  
HETATM    8  O   UNL     1     -11.220  16.879  64.310  1.00  0.00    -1.204 OA 
BRANCH   4   9
HETATM    9  N   UNL     1     -11.559  13.308  66.366  1.00  0.00    -0.331 NA 
HETATM   10  H   UNL     1     -10.805  13.945  66.624  1.00  0.00     0.000 HD 
BRANCH   9  11
HETATM   11  C   UNL     1     -11.820  12.247  67.317  1.00  0.00    -0.260 C  
BRANCH  11  12
HETATM   12  C   UNL     1     -10.900  11.054  67.032  1.00  0.00    -0.279 C  
BRANCH  12  13
HETATM   13  S   UNL     1     -10.666   9.977  68.486  1.00  0.00    -0.230 SA 
BRANCH  13  14
HETATM   14  C   UNL     1     -11.549  10.960  69.742  1.00  0.00    -0.322 C  
BRANCH  14  15
HETATM   15  C   UNL     1     -12.101  10.081  70.797  1.00  0.00    -0.327 A  
HETATM   16  C   UNL     1     -13.005  10.271  71.816  1.00  0.00    -0.574 A  
HETATM   17  C   UNL     1     -13.106   9.030  72.491  1.00  0.00    -0.450 A  
HETATM   18  C   UNL     1     -12.251   8.161  71.847  1.00  0.00    -0.331 A  
HETATM   19  O   UNL     1     -11.627   8.802  70.819  1.00  0.00    -0.281 OA 
BRANCH  18  20
HETATM   20  C   UNL     1     -11.880   6.731  72.059  1.00  0.00    -0.314 C  
BRANCH  20  21
HETATM   21  N   UNL     1     -10.446   6.532  72.346  1.00  0.00    -0.200 NA 
HETATM   22  C   UNL     1     -10.078   7.093  73.650  1.00  0.00    -0.346 C  
HETATM   23  C   UNL     1     -10.142   5.099  72.325  1.00  0.00    -0.192 C  
ENDBRANCH  20  21
ENDBRANCH  18  20
ENDBRANCH  14  15
ENDBRANCH  13  14
ENDBRANCH  12  13
ENDBRANCH  11  12
ENDBRANCH   9  11
ENDBRANCH   4   9
ENDBRANCH   2   4
TORSDOF 9
ENDMDL
MODEL        4
REMARK 921   NORMALIZED FREE ENERGY PREDICTED BY IDOCK:   -5.49 KCAL/MOL
REMARK 922        TOTAL FREE ENERGY PREDICTED BY IDOCK:   -8.77 KCAL/MOL
REMARK 923 INTER-LIGAND FREE ENERGY PREDICTED BY IDOCK:   -7.96 KCAL/MOL
REMARK 924 INTRA-LIGAND FREE ENERGY PREDICTED BY IDOCK:   -0.81 KCAL/MOL
REMARK 927      BINDING AFFINITY PREDICTED BY RF-SCORE:    0.00 PKD
ROOT
HETATM    1  C   UNL     1     -13.338  15.712  72.647  1.00  0.00    -0.536 C  
HETATM    2  N   UNL     1     -13.030  15.774  71.236  1.00  0.00    -0.507 NA 
HETATM    3  H   UNL     1     -13.112  16.697  70.810  1.00  0.00     0.000 HD 
ENDROOT
BRANCH   2   4
HETATM    4  C   UNL     1     -12.641  14.757  70.380  1.00  0.00    -0.346 C  
HETATM    5  C   UNL     1     -12.516  13.502  70.864  1.00  0.00    -0.369 C  
HETATM    6  O   UNL     1     -11.959  12.495  68.843  1.00  0.00    -0.299 OA 
HETATM    7  N   UNL     1     -12.139  12.364  70.061  1.00  0.00    -0.296 N  
HETATM    8  O   UNL     1     -12.027  11.294  70.678  1.00  0.00    -0.345 OA 
BRANCH   4   9
HETATM    9  N   UNL     1     -12.374  15.084  69.065  1.00  0.00    -0.590 NA 
HETATM   10  H   UNL     1     -12.964  14.620  68.375  1.00  0.00     0.000 HD 
BRANCH   9  11
HETATM   11  C   UNL     1     -11.380  15.985  68.517  1.00  0.00    -0.382 C  
BRANCH  11  12
HETATM   12  C   UNL     1     -10.141  15.195  68.084  1.00  0.00    -0.222 C  
BRANCH  12  13
HETATM   13  S   UNL     1      -9.394  15.834  66.547  1.00  0.00    -0.312 SA 
BRANCH  13  14
HETATM   14  C   UNL     1     -10.884  15.942  65.503  1.00  0.00    -0.315 C  
BRANCH  14  15
HETATM   15  C   UNL     1     -11.430  14.593  65.234  1.00  0.00    -0.361 A  
HETATM   16  C   UNL     1     -12.578  13.938  65.616  1.00  0.00    -0.553 A  
HETATM   17  C   UNL     1     -12.513  12.651  65.028  1.00  0.00    -0.556 A  
HETATM   18  C   UNL     1     -11.325  12.598  64.329  1.00  0.00    -0.363 A  
HETATM   19  O   UNL     1     -10.657  13.778  64.462  1.00  0.00    -0.423 OA 
BRANCH  18  20
HETATM   20  C   UNL     1     -10.655  11.543  63.513  1.00  0.00    -0.423 C  
BRANCH  20  21
HETATM   21  N   UNL     1      -9.473  10.953  64.172  1.00  0.00    -0.240 NA 
HETATM   22  C   UNL     1      -9.862  10.027  65.240  1.00  0.00    -0.318 C  
HETATM   23  C   UNL     1      -8.668  10.242  63.175  1.00  0.00    -0.207 C  
ENDBRANCH  20  21
ENDBRANCH  18  20
ENDBRANCH  14  15
ENDBRANCH  13  14
ENDBRANCH  12  13
ENDBRANCH  11  12
ENDBRANCH   9  11
ENDBRANCH   4   9
ENDBRANCH   2   4
TORSDOF 9
ENDMDL
MODEL        5
REMARK 921   NORMALIZED FREE ENERGY PREDICTED BY IDOCK:   -5.44 KCAL/MOL
REMARK 922        TOTAL FREE ENERGY PREDICTED BY IDOCK:   -8.70 KCAL/MOL
REMARK 923 INTER-LIGAND FREE ENERGY PREDICTED BY IDOCK:   -8.23 KCAL/MOL
REMARK 924 INTRA-LIGAND FREE ENERGY PREDICTED BY IDOCK:   -0.47 KCAL/MOL
REMARK 927      BINDING AFFINITY PREDICTED BY RF-SCORE:    0.00 PKD
ROOT
HETATM    1  C   UNL     1     -10.516  17.165  65.482  1.00  0.00    -0.144 C  
HETATM    2  N   UNL     1     -10.917  16.037  64.673  1.00  0.00    -0.842 NA 
HETATM    3  H   UNL     1     -10.840  16.171  63.665  1.00  0.00     0.000 HD 
ENDROOT
BRANCH   2   4
HETATM    4  C   UNL     1     -11.392  14.799  65.073  1.00  0.00    -0.391 C  
HETATM    5  C   UNL     1     -12.011  14.008  64.170  1.00  0.00    -0.408 C  
HETATM    6  O   UNL     1     -12.365  12.206  65.597  1.00  0.00    -0.560 OA 
HETATM    7  N   UNL     1     -12.525  12.693  64.470  1.00  0.00    -0.456 N  
HETATM    8  O   UNL     1     -13.106  12.124  63.533  1.00  0.00    -0.785 OA 
BRANCH   4   9
HETATM    9  N   UNL     1     -11.229  14.440  66.397  1.00  0.00    -0.337 NA 
HETATM   10  H   UNL     1     -12.092  14.379  66.939  1.00  0.00     0.000 HD 
BRANCH   9  11
HETATM   11  C   UNL     1     -10.019  14.137  67.134  1.00  0.00    -0.255 C  
BRANCH  11  12
HETATM   12  C   UNL     1     -10.249  14.363  68.632  1.00  0.00    -0.245 C  
BRANCH  12  13
HETATM   13  S   UNL     1     -11.802  13.615  69.231  1.00  0.00    -0.354 SA 
BRANCH  13  14
HETATM   14  C   UNL     1     -11.338  11.853  69.165  1.00  0.00    -0.279 C  
BRANCH  14  15
HETATM   15  C   UNL     1     -12.035  11.091  70.225  1.00  0.00    -0.365 A  
HETATM   16  C   UNL     1     -12.867  11.448  71.263  1.00  0.00    -0.481 A  
HETATM   17  C   UNL     1     -13.200  10.246  71.932  1.00  0.00    -0.550 A  
HETATM   18  C   UNL     1     -12.546   9.230  71.268  1.00  0.00    -0.306 A  
HETATM   19  O   UNL     1     -11.825   9.744  70.232  1.00  0.00    -0.234 OA 
BRANCH  18  20
HETATM   20  C   UNL     1     -12.462   7.753  71.465  1.00  0.00    -0.324 C  
BRANCH  20  21
HETATM   21  N   UNL     1     -11.176   7.174  71.029  1.00  0.00    -0.260 NA 
HETATM   22  C   UNL     1     -10.558   6.378  72.095  1.00  0.00    -0.220 C  
HETATM   23  C   UNL     1     -11.399   6.329  69.853  1.00  0.00    -0.434 C  
ENDBRANCH  20  21
ENDBRANCH  18  20
ENDBRANCH  14  15
ENDBRANCH  13  14
ENDBRANCH  12  13
ENDBRANCH  11  12
ENDBRANCH   9  11
ENDBRANCH   4   9
ENDBRANCH   2   4
TORSDOF 9
ENDMDL
MODEL        6
REMARK 921   NORMALIZED FREE ENERGY PREDICTED BY IDOCK:   -5.37 KCAL/MOL
REMARK 922        TOTAL FREE ENERGY PREDICTED BY IDOCK:   -8.59 KCAL/MOL
REMARK 923 INTER-LIGAND FREE ENERGY PREDICTED BY IDOCK:   -7.66 KCAL/MOL
REMARK 924 INTRA-LIGAND FREE ENERGY PREDICTED BY IDOCK:   -0.92 KCAL/MOL
REMARK 927      BINDING AFFINITY PREDICTED BY RF-SCORE:    0.00 PKD
ROOT
HETATM    1  C   UNL     1     -11.075  16.361  69.908  1.00  0.00    -0.310 C  
HETATM    2  N   UNL     1     -11.326  15.010  69.459  1.00  0.00    -0.270 NA 
HETATM    3  H   UNL     1     -11.111  14.828  68.479  1.00  0.00     0.000 HD 
ENDROOT
BRANCH   2   4
HETATM    4  C   UNL     1     -11.817  13.929  70.171  1.00  0.00    -0.298 C  
HETATM    5  C   UNL     1     -12.748  14.139  71.127  1.00  0.00    -0.361 C  
HETATM    6  O   UNL     1     -13.047  11.904  71.698  1.00  0.00    -0.436 OA 
HETATM    7  N   UNL     1     -13.344  13.086  71.915  1.00  0.00    -0.463 N  
HETATM    8  O   UNL     1     -14.149  13.463  72.780  1.00  0.00    -0.715 OA 
BRANCH   4   9
HETATM    9  N   UNL     1     -11.306  12.678  69.883  1.00  0.00    -0.505 NA 
HETATM   10  H   UNL     1     -10.672  12.297  70.585  1.00  0.00     0.000 HD 
BRANCH   9  11
HETATM   11  C   UNL     1     -11.536  11.824  68.735  1.00  0.00    -0.307 C  
BRANCH  11  12
HETATM   12  C   UNL     1     -10.353  11.925  67.766  1.00  0.00    -0.198 C  
BRANCH  12  13
HETATM   13  S   UNL     1     -10.851  11.751  66.019  1.00  0.00    -0.299 SA 
BRANCH  13  14
HETATM   14  C   UNL     1     -12.232  12.940  65.973  1.00  0.00    -0.366 C  
BRANCH  14  15
HETATM   15  C   UNL     1     -11.759  14.269  65.524  1.00  0.00    -0.353 A  
HETATM   16  C   UNL     1     -11.790  14.931  64.318  1.00  0.00    -0.312 A  
HETATM   17  C   UNL     1     -11.163  16.182  64.540  1.00  0.00    -0.275 A  
HETATM   18  C   UNL     1     -10.781  16.202  65.864  1.00  0.00    -0.255 A  
HETATM   19  O   UNL     1     -11.134  15.031  66.466  1.00  0.00    -0.333 OA 
BRANCH  18  20
HETATM   20  C   UNL     1     -10.075  17.200  66.720  1.00  0.00    -0.303 C  
BRANCH  20  21
HETATM   21  N   UNL     1      -9.523  18.339  65.960  1.00  0.00    -0.513 NA 
HETATM   22  C   UNL     1     -10.300  19.562  66.187  1.00  0.00    -0.520 C  
HETATM   23  C   UNL     1      -8.131  18.561  66.363  1.00  0.00    -0.273 C  
ENDBRANCH  20  21
ENDBRANCH  18  20
ENDBRANCH  14  15
ENDBRANCH  13  14
ENDBRANCH  12  13
ENDBRANCH  11  12
ENDBRANCH   9  11
ENDBRANCH   4   9
ENDBRANCH   2   4
TORSDOF 9
ENDMDL
MODEL        7
REMARK 921   NORMALIZED FREE ENERGY PREDICTED BY IDOCK:   -5.36 KCAL/MOL
REMARK 922        TOTAL FREE ENERGY PREDICTED BY IDOCK:   -8.57 KCAL/MOL
REMARK 923 INTER-LIGAND FREE ENERGY PREDICTED BY IDOCK:   -7.84 KCAL/MOL
REMARK 924 INTRA-LIGAND FREE ENERGY PREDICTED BY IDOCK:   -0.73 KCAL/MOL
REMARK 927      BINDING AFFINITY PREDICTED BY RF-SCORE:    0.00 PKD
ROOT
HETATM    1  C   UNL     1      -9.791  10.248  64.588  1.00  0.00    -0.327 C  
HETATM    2  N   UNL     1     -10.420  10.875  65.729  1.00  0.00    -0.236 NA 
HETATM    3  H   UNL     1     -10.138  10.511  66.639  1.00  0.00     0.000 HD 
ENDROOT
BRANCH   2   4
HETATM    4  C   UNL     1     -11.350  11.900  65.760  1.00  0.00    -0.299 C  
HETATM    5  C   UNL     1     -11.567  12.627  64.642  1.00  0.00    -0.342 C  
HETATM    6  O   UNL     1     -13.247  13.971  65.524  1.00  0.00    -0.710 OA 
HETATM    7  N   UNL     1     -12.526  13.701  64.554  1.00  0.00    -0.327 N  
HETATM    8  O   UNL     1     -12.562  14.292  63.465  1.00  0.00    -0.814 OA 
BRANCH   4   9
HETATM    9  N   UNL     1     -12.002  12.147  66.953  1.00  0.00    -0.609 NA 
HETATM   10  H   UNL     1     -13.017  12.056  66.920  1.00  0.00     0.000 HD 
BRANCH   9  11
HETATM   11  C   UNL     1     -11.460  12.518  68.245  1.00  0.00    -0.308 C  
BRANCH  11  12
HETATM   12  C   UNL     1     -10.539  13.734  68.095  1.00  0.00    -0.253 C  
BRANCH  12  13
HETATM   13  S   UNL     1     -11.406  15.317  68.362  1.00  0.00    -0.341 SA 
BRANCH  13  14
HETATM   14  C   UNL     1     -10.767  16.260  66.939  1.00  0.00    -0.217 C  
BRANCH  14  15
HETATM   15  C   UNL     1     -10.128  17.515  67.392  1.00  0.00    -0.325 A  
HETATM   16  C   UNL     1     -10.542  18.826  67.451  1.00  0.00    -0.505 A  
HETATM   17  C   UNL     1      -9.453  19.560  67.981  1.00  0.00    -0.424 A  
HETATM   18  C   UNL     1      -8.439  18.654  68.205  1.00  0.00    -0.324 A  
HETATM   19  O   UNL     1      -8.843  17.405  67.836  1.00  0.00    -0.229 OA 
BRANCH  18  20
HETATM   20  C   UNL     1      -7.046  18.771  68.730  1.00  0.00    -0.308 C  
BRANCH  20  21
HETATM   21  N   UNL     1      -6.713  20.126  69.212  1.00  0.00    -0.270 NA 
HETATM   22  C   UNL     1      -5.997  20.079  70.491  1.00  0.00    -0.341 C  
HETATM   23  C   UNL     1      -5.885  20.805  68.211  1.00  0.00    -0.330 C  
ENDBRANCH  20  21
ENDBRANCH  18  20
ENDBRANCH  14  15
ENDBRANCH  13  14
ENDBRANCH  12  13
ENDBRANCH  11  12
ENDBRANCH   9  11
ENDBRANCH   4   9
ENDBRANCH   2   4
TORSDOF 9
ENDMDL
MODEL        8
REMARK 921   NORMALIZED FREE ENERGY PREDICTED BY IDOCK:   -5.36 KCAL/MOL
REMARK 922        TOTAL FREE ENERGY PREDICTED BY IDOCK:   -8.57 KCAL/MOL
REMARK 923 INTER-LIGAND FREE ENERGY PREDICTED BY IDOCK:   -7.66 KCAL/MOL
REMARK 924 INTRA-LIGAND FREE ENERGY PREDICTED BY IDOCK:   -0.91 KCAL/MOL
REMARK 927      BINDING AFFINITY PREDICTED BY RF-SCORE:    0.00 PKD
ROOT
HETATM    1  C   UNL     1      -9.393  10.855  62.763  1.00  0.00    -0.342 C  
HETATM    2  N   UNL     1     -10.772  11.076  63.134  1.00  0.00    -0.789 NA 
HETATM    3  H   UNL     1     -11.451  10.463  62.682  1.00  0.00     0.000 HD 
ENDROOT
BRANCH   2   4
HETATM    4  C   UNL     1     -11.302  12.003  64.015  1.00  0.00    -0.403 C  
HETATM    5  C   UNL     1     -11.798  13.164  63.531  1.00  0.00    -0.476 C  
HETATM    6  O   UNL     1     -12.519  14.013  65.572  1.00  0.00    -0.458 OA 
HETATM    7  N   UNL     1     -12.393  14.190  64.353  1.00  0.00    -0.417 N  
HETATM    8  O   UNL     1     -12.754  15.210  63.748  1.00  0.00    -0.722 OA 
BRANCH   4   9
HETATM    9  N   UNL     1     -11.276  11.704  65.364  1.00  0.00    -0.246 NA 
HETATM   10  H   UNL     1     -12.191  11.598  65.802  1.00  0.00     0.000 HD 
BRANCH   9  11
HETATM   11  C   UNL     1     -10.145  11.519  66.250  1.00  0.00    -0.226 C  
BRANCH  11  12
HETATM   12  C   UNL     1     -10.477  10.458  67.304  1.00  0.00    -0.252 C  
BRANCH  12  13
HETATM   13  S   UNL     1     -10.221  11.049  69.011  1.00  0.00    -0.168 SA 
BRANCH  13  14
HETATM   14  C   UNL     1     -11.899  11.658  69.380  1.00  0.00    -0.342 C  
BRANCH  14  15
HETATM   15  C   UNL     1     -11.886  13.122  69.595  1.00  0.00    -0.324 A  
HETATM   16  C   UNL     1     -12.257  13.933  70.644  1.00  0.00    -0.443 A  
HETATM   17  C   UNL     1     -12.003  15.261  70.224  1.00  0.00    -0.367 A  
HETATM   18  C   UNL     1     -11.500  15.180  68.943  1.00  0.00    -0.320 A  
HETATM   19  O   UNL     1     -11.438  13.876  68.552  1.00  0.00    -0.271 OA 
BRANCH  18  20
HETATM   20  C   UNL     1     -11.051  16.194  67.944  1.00  0.00    -0.293 C  
BRANCH  20  21
HETATM   21  N   UNL     1      -9.659  15.999  67.494  1.00  0.00    -0.221 NA 
HETATM   22  C   UNL     1      -9.574  15.923  66.032  1.00  0.00    -0.350 C  
HETATM   23  C   UNL     1      -8.834  17.110  67.976  1.00  0.00    -0.229 C  
ENDBRANCH  20  21
ENDBRANCH  18  20
ENDBRANCH  14  15
ENDBRANCH  13  14
ENDBRANCH  12  13
ENDBRANCH  11  12
ENDBRANCH   9  11
ENDBRANCH   4   9
ENDBRANCH   2   4
TORSDOF 9
ENDMDL
MODEL        9
REMARK 921   NORMALIZED FREE ENERGY PREDICTED BY IDOCK:   -5.35 KCAL/MOL
REMARK 922        TOTAL FREE ENERGY PREDICTED BY IDOCK:   -8.55 KCAL/MOL
REMARK 923 INTER-LIGAND FREE ENERGY PREDICTED BY IDOCK:   -7.89 KCAL/MOL
REMARK 924 INTRA-LIGAND FREE ENERGY PREDICTED BY IDOCK:   -0.65 KCAL/MOL
REMARK 927      BINDING AFFINITY PREDICTED BY RF-SCORE:    0.00 PKD
ROOT
HETATM    1  C   UNL     1      -6.366  19.009  65.261  1.00  0.00    -0.283 C  
HETATM    2  N   UNL     1      -7.195  17.911  65.704  1.00  0.00    -0.515 NA 
HETATM    3  H   UNL     1      -6.800  16.981  65.565  1.00  0.00     0.000 HD 
ENDROOT
BRANCH   2   4
HETATM    4  C   UNL     1      -8.449  17.942  66.289  1.00  0.00    -0.185 C  
HETATM    5  C   UNL     1      -8.733  18.913  67.186  1.00  0.00    -0.284 C  
HETATM    6  O   UNL     1     -10.943  18.293  67.554  1.00  0.00    -0.335 OA 
HETATM    7  N   UNL     1     -10.011  19.055  67.840  1.00  0.00    -0.339 N  
HETATM    8  O   UNL     1     -10.082  19.975  68.670  1.00  0.00    -0.425 OA 
BRANCH   4   9
HETATM    9  N   UNL     1      -9.351  16.955  65.944  1.00  0.00    -0.525 NA 
HETATM   10  H   UNL     1     -10.108  17.255  65.330  1.00  0.00     0.000 HD 
BRANCH   9  11
HETATM   11  C   UNL     1      -9.384  15.556  66.322  1.00  0.00    -0.320 C  
BRANCH  11  12
HETATM   12  C   UNL     1     -10.176  14.754  65.283  1.00  0.00    -0.384 C  
BRANCH  12  13
HETATM   13  S   UNL     1     -11.905  14.456  65.786  1.00  0.00    -0.343 SA 
BRANCH  13  14
HETATM   14  C   UNL     1     -11.719  12.818  66.565  1.00  0.00    -0.400 C  
BRANCH  14  15
HETATM   15  C   UNL     1     -11.865  12.920  68.034  1.00  0.00    -0.343 A  
HETATM   16  C   UNL     1     -11.836  12.002  69.059  1.00  0.00    -0.372 A  
HETATM   17  C   UNL     1     -12.047  12.736  70.251  1.00  0.00    -0.373 A  
HETATM   18  C   UNL     1     -12.199  14.055  69.881  1.00  0.00    -0.340 A  
HETATM   19  O   UNL     1     -12.100  14.170  68.526  1.00  0.00    -0.342 OA 
BRANCH  18  20
HETATM   20  C   UNL     1     -12.459  15.316  70.635  1.00  0.00    -0.406 C  
BRANCH  20  21
HETATM   21  N   UNL     1     -12.750  15.095  72.066  1.00  0.00    -0.321 NA 
HETATM   22  C   UNL     1     -12.123  16.122  72.905  1.00  0.00    -0.541 C  
HETATM   23  C   UNL     1     -14.200  15.111  72.273  1.00  0.00    -0.517 C  
ENDBRANCH  20  21
ENDBRANCH  18  20
ENDBRANCH  14  15
ENDBRANCH  13  14
ENDBRANCH  12  13
ENDBRANCH  11  12
ENDBRANCH   9  11
ENDBRANCH   4   9
ENDBRANCH   2   4
TORSDOF 9
ENDMDL
MODEL       10
REMARK 921   NORMALIZED FREE ENERGY PREDICTED BY IDOCK:   -5.34 KCAL/MOL
REMARK 922        TOTAL FREE ENERGY PREDICTED BY IDOCK:   -8.53 KCAL/MOL
REMARK 923 INTER-LIGAND FREE ENERGY PREDICTED BY IDOCK:   -7.92 KCAL/MOL
REMARK 924 INTRA-LIGAND FREE ENERGY PREDICTED BY IDOCK:   -0.61 KCAL/MOL
REMARK 927      BINDING AFFINITY PREDICTED BY RF-SCORE:    0.00 PKD
ROOT
HETATM    1  C   UNL     1     -12.426   8.584  71.795  1.00  0.00    -0.342 C  
HETATM    2  N   UNL     1     -12.409   9.520  70.693  1.00  0.00    -0.483 NA 
HETATM    3  H   UNL     1     -12.436   9.102  69.763  1.00  0.00     0.000 HD 
ENDROOT
BRANCH   2   4
HETATM    4  C   UNL     1     -12.360  10.903  70.722  1.00  0.00    -0.390 C  
HETATM    5  C   UNL     1     -13.060  11.567  71.669  1.00  0.00    -0.373 C  
HETATM    6  O   UNL     1     -12.360  13.701  71.064  1.00  0.00    -0.356 OA 
HETATM    7  N   UNL     1     -13.064  13.004  71.806  1.00  0.00    -0.400 N  
HETATM    8  O   UNL     1     -13.800  13.448  72.701  1.00  0.00    -0.726 OA 
BRANCH   4   9
HETATM    9  N   UNL     1     -11.609  11.546  69.757  1.00  0.00    -0.334 NA 
HETATM   10  H   UNL     1     -10.824  12.092  70.111  1.00  0.00     0.000 HD 
BRANCH   9  11
HETATM   11  C   UNL     1     -11.767  11.560  68.316  1.00  0.00    -0.301 C  
BRANCH  11  12
HETATM   12  C   UNL     1     -11.057  10.349  67.702  1.00  0.00    -0.293 C  
BRANCH  12  13
HETATM   13  S   UNL     1      -9.518  10.798  66.830  1.00  0.00    -0.176 SA 
BRANCH  13  14
HETATM   14  C   UNL     1     -10.051  10.526  65.108  1.00  0.00    -0.314 C  
BRANCH  14  15
HETATM   15  C   UNL     1     -10.810  11.694  64.607  1.00  0.00    -0.314 A  
HETATM   16  C   UNL     1     -11.810  11.850  63.675  1.00  0.00    -0.573 A  
HETATM   17  C   UNL     1     -12.111  13.234  63.648  1.00  0.00    -0.551 A  
HETATM   18  C   UNL     1     -11.271  13.838  64.559  1.00  0.00    -0.373 A  
HETATM   19  O   UNL     1     -10.467  12.902  65.139  1.00  0.00    -0.294 OA 
BRANCH  18  20
HETATM   20  C   UNL     1     -11.068  15.250  64.998  1.00  0.00    -0.426 C  
BRANCH  20  21
HETATM   21  N   UNL     1     -10.269  15.372  66.233  1.00  0.00    -0.275 NA 
HETATM   22  C   UNL     1      -9.563  16.656  66.291  1.00  0.00    -0.299 C  
HETATM   23  C   UNL     1     -11.153  15.246  67.395  1.00  0.00    -0.326 C  
ENDBRANCH  20  21
ENDBRANCH  18  20
ENDBRANCH  14  15
ENDBRANCH  13  14
ENDBRANCH  12  13
ENDBRANCH  11  12
ENDBRANCH   9  11
ENDBRANCH   4   9
ENDBRANCH   2   4
TORSDOF 9
ENDMDL
MODEL       11
REMARK 921   NORMALIZED FREE ENERGY PREDICTED BY IDOCK:   -5.33 KCAL/MOL
REMARK 922        TOTAL FREE ENERGY PREDICTED BY IDOCK:   -8.53 KCAL/MOL
REMARK 923 INTER-LIGAND FREE ENERGY PREDICTED BY IDOCK:   -7.94 KCAL/MOL
REMARK 924 INTRA-LIGAND FREE ENERGY PREDICTED BY IDOCK:   -0.59 KCAL/MOL
REMARK 927      BINDING AFFINITY PREDICTED BY RF-SCORE:    0.00 PKD
ROOT
HETATM    1  C   UNL     1      -8.550  14.500  67.518  1.00  0.00    -0.189 C  
HETATM    2  N   UNL     1      -9.010  13.873  66.299  1.00  0.00    -0.473 NA 
HETATM    3  H   UNL     1      -8.346  13.238  65.856  1.00  0.00     0.000 HD 
ENDROOT
BRANCH   2   4
HETATM    4  C   UNL     1     -10.223  14.014  65.648  1.00  0.00    -0.334 C  
HETATM    5  C   UNL     1     -10.505  15.180  65.025  1.00  0.00    -0.389 C  
HETATM    6  O   UNL     1     -12.570  14.531  64.174  1.00  0.00    -0.730 OA 
HETATM    7  N   UNL     1     -11.727  15.429  64.298  1.00  0.00    -0.307 N  
HETATM    8  O   UNL     1     -11.840  16.571  63.828  1.00  0.00    -1.011 OA 
BRANCH   4   9
HETATM    9  N   UNL     1     -11.107  12.953  65.687  1.00  0.00    -0.275 NA 
HETATM   10  H   UNL     1     -11.294  12.511  64.787  1.00  0.00     0.000 HD 
BRANCH   9  11
HETATM   11  C   UNL     1     -11.808  12.372  66.815  1.00  0.00    -0.315 C  
BRANCH  11  12
HETATM   12  C   UNL     1     -11.069  11.120  67.300  1.00  0.00    -0.302 C  
BRANCH  12  13
HETATM   13  S   UNL     1     -10.321  11.334  68.950  1.00  0.00    -0.166 SA 
BRANCH  13  14
HETATM   14  C   UNL     1     -11.823  11.667  69.928  1.00  0.00    -0.358 C  
BRANCH  14  15
HETATM   15  C   UNL     1     -12.122  10.530  70.826  1.00  0.00    -0.370 A  
HETATM   16  C   UNL     1     -13.141  10.259  71.711  1.00  0.00    -0.570 A  
HETATM   17  C   UNL     1     -12.846   8.995  72.276  1.00  0.00    -0.474 A  
HETATM   18  C   UNL     1     -11.662   8.575  71.708  1.00  0.00    -0.327 A  
HETATM   19  O   UNL     1     -11.211   9.515  70.830  1.00  0.00    -0.283 OA 
BRANCH  18  20
HETATM   20  C   UNL     1     -10.811   7.360  71.874  1.00  0.00    -0.229 C  
BRANCH  20  21
HETATM   21  N   UNL     1     -11.070   6.629  73.130  1.00  0.00    -0.218 NA 
HETATM   22  C   UNL     1     -11.291   5.200  72.882  1.00  0.00    -0.282 C  
HETATM   23  C   UNL     1      -9.929   6.799  74.033  1.00  0.00    -0.336 C  
ENDBRANCH  20  21
ENDBRANCH  18  20
ENDBRANCH  14  15
ENDBRANCH  13  14
ENDBRANCH  12  13
ENDBRANCH  11  12
ENDBRANCH   9  11
ENDBRANCH   4   9
ENDBRANCH   2   4
TORSDOF 9
ENDMDL
MODEL       12
REMARK 921   NORMALIZED FREE ENERGY PREDICTED BY IDOCK:   -5.31 KCAL/MOL
REMARK 922        TOTAL FREE ENERGY PREDICTED BY IDOCK:   -8.49 KCAL/MOL
REMARK 923 INTER-LIGAND FREE ENERGY PREDICTED BY IDOCK:   -7.83 KCAL/MOL
REMARK 924 INTRA-LIGAND FREE ENERGY PREDICTED BY IDOCK:   -0.65 KCAL/MOL
REMARK 927      BINDING AFFINITY PREDICTED BY RF-SCORE:    0.00 PKD
ROOT
HETATM    1  C   UNL     1     -14.057   8.803  72.116  1.00  0.00    -0.450 C  
HETATM    2  N   UNL     1     -13.383   9.473  71.027  1.00  0.00    -0.571 NA 
HETATM    3  H   UNL     1     -13.985  10.009  70.403  1.00  0.00     0.000 HD 
ENDROOT
BRANCH   2   4
HETATM    4  C   UNL     1     -12.035   9.489  70.711  1.00  0.00    -0.252 C  
HETATM    5  C   UNL     1     -11.133   9.141  71.656  1.00  0.00    -0.375 C  
HETATM    6  O   UNL     1      -9.249   9.345  70.308  1.00  0.00    -0.209 OA 
HETATM    7  N   UNL     1      -9.708   9.101  71.432  1.00  0.00    -0.294 N  
HETATM    8  O   UNL     1      -9.024   8.806  72.423  1.00  0.00    -0.379 OA 
BRANCH   4   9
HETATM    9  N   UNL     1     -11.672   9.887  69.439  1.00  0.00    -0.462 NA 
HETATM   10  H   UNL     1     -11.237   9.164  68.866  1.00  0.00     0.000 HD 
BRANCH   9  11
HETATM   11  C   UNL     1     -11.817  11.177  68.795  1.00  0.00    -0.320 C  
BRANCH  11  12
HETATM   12  C   UNL     1     -11.172  11.141  67.405  1.00  0.00    -0.294 C  
BRANCH  12  13
HETATM   13  S   UNL     1     -10.309  12.692  66.983  1.00  0.00    -0.233 SA 
BRANCH  13  14
HETATM   14  C   UNL     1     -11.692  13.868  67.149  1.00  0.00    -0.388 C  
BRANCH  14  15
HETATM   15  C   UNL     1     -11.416  14.848  68.223  1.00  0.00    -0.324 A  
HETATM   16  C   UNL     1     -10.897  16.122  68.237  1.00  0.00    -0.326 A  
HETATM   17  C   UNL     1     -10.882  16.527  69.594  1.00  0.00    -0.322 A  
HETATM   18  C   UNL     1     -11.385  15.472  70.325  1.00  0.00    -0.332 A  
HETATM   19  O   UNL     1     -11.702  14.441  69.492  1.00  0.00    -0.275 OA 
BRANCH  18  20
HETATM   20  C   UNL     1     -11.620  15.244  71.781  1.00  0.00    -0.427 C  
BRANCH  20  21
HETATM   21  N   UNL     1     -12.831  15.915  72.293  1.00  0.00    -0.444 NA 
HETATM   22  C   UNL     1     -14.049  15.209  71.881  1.00  0.00    -0.552 C  
HETATM   23  C   UNL     1     -12.770  15.975  73.755  1.00  0.00    -0.603 C  
ENDBRANCH  20  21
ENDBRANCH  18  20
ENDBRANCH  14  15
ENDBRANCH  13  14
ENDBRANCH  12  13
ENDBRANCH  11  12
ENDBRANCH   9  11
ENDBRANCH   4   9
ENDBRANCH   2   4
TORSDOF 9
ENDMDL
MODEL       13
REMARK 921   NORMALIZED FREE ENERGY PREDICTED BY IDOCK:   -5.30 KCAL/MOL
REMARK 922        TOTAL FREE ENERGY PREDICTED BY IDOCK:   -8.48 KCAL/MOL
REMARK 923 INTER-LIGAND FREE ENERGY PREDICTED BY IDOCK:   -7.82 KCAL/MOL
REMARK 924 INTRA-LIGAND FREE ENERGY PREDICTED BY IDOCK:   -0.66 KCAL/MOL
REMARK 927      BINDING AFFINITY PREDICTED BY RF-SCORE:    0.00 PKD
ROOT
HETATM    1  C   UNL     1     -11.709  15.032  69.026  1.00  0.00    -0.325 C  
HETATM    2  N   UNL     1     -12.278  14.348  67.888  1.00  0.00    -0.620 NA 
HETATM    3  H   UNL     1     -13.252  14.063  67.990  1.00  0.00     0.000 HD 
ENDROOT
BRANCH   2   4
HETATM    4  C   UNL     1     -11.689  14.025  66.677  1.00  0.00    -0.399 C  
HETATM    5  C   UNL     1     -12.444  14.026  65.556  1.00  0.00    -0.509 C  
HETATM    6  O   UNL     1     -10.725  13.499  64.081  1.00  0.00    -0.372 OA 
HETATM    7  N   UNL     1     -11.931  13.726  64.241  1.00  0.00    -0.433 N  
HETATM    8  O   UNL     1     -12.774  13.728  63.331  1.00  0.00    -0.795 OA 
BRANCH   4   9
HETATM    9  N   UNL     1     -10.349  13.689  66.678  1.00  0.00    -0.271 NA 
HETATM   10  H   UNL     1      -9.742  14.329  66.166  1.00  0.00     0.000 HD 
BRANCH   9  11
HETATM   11  C   UNL     1      -9.675  12.565  67.297  1.00  0.00    -0.202 C  
BRANCH  11  12
HETATM   12  C   UNL     1     -10.085  11.263  66.599  1.00  0.00    -0.214 C  
BRANCH  12  13
HETATM   13  S   UNL     1     -10.883  10.074  67.730  1.00  0.00    -0.246 SA 
BRANCH  13  14
HETATM   14  C   UNL     1     -11.097  11.139  69.194  1.00  0.00    -0.248 C  
BRANCH  14  15
HETATM   15  C   UNL     1     -11.765  10.395  70.285  1.00  0.00    -0.321 A  
HETATM   16  C   UNL     1     -13.022  10.450  70.843  1.00  0.00    -0.475 A  
HETATM   17  C   UNL     1     -13.042   9.473  71.868  1.00  0.00    -0.517 A  
HETATM   18  C   UNL     1     -11.794   8.887  71.878  1.00  0.00    -0.370 A  
HETATM   19  O   UNL     1     -11.008   9.456  70.920  1.00  0.00    -0.265 OA 
BRANCH  18  20
HETATM   20  C   UNL     1     -11.161   7.819  72.706  1.00  0.00    -0.398 C  
BRANCH  20  21
HETATM   21  N   UNL     1     -11.494   6.453  72.256  1.00  0.00    -0.286 NA 
HETATM   22  C   UNL     1     -10.826   6.127  70.992  1.00  0.00    -0.279 C  
HETATM   23  C   UNL     1     -11.090   5.492  73.286  1.00  0.00    -0.272 C  
ENDBRANCH  20  21
ENDBRANCH  18  20
ENDBRANCH  14  15
ENDBRANCH  13  14
ENDBRANCH  12  13
ENDBRANCH  11  12
ENDBRANCH   9  11
ENDBRANCH   4   9
ENDBRANCH   2   4
TORSDOF 9
ENDMDL
MODEL       14
REMARK 921   NORMALIZED FREE ENERGY PREDICTED BY IDOCK:   -5.28 KCAL/MOL
REMARK 922        TOTAL FREE ENERGY PREDICTED BY IDOCK:   -8.45 KCAL/MOL
REMARK 923 INTER-LIGAND FREE ENERGY PREDICTED BY IDOCK:   -7.71 KCAL/MOL
REMARK 924 INTRA-LIGAND FREE ENERGY PREDICTED BY IDOCK:   -0.74 KCAL/MOL
REMARK 927      BINDING AFFINITY PREDICTED BY RF-SCORE:    0.00 PKD
ROOT
HETATM    1  C   UNL     1     -10.354  16.166  65.924  1.00  0.00    -0.367 C  
HETATM    2  N   UNL     1     -11.018  14.896  66.109  1.00  0.00    -0.330 NA 
HETATM    3  H   UNL     1     -11.603  14.825  66.941  1.00  0.00     0.000 HD 
ENDROOT
BRANCH   2   4
HETATM    4  C   UNL     1     -10.970  13.761  65.317  1.00  0.00    -0.322 C  
HETATM    5  C   UNL     1     -12.076  13.384  64.639  1.00  0.00    -0.410 C  
HETATM    6  O   UNL     1     -11.118  11.556  63.568  1.00  0.00    -0.407 OA 
HETATM    7  N   UNL     1     -12.134  12.234  63.769  1.00  0.00    -0.489 N  
HETATM    8  O   UNL     1     -13.243  12.008  63.263  1.00  0.00    -0.628 OA 
BRANCH   4   9
HETATM    9  N   UNL     1      -9.787  13.047  65.278  1.00  0.00    -0.493 NA 
HETATM   10  H   UNL     1      -9.368  12.954  64.353  1.00  0.00     0.000 HD 
BRANCH   9  11
HETATM   11  C   UNL     1      -9.052  12.412  66.353  1.00  0.00    -0.149 C  
BRANCH  11  12
HETATM   12  C   UNL     1      -9.674  11.048  66.674  1.00  0.00    -0.195 C  
BRANCH  12  13
HETATM   13  S   UNL     1     -10.061  10.846  68.445  1.00  0.00    -0.191 SA 
BRANCH  13  14
HETATM   14  C   UNL     1     -11.098  12.323  68.704  1.00  0.00    -0.249 C  
BRANCH  14  15
HETATM   15  C   UNL     1     -11.895  12.189  69.943  1.00  0.00    -0.319 A  
HETATM   16  C   UNL     1     -12.423  13.093  70.837  1.00  0.00    -0.407 A  
HETATM   17  C   UNL     1     -13.084  12.327  71.828  1.00  0.00    -0.449 A  
HETATM   18  C   UNL     1     -12.913  11.003  71.482  1.00  0.00    -0.448 A  
HETATM   19  O   UNL     1     -12.178  10.915  70.337  1.00  0.00    -0.306 OA 
BRANCH  18  20
HETATM   20  C   UNL     1     -13.339   9.712  72.098  1.00  0.00    -0.454 C  
BRANCH  20  21
HETATM   21  N   UNL     1     -12.584   8.546  71.597  1.00  0.00    -0.321 NA 
HETATM   22  C   UNL     1     -11.461   8.214  72.479  1.00  0.00    -0.404 C  
HETATM   23  C   UNL     1     -13.485   7.394  71.496  1.00  0.00    -0.372 C  
ENDBRANCH  20  21
ENDBRANCH  18  20
ENDBRANCH  14  15
ENDBRANCH  13  14
ENDBRANCH  12  13
ENDBRANCH  11  12
ENDBRANCH   9  11
ENDBRANCH   4   9
ENDBRANCH   2   4
TORSDOF 9
ENDMDL
MODEL       15
REMARK 921   NORMALIZED FREE ENERGY PREDICTED BY IDOCK:   -5.26 KCAL/MOL
REMARK 922        TOTAL FREE ENERGY PREDICTED BY IDOCK:   -8.41 KCAL/MOL
REMARK 923 INTER-LIGAND FREE ENERGY PREDICTED BY IDOCK:   -7.69 KCAL/MOL
REMARK 924 INTRA-LIGAND FREE ENERGY PREDICTED BY IDOCK:   -0.72 KCAL/MOL
REMARK 927      BINDING AFFINITY PREDICTED BY RF-SCORE:    0.00 PKD
ROOT
HETATM    1  C   UNL     1     -12.811  10.998  71.494  1.00  0.00    -0.450 C  
HETATM    2  N   UNL     1     -13.398  12.249  71.918  1.00  0.00    -0.423 NA 
HETATM    3  H   UNL     1     -14.344  12.184  72.291  1.00  0.00     0.000 HD 
ENDROOT
BRANCH   2   4
HETATM    4  C   UNL     1     -12.856  13.522  71.888  1.00  0.00    -0.272 C  
HETATM    5  C   UNL     1     -13.216  14.414  72.839  1.00  0.00    -0.517 C  
HETATM    6  O   UNL     1     -11.837  16.140  72.116  1.00  0.00    -0.483 OA 
HETATM    7  N   UNL     1     -12.699  15.758  72.918  1.00  0.00    -0.423 N  
HETATM    8  O   UNL     1     -13.173  16.456  73.827  1.00  0.00    -0.662 OA 
BRANCH   4   9
HETATM    9  N   UNL     1     -11.983  13.832  70.863  1.00  0.00    -0.502 NA 
HETATM   10  H   UNL     1     -11.007  13.939  71.142  1.00  0.00     0.000 HD 
BRANCH   9  11
HETATM   11  C   UNL     1     -12.243  14.027  69.451  1.00  0.00    -0.292 C  
BRANCH  11  12
HETATM   12  C   UNL     1     -11.751  12.812  68.658  1.00  0.00    -0.324 C  
BRANCH  12  13
HETATM   13  S   UNL     1     -11.743  13.098  66.856  1.00  0.00    -0.393 SA 
BRANCH  13  14
HETATM   14  C   UNL     1      -9.948  13.249  66.577  1.00  0.00    -0.280 C  
BRANCH  14  15
HETATM   15  C   UNL     1      -9.460  14.569  67.033  1.00  0.00    -0.239 A  
HETATM   16  C   UNL     1      -8.258  15.019  67.530  1.00  0.00    -0.199 A  
HETATM   17  C   UNL     1      -8.431  16.401  67.789  1.00  0.00    -0.172 A  
HETATM   18  C   UNL     1      -9.730  16.707  67.443  1.00  0.00    -0.251 A  
HETATM   19  O   UNL     1     -10.365  15.589  66.991  1.00  0.00    -0.267 OA 
BRANCH  18  20
HETATM   20  C   UNL     1     -10.541  17.959  67.484  1.00  0.00    -0.376 C  
BRANCH  20  21
HETATM   21  N   UNL     1      -9.726  19.184  67.607  1.00  0.00    -0.311 NA 
HETATM   22  C   UNL     1     -10.011  20.128  66.522  1.00  0.00    -0.457 C  
HETATM   23  C   UNL     1     -10.002  19.821  68.897  1.00  0.00    -0.397 C  
ENDBRANCH  20  21
ENDBRANCH  18  20
ENDBRANCH  14  15
ENDBRANCH  13  14
ENDBRANCH  12  13
ENDBRANCH  11  12
ENDBRANCH   9  11
ENDBRANCH   4   9
ENDBRANCH   2   4
TORSDOF 9
ENDMDL
MODEL       16
REMARK 921   NORMALIZED FREE ENERGY PREDICTED BY IDOCK:   -5.24 KCAL/MOL
REMARK 922        TOTAL FREE ENERGY PREDICTED BY IDOCK:   -8.39 KCAL/MOL
REMARK 923 INTER-LIGAND FREE ENERGY PREDICTED BY IDOCK:   -7.17 KCAL/MOL
REMARK 924 INTRA-LIGAND FREE ENERGY PREDICTED BY IDOCK:   -1.21 KCAL/MOL
REMARK 927      BINDING AFFINITY PREDICTED BY RF-SCORE:    0.00 PKD
ROOT
HETATM    1  C   UNL     1     -11.110  16.324  64.730  1.00  0.00    -0.281 C  
HETATM    2  N   UNL     1     -10.915  15.044  65.372  1.00  0.00    -0.352 NA 
HETATM    3  H   UNL     1     -10.743  15.079  66.376  1.00  0.00     0.000 HD 
ENDROOT
BRANCH   2   4
HETATM    4  C   UNL     1     -10.928  13.776  64.815  1.00  0.00    -0.392 C  
HETATM    5  C   UNL     1     -12.035  13.355  64.163  1.00  0.00    -0.450 C  
HETATM    6  O   UNL     1     -11.187  11.290  63.514  1.00  0.00    -0.344 OA 
HETATM    7  N   UNL     1     -12.152  12.065  63.528  1.00  0.00    -0.531 N  
HETATM    8  O   UNL     1     -13.255  11.825  63.015  1.00  0.00    -0.474 OA 
BRANCH   4   9
HETATM    9  N   UNL     1      -9.806  12.986  64.975  1.00  0.00    -0.525 NA 
HETATM   10  H   UNL     1      -9.276  12.808  64.122  1.00  0.00     0.000 HD 
BRANCH   9  11
HETATM   11  C   UNL     1      -9.268  12.372  66.173  1.00  0.00    -0.101 C  
BRANCH  11  12
HETATM   12  C   UNL     1     -10.343  11.509  66.843  1.00  0.00    -0.223 C  
BRANCH  12  13
HETATM   13  S   UNL     1     -10.445  11.778  68.645  1.00  0.00    -0.207 SA 
BRANCH  13  14
HETATM   14  C   UNL     1     -11.895  12.881  68.710  1.00  0.00    -0.315 C  
BRANCH  14  15
HETATM   15  C   UNL     1     -11.508  14.221  69.204  1.00  0.00    -0.291 A  
HETATM   16  C   UNL     1     -11.796  14.932  70.347  1.00  0.00    -0.352 A  
HETATM   17  C   UNL     1     -11.121  16.170  70.220  1.00  0.00    -0.375 A  
HETATM   18  C   UNL     1     -10.470  16.142  69.006  1.00  0.00    -0.261 A  
HETATM   19  O   UNL     1     -10.713  14.957  68.377  1.00  0.00    -0.235 OA 
BRANCH  18  20
HETATM   20  C   UNL     1      -9.608  17.116  68.273  1.00  0.00    -0.280 C  
BRANCH  20  21
HETATM   21  N   UNL     1      -9.998  18.524  68.490  1.00  0.00    -0.370 NA 
HETATM   22  C   UNL     1      -8.825  19.374  68.720  1.00  0.00    -0.342 C  
HETATM   23  C   UNL     1     -10.733  19.009  67.319  1.00  0.00    -0.470 C  
ENDBRANCH  20  21
ENDBRANCH  18  20
ENDBRANCH  14  15
ENDBRANCH  13  14
ENDBRANCH  12  13
ENDBRANCH  11  12
ENDBRANCH   9  11
ENDBRANCH   4   9
ENDBRANCH   2   4
TORSDOF 9
ENDMDL
MODEL       17
REMARK 921   NORMALIZED FREE ENERGY PREDICTED BY IDOCK:   -5.22 KCAL/MOL
REMARK 922        TOTAL FREE ENERGY PREDICTED BY IDOCK:   -8.36 KCAL/MOL
REMARK 923 INTER-LIGAND FREE ENERGY PREDICTED BY IDOCK:   -7.49 KCAL/MOL
REMARK 924 INTRA-LIGAND FREE ENERGY PREDICTED BY IDOCK:   -0.86 KCAL/MOL
REMARK 927      BINDING AFFINITY PREDICTED BY RF-SCORE:    0.00 PKD
ROOT
HETATM    1  C   UNL     1     -12.893  11.862  63.329  1.00  0.00    -0.161 C  
HETATM    2  N   UNL     1     -12.760  12.930  64.294  1.00  0.00    -0.693 NA 
HETATM    3  H   UNL     1     -13.569  13.079  64.896  1.00  0.00     0.000 HD 
ENDROOT
BRANCH   2   4
HETATM    4  C   UNL     1     -11.689  13.780  64.515  1.00  0.00    -0.407 C  
HETATM    5  C   UNL     1     -11.898  15.115  64.512  1.00  0.00    -0.330 C  
HETATM    6  O   UNL     1      -9.713  15.723  65.029  1.00  0.00    -0.274 OA 
HETATM    7  N   UNL     1     -10.862  16.091  64.752  1.00  0.00    -0.399 N  
HETATM    8  O   UNL     1     -11.220  17.275  64.667  1.00  0.00    -1.014 OA 
BRANCH   4   9
HETATM    9  N   UNL     1     -10.443  13.216  64.704  1.00  0.00    -0.380 NA 
HETATM   10  H   UNL     1      -9.668  13.724  64.278  1.00  0.00     0.000 HD 
BRANCH   9  11
HETATM   11  C   UNL     1     -10.069  12.011  65.418  1.00  0.00    -0.256 C  
BRANCH  11  12
HETATM   12  C   UNL     1      -9.636  12.364  66.845  1.00  0.00    -0.219 C  
BRANCH  12  13
HETATM   13  S   UNL     1     -10.901  11.948  68.092  1.00  0.00    -0.236 SA 
BRANCH  13  14
HETATM   14  C   UNL     1     -11.857  13.500  68.089  1.00  0.00    -0.365 C  
BRANCH  14  15
HETATM   15  C   UNL     1     -10.992  14.645  68.451  1.00  0.00    -0.251 A  
HETATM   16  C   UNL     1      -9.872  14.779  69.239  1.00  0.00    -0.123 A  
HETATM   17  C   UNL     1      -9.514  16.148  69.187  1.00  0.00    -0.251 A  
HETATM   18  C   UNL     1     -10.442  16.767  68.377  1.00  0.00    -0.339 A  
HETATM   19  O   UNL     1     -11.353  15.854  67.934  1.00  0.00    -0.330 OA 
BRANCH  18  20
HETATM   20  C   UNL     1     -10.644  18.176  67.928  1.00  0.00    -0.371 C  
BRANCH  20  21
HETATM   21  N   UNL     1      -9.455  18.761  67.276  1.00  0.00    -0.297 NA 
HETATM   22  C   UNL     1      -9.824  19.856  66.373  1.00  0.00    -0.459 C  
HETATM   23  C   UNL     1      -8.538  19.261  68.304  1.00  0.00    -0.338 C  
ENDBRANCH  20  21
ENDBRANCH  18  20
ENDBRANCH  14  15
ENDBRANCH  13  14
ENDBRANCH  12  13
ENDBRANCH  11  12
ENDBRANCH   9  11
ENDBRANCH   4   9
ENDBRANCH   2   4
TORSDOF 9
ENDMDL
MODEL       18
REMARK 921   NORMALIZED FREE ENERGY PREDICTED BY IDOCK:   -5.18 KCAL/MOL
REMARK 922        TOTAL FREE ENERGY PREDICTED BY IDOCK:   -8.30 KCAL/MOL
REMARK 923 INTER-LIGAND FREE ENERGY PREDICTED BY IDOCK:   -7.65 KCAL/MOL
REMARK 924 INTRA-LIGAND FREE ENERGY PREDICTED BY IDOCK:   -0.65 KCAL/MOL
REMARK 927      BINDING AFFINITY PREDICTED BY RF-SCORE:    0.00 PKD
ROOT
HETATM    1  C   UNL     1     -11.931   8.355  71.863  1.00  0.00    -0.338 C  
HETATM    2  N   UNL     1     -12.745   9.214  71.033  1.00  0.00    -0.502 NA 
HETATM    3  H   UNL     1     -13.465   8.742  70.488  1.00  0.00     0.000 HD 
ENDROOT
BRANCH   2   4
HETATM    4  C   UNL     1     -12.684  10.588  70.874  1.00  0.00    -0.402 C  
HETATM    5  C   UNL     1     -13.282  11.384  71.788  1.00  0.00    -0.367 C  
HETATM    6  O   UNL     1     -12.632  13.406  70.840  1.00  0.00    -0.352 OA 
HETATM    7  N   UNL     1     -13.263  12.826  71.733  1.00  0.00    -0.420 N  
HETATM    8  O   UNL     1     -13.903  13.398  72.628  1.00  0.00    -0.726 OA 
BRANCH   4   9
HETATM    9  N   UNL     1     -12.029  11.083  69.763  1.00  0.00    -0.328 NA 
HETATM   10  H   UNL     1     -12.570  11.736  69.196  1.00  0.00     0.000 HD 
BRANCH   9  11
HETATM   11  C   UNL     1     -10.689  10.815  69.280  1.00  0.00    -0.229 C  
BRANCH  11  12
HETATM   12  C   UNL     1     -10.176  12.012  68.472  1.00  0.00    -0.212 C  
BRANCH  12  13
HETATM   13  S   UNL     1     -10.327  11.768  66.671  1.00  0.00    -0.224 SA 
BRANCH  13  14
HETATM   14  C   UNL     1     -11.907  12.629  66.376  1.00  0.00    -0.402 C  
BRANCH  14  15
HETATM   15  C   UNL     1     -11.676  13.921  65.691  1.00  0.00    -0.354 A  
HETATM   16  C   UNL     1     -12.085  14.444  64.486  1.00  0.00    -0.498 A  
HETATM   17  C   UNL     1     -11.516  15.739  64.405  1.00  0.00    -0.268 A  
HETATM   18  C   UNL     1     -10.789  15.922  65.561  1.00  0.00    -0.315 A  
HETATM   19  O   UNL     1     -10.875  14.810  66.344  1.00  0.00    -0.310 OA 
BRANCH  18  20
HETATM   20  C   UNL     1      -9.951  17.040  66.088  1.00  0.00    -0.298 C  
BRANCH  20  21
HETATM   21  N   UNL     1     -10.501  17.662  67.309  1.00  0.00    -0.351 NA 
HETATM   22  C   UNL     1      -9.608  17.471  68.456  1.00  0.00    -0.305 C  
HETATM   23  C   UNL     1     -10.700  19.094  67.074  1.00  0.00    -0.448 C  
ENDBRANCH  20  21
ENDBRANCH  18  20
ENDBRANCH  14  15
ENDBRANCH  13  14
ENDBRANCH  12  13
ENDBRANCH  11  12
ENDBRANCH   9  11
ENDBRANCH   4   9
ENDBRANCH   2   4
TORSDOF 9
ENDMDL
MODEL       19
REMARK 921   NORMALIZED FREE ENERGY PREDICTED BY IDOCK:   -5.17 KCAL/MOL
REMARK 922        TOTAL FREE ENERGY PREDICTED BY IDOCK:   -8.27 KCAL/MOL
REMARK 923 INTER-LIGAND FREE ENERGY PREDICTED BY IDOCK:   -7.76 KCAL/MOL
REMARK 924 INTRA-LIGAND FREE ENERGY PREDICTED BY IDOCK:   -0.51 KCAL/MOL
REMARK 927      BINDING AFFINITY PREDICTED BY RF-SCORE:    0.00 PKD
ROOT
HETATM    1  C   UNL     1     -14.186   8.170  71.706  1.00  0.00    -0.462 C  
HETATM    2  N   UNL     1     -13.080   8.885  71.111  1.00  0.00    -0.524 NA 
HETATM    3  H   UNL     1     -12.308   8.305  70.785  1.00  0.00     0.000 HD 
ENDROOT
BRANCH   2   4
HETATM    4  C   UNL     1     -12.920  10.248  70.923  1.00  0.00    -0.371 C  
HETATM    5  C   UNL     1     -13.345  11.099  71.883  1.00  0.00    -0.304 C  
HETATM    6  O   UNL     1     -12.634  13.050  70.837  1.00  0.00    -0.343 OA 
HETATM    7  N   UNL     1     -13.210  12.534  71.803  1.00  0.00    -0.414 N  
HETATM    8  O   UNL     1     -13.696  13.165  72.753  1.00  0.00    -0.630 OA 
BRANCH   4   9
HETATM    9  N   UNL     1     -12.352  10.676  69.739  1.00  0.00    -0.517 NA 
HETATM   10  H   UNL     1     -12.927  11.314  69.188  1.00  0.00     0.000 HD 
BRANCH   9  11
HETATM   11  C   UNL     1     -11.062  10.357  69.162  1.00  0.00    -0.246 C  
BRANCH  11  12
HETATM   12  C   UNL     1     -10.436  11.618  68.555  1.00  0.00    -0.217 C  
BRANCH  12  13
HETATM   13  S   UNL     1     -11.455  12.348  67.229  1.00  0.00    -0.368 SA 
BRANCH  13  14
HETATM   14  C   UNL     1     -11.589  14.057  67.850  1.00  0.00    -0.343 C  
BRANCH  14  15
HETATM   15  C   UNL     1     -10.647  14.946  67.133  1.00  0.00    -0.285 A  
HETATM   16  C   UNL     1      -9.524  14.724  66.370  1.00  0.00    -0.328 A  
HETATM   17  C   UNL     1      -9.063  16.001  65.967  1.00  0.00    -0.361 A  
HETATM   18  C   UNL     1      -9.928  16.923  66.515  1.00  0.00    -0.301 A  
HETATM   19  O   UNL     1     -10.891  16.283  67.237  1.00  0.00    -0.302 OA 
BRANCH  18  20
HETATM   20  C   UNL     1     -10.001  18.414  66.488  1.00  0.00    -0.379 C  
BRANCH  20  21
HETATM   21  N   UNL     1      -9.180  19.060  67.531  1.00  0.00    -0.285 NA 
HETATM   22  C   UNL     1      -8.345  20.128  66.971  1.00  0.00    -0.328 C  
HETATM   23  C   UNL     1     -10.059  19.616  68.563  1.00  0.00    -0.453 C  
ENDBRANCH  20  21
ENDBRANCH  18  20
ENDBRANCH  14  15
ENDBRANCH  13  14
ENDBRANCH  12  13
ENDBRANCH  11  12
ENDBRANCH   9  11
ENDBRANCH   4   9
ENDBRANCH   2   4
TORSDOF 9
ENDMDL
MODEL       20
REMARK 921   NORMALIZED FREE ENERGY PREDICTED BY IDOCK:   -5.15 KCAL/MOL
REMARK 922        TOTAL FREE ENERGY PREDICTED BY IDOCK:   -8.25 KCAL/MOL
REMARK 923 INTER-LIGAND FREE ENERGY PREDICTED BY IDOCK:   -7.34 KCAL/MOL
REMARK 924 INTRA-LIGAND FREE ENERGY PREDICTED BY IDOCK:   -0.92 KCAL/MOL
REMARK 927      BINDING AFFINITY PREDICTED BY RF-SCORE:    0.00 PKD
ROOT
HETATM    1  C   UNL     1     -12.630  11.784  63.500  1.00  0.00    -0.367 C  
HETATM    2  N   UNL     1     -12.954  12.517  64.703  1.00  0.00    -0.844 NA 
HETATM    3  H   UNL     1     -13.741  12.151  65.239  1.00  0.00     0.000 HD 
ENDROOT
BRANCH   2   4
HETATM    4  C   UNL     1     -12.349  13.645  65.230  1.00  0.00    -0.465 C  
HETATM    5  C   UNL     1     -12.124  14.708  64.426  1.00  0.00    -0.462 C  
HETATM    6  O   UNL     1     -11.224  16.091  66.065  1.00  0.00    -0.065 OA 
HETATM    7  N   UNL     1     -11.521  15.941  64.872  1.00  0.00    -0.220 N  
HETATM    8  O   UNL     1     -11.347  16.795  63.990  1.00  0.00    -1.153 OA 
BRANCH   4   9
HETATM    9  N   UNL     1     -11.977  13.620  66.561  1.00  0.00    -0.405 NA 
HETATM   10  H   UNL     1     -12.275  14.427  67.109  1.00  0.00     0.000 HD 
BRANCH   9  11
HETATM   11  C   UNL     1     -11.229  12.620  67.295  1.00  0.00    -0.298 C  
BRANCH  11  12
HETATM   12  C   UNL     1      -9.929  12.292  66.552  1.00  0.00    -0.220 C  
BRANCH  12  13
HETATM   13  S   UNL     1      -8.443  12.534  67.583  1.00  0.00    -0.184 SA 
BRANCH  13  14
HETATM   14  C   UNL     1      -8.910  14.075  68.438  1.00  0.00    -0.180 C  
BRANCH  14  15
HETATM   15  C   UNL     1      -8.119  15.215  67.925  1.00  0.00    -0.137 A  
HETATM   16  C   UNL     1      -6.827  15.349  67.470  1.00  0.00    -0.223 A  
HETATM   17  C   UNL     1      -6.670  16.713  67.124  1.00  0.00    -0.223 A  
HETATM   18  C   UNL     1      -7.873  17.329  67.395  1.00  0.00    -0.180 A  
HETATM   19  O   UNL     1      -8.757  16.420  67.895  1.00  0.00    -0.177 OA 
BRANCH  18  20
HETATM   20  C   UNL     1      -8.364  18.734  67.272  1.00  0.00    -0.268 C  
BRANCH  20  21
HETATM   21  N   UNL     1      -9.794  18.886  67.607  1.00  0.00    -0.319 NA 
HETATM   22  C   UNL     1      -9.977  19.677  68.828  1.00  0.00    -0.451 C  
HETATM   23  C   UNL     1     -10.485  19.540  66.492  1.00  0.00    -0.493 C  
ENDBRANCH  20  21
ENDBRANCH  18  20
ENDBRANCH  14  15
ENDBRANCH  13  14
ENDBRANCH  12  13
ENDBRANCH  11  12
ENDBRANCH   9  11
ENDBRANCH   4   9
ENDBRANCH   2   4
TORSDOF 9
ENDMDL
MODEL       21
REMARK 921   NORMALIZED FREE ENERGY PREDICTED BY IDOCK:   -5.14 KCAL/MOL
REMARK 922        TOTAL FREE ENERGY PREDICTED BY IDOCK:   -8.24 KCAL/MOL
REMARK 923 INTER-LIGAND FREE ENERGY PREDICTED BY IDOCK:   -7.66 KCAL/MOL
REMARK 924 INTRA-LIGAND FREE ENERGY PREDICTED BY IDOCK:   -0.57 KCAL/MOL
REMARK 927      BINDING AFFINITY PREDICTED BY RF-SCORE:    0.00 PKD
ROOT
HETATM    1  C   UNL     1     -12.753  11.727  63.456  1.00  0.00    -0.306 C  
HETATM    2  N   UNL     1     -12.940  12.490  64.669  1.00  0.00    -0.844 NA 
HETATM    3  H   UNL     1     -13.763  12.244  65.219  1.00  0.00     0.000 HD 
ENDROOT
BRANCH   2   4
HETATM    4  C   UNL     1     -12.159  13.507  65.191  1.00  0.00    -0.404 C  
HETATM    5  C   UNL     1     -12.008  14.649  64.485  1.00  0.00    -0.460 C  
HETATM    6  O   UNL     1     -10.708  15.762  66.059  1.00  0.00    -0.323 OA 
HETATM    7  N   UNL     1     -11.237  15.781  64.940  1.00  0.00    -0.386 N  
HETATM    8  O   UNL     1     -11.166  16.729  64.144  1.00  0.00    -1.155 OA 
BRANCH   4   9
HETATM    9  N   UNL     1     -11.545  13.293  66.411  1.00  0.00    -0.331 NA 
HETATM   10  H   UNL     1     -10.952  14.056  66.736  1.00  0.00     0.000 HD 
BRANCH   9  11
HETATM   11  C   UNL     1     -11.618  12.149  67.297  1.00  0.00    -0.334 C  
BRANCH  11  12
HETATM   12  C   UNL     1     -10.271  11.419  67.318  1.00  0.00    -0.199 C  
BRANCH  12  13
HETATM   13  S   UNL     1     -10.033  10.326  65.877  1.00  0.00    -0.255 SA 
BRANCH  13  14
HETATM   14  C   UNL     1      -8.992   9.038  66.637  1.00  0.00    -0.135 C  
BRANCH  14  15
HETATM   15  C   UNL     1      -9.830   8.020  67.308  1.00  0.00    -0.197 A  
HETATM   16  C   UNL     1     -10.556   6.939  66.860  1.00  0.00    -0.372 A  
HETATM   17  C   UNL     1     -11.150   6.360  68.008  1.00  0.00    -0.365 A  
HETATM   18  C   UNL     1     -10.758   7.127  69.084  1.00  0.00    -0.198 A  
HETATM   19  O   UNL     1      -9.960   8.148  68.659  1.00  0.00    -0.179 OA 
BRANCH  18  20
HETATM   20  C   UNL     1     -11.038   7.071  70.549  1.00  0.00    -0.280 C  
BRANCH  20  21
HETATM   21  N   UNL     1     -11.359   8.387  71.137  1.00  0.00    -0.261 NA 
HETATM   22  C   UNL     1     -12.553   8.318  71.985  1.00  0.00    -0.349 C  
HETATM   23  C   UNL     1     -10.219   8.853  71.931  1.00  0.00    -0.333 C  
ENDBRANCH  20  21
ENDBRANCH  18  20
ENDBRANCH  14  15
ENDBRANCH  13  14
ENDBRANCH  12  13
ENDBRANCH  11  12
ENDBRANCH   9  11
ENDBRANCH   4   9
ENDBRANCH   2   4
TORSDOF 9
ENDMDL
MODEL       22
REMARK 921   NORMALIZED FREE ENERGY PREDICTED BY IDOCK:   -5.13 KCAL/MOL
REMARK 922        TOTAL FREE ENERGY PREDICTED BY IDOCK:   -8.22 KCAL/MOL
REMARK 923 INTER-LIGAND FREE ENERGY PREDICTED BY IDOCK:   -7.59 KCAL/MOL
REMARK 924 INTRA-LIGAND FREE ENERGY PREDICTED BY IDOCK:   -0.63 KCAL/MOL
REMARK 927      BINDING AFFINITY PREDICTED BY RF-SCORE:    0.00 PKD
ROOT
HETATM    1  C   UNL     1      -9.810   9.957  69.052  1.00  0.00    -0.190 C  
HETATM    2  N   UNL     1     -10.499  10.456  70.219  1.00  0.00    -0.442 NA 
HETATM    3  H   UNL     1     -10.118  11.313  70.620  1.00  0.00     0.000 HD 
ENDROOT
BRANCH   2   4
HETATM    4  C   UNL     1     -11.604   9.935  70.872  1.00  0.00    -0.373 C  
HETATM    5  C   UNL     1     -11.714   8.595  71.013  1.00  0.00    -0.278 C  
HETATM    6  O   UNL     1     -13.693   8.622  72.233  1.00  0.00    -0.391 OA 
HETATM    7  N   UNL     1     -12.808   7.945  71.693  1.00  0.00    -0.329 N  
HETATM    8  O   UNL     1     -12.773   6.706  71.689  1.00  0.00    -0.342 OA 
BRANCH   4   9
HETATM    9  N   UNL     1     -12.563  10.818  71.329  1.00  0.00    -0.403 NA 
HETATM   10  H   UNL     1     -13.285  10.406  71.919  1.00  0.00     0.000 HD 
BRANCH   9  11
HETATM   11  C   UNL     1     -12.697  12.242  71.097  1.00  0.00    -0.243 C  
BRANCH  11  12
HETATM   12  C   UNL     1     -13.648  12.852  72.134  1.00  0.00    -0.495 C  
BRANCH  12  13
HETATM   13  S   UNL     1     -13.101  14.491  72.720  1.00  0.00    -0.507 SA 
BRANCH  13  14
HETATM   14  C   UNL     1     -13.490  15.490  71.246  1.00  0.00    -0.480 C  
BRANCH  14  15
HETATM   15  C   UNL     1     -12.296  15.635  70.385  1.00  0.00    -0.391 A  
HETATM   16  C   UNL     1     -11.054  16.201  70.568  1.00  0.00    -0.338 A  
HETATM   17  C   UNL     1     -10.355  16.019  69.350  1.00  0.00    -0.272 A  
HETATM   18  C   UNL     1     -11.214  15.361  68.497  1.00  0.00    -0.318 A  
HETATM   19  O   UNL     1     -12.404  15.134  69.122  1.00  0.00    -0.180 OA 
BRANCH  18  20
HETATM   20  C   UNL     1     -11.106  14.888  67.085  1.00  0.00    -0.332 C  
BRANCH  20  21
HETATM   21  N   UNL     1     -12.106  13.861  66.732  1.00  0.00    -0.439 NA 
HETATM   22  C   UNL     1     -12.494  13.953  65.320  1.00  0.00    -0.478 C  
HETATM   23  C   UNL     1     -11.551  12.532  67.001  1.00  0.00    -0.368 C  
ENDBRANCH  20  21
ENDBRANCH  18  20
ENDBRANCH  14  15
ENDBRANCH  13  14
ENDBRANCH  12  13
ENDBRANCH  11  12
ENDBRANCH   9  11
ENDBRANCH   4   9
ENDBRANCH   2   4
TORSDOF 9
ENDMDL
MODEL       23
REMARK 921   NORMALIZED FREE ENERGY PREDICTED BY IDOCK:   -5.11 KCAL/MOL
REMARK 922        TOTAL FREE ENERGY PREDICTED BY IDOCK:   -8.19 KCAL/MOL
REMARK 923 INTER-LIGAND FREE ENERGY PREDICTED BY IDOCK:   -7.33 KCAL/MOL
REMARK 924 INTRA-LIGAND FREE ENERGY PREDICTED BY IDOCK:   -0.86 KCAL/MOL
REMARK 927      BINDING AFFINITY PREDICTED BY RF-SCORE:    0.00 PKD
ROOT
HETATM    1  C   UNL     1     -10.284  10.848  64.834  1.00  0.00    -0.316 C  
HETATM    2  N   UNL     1     -11.080  11.981  65.247  1.00  0.00    -0.310 NA 
HETATM    3  H   UNL     1     -11.993  11.754  65.642  1.00  0.00     0.000 HD 
ENDROOT
BRANCH   2   4
HETATM    4  C   UNL     1     -10.779  13.331  65.182  1.00  0.00    -0.322 C  
HETATM    5  C   UNL     1     -11.629  14.165  64.543  1.00  0.00    -0.389 C  
HETATM    6  O   UNL     1     -10.457  16.124  64.985  1.00  0.00    -0.595 OA 
HETATM    7  N   UNL     1     -11.428  15.589  64.432  1.00  0.00    -0.334 N  
HETATM    8  O   UNL     1     -12.283  16.196  63.771  1.00  0.00    -0.934 OA 
BRANCH   4   9
HETATM    9  N   UNL     1      -9.600  13.760  65.760  1.00  0.00    -0.505 NA 
HETATM   10  H   UNL     1      -9.077  14.447  65.217  1.00  0.00     0.000 HD 
BRANCH   9  11
HETATM   11  C   UNL     1      -8.993  13.382  67.020  1.00  0.00    -0.224 C  
BRANCH  11  12
HETATM   12  C   UNL     1      -7.684  14.153  67.220  1.00  0.00    -0.108 C  
BRANCH  12  13
HETATM   13  S   UNL     1      -7.106  14.132  68.951  1.00  0.00    -0.110 SA 
BRANCH  13  14
HETATM   14  C   UNL     1      -7.227  15.909  69.337  1.00  0.00    -0.214 C  
BRANCH  14  15
HETATM   15  C   UNL     1      -8.597  16.406  69.076  1.00  0.00    -0.230 A  
HETATM   16  C   UNL     1      -9.105  17.451  68.339  1.00  0.00    -0.274 A  
HETATM   17  C   UNL     1     -10.511  17.398  68.498  1.00  0.00    -0.370 A  
HETATM   18  C   UNL     1     -10.774  16.330  69.329  1.00  0.00    -0.307 A  
HETATM   19  O   UNL     1      -9.607  15.728  69.693  1.00  0.00    -0.280 OA 
BRANCH  18  20
HETATM   20  C   UNL     1     -12.026  15.745  69.895  1.00  0.00    -0.332 C  
BRANCH  20  21
HETATM   21  N   UNL     1     -11.804  14.965  71.128  1.00  0.00    -0.319 NA 
HETATM   22  C   UNL     1     -12.098  15.760  72.325  1.00  0.00    -0.478 C  
HETATM   23  C   UNL     1     -12.658  13.775  71.108  1.00  0.00    -0.373 C  
ENDBRANCH  20  21
ENDBRANCH  18  20
ENDBRANCH  14  15
ENDBRANCH  13  14
ENDBRANCH  12  13
ENDBRANCH  11  12
ENDBRANCH   9  11
ENDBRANCH   4   9
ENDBRANCH   2   4
TORSDOF 9
ENDMDL
MODEL       24
REMARK 921   NORMALIZED FREE ENERGY PREDICTED BY IDOCK:   -5.10 KCAL/MOL
REMARK 922        TOTAL FREE ENERGY PREDICTED BY IDOCK:   -8.17 KCAL/MOL
REMARK 923 INTER-LIGAND FREE ENERGY PREDICTED BY IDOCK:   -7.54 KCAL/MOL
REMARK 924 INTRA-LIGAND FREE ENERGY PREDICTED BY IDOCK:   -0.63 KCAL/MOL
REMARK 927      BINDING AFFINITY PREDICTED BY RF-SCORE:    0.00 PKD
ROOT
HETATM    1  C   UNL     1     -11.304   8.862  71.555  1.00  0.00    -0.325 C  
HETATM    2  N   UNL     1     -12.280   9.769  70.994  1.00  0.00    -0.329 NA 
HETATM    3  H   UNL     1     -13.057   9.327  70.503  1.00  0.00     0.000 HD 
ENDROOT
BRANCH   2   4
HETATM    4  C   UNL     1     -12.308  11.153  71.028  1.00  0.00    -0.382 C  
HETATM    5  C   UNL     1     -13.186  11.774  71.847  1.00  0.00    -0.362 C  
HETATM    6  O   UNL     1     -12.510  13.945  71.360  1.00  0.00    -0.351 OA 
HETATM    7  N   UNL     1     -13.287  13.207  71.980  1.00  0.00    -0.483 N  
HETATM    8  O   UNL     1     -14.179  13.607  72.742  1.00  0.00    -0.676 OA 
BRANCH   4   9
HETATM    9  N   UNL     1     -11.446  11.840  70.195  1.00  0.00    -0.510 NA 
HETATM   10  H   UNL     1     -10.826  12.501  70.663  1.00  0.00     0.000 HD 
BRANCH   9  11
HETATM   11  C   UNL     1     -11.288  11.762  68.757  1.00  0.00    -0.267 C  
BRANCH  11  12
HETATM   12  C   UNL     1     -10.644  13.050  68.233  1.00  0.00    -0.247 C  
BRANCH  12  13
HETATM   13  S   UNL     1     -11.841  14.159  67.416  1.00  0.00    -0.408 SA 
BRANCH  13  14
HETATM   14  C   UNL     1     -10.933  14.510  65.875  1.00  0.00    -0.320 C  
BRANCH  14  15
HETATM   15  C   UNL     1     -11.121  13.413  64.899  1.00  0.00    -0.335 A  
HETATM   16  C   UNL     1     -12.127  13.085  64.019  1.00  0.00    -0.519 A  
HETATM   17  C   UNL     1     -11.707  11.903  63.363  1.00  0.00    -0.500 A  
HETATM   18  C   UNL     1     -10.475  11.577  63.888  1.00  0.00    -0.385 A  
HETATM   19  O   UNL     1     -10.119  12.491  64.834  1.00  0.00    -0.275 OA 
BRANCH  18  20
HETATM   20  C   UNL     1      -9.511  10.463  63.647  1.00  0.00    -0.306 C  
BRANCH  20  21
HETATM   21  N   UNL     1      -8.848   9.985  64.876  1.00  0.00    -0.176 NA 
HETATM   22  C   UNL     1      -9.784   9.263  65.745  1.00  0.00    -0.269 C  
HETATM   23  C   UNL     1      -7.736   9.102  64.514  1.00  0.00    -0.114 C  
ENDBRANCH  20  21
ENDBRANCH  18  20
ENDBRANCH  14  15
ENDBRANCH  13  14
ENDBRANCH  12  13
ENDBRANCH  11  12
ENDBRANCH   9  11
ENDBRANCH   4   9
ENDBRANCH   2   4
TORSDOF 9
ENDMDL
MODEL       25
REMARK 921   NORMALIZED FREE ENERGY PREDICTED BY IDOCK:   -5.09 KCAL/MOL
REMARK 922        TOTAL FREE ENERGY PREDICTED BY IDOCK:   -8.15 KCAL/MOL
REMARK 923 INTER-LIGAND FREE ENERGY PREDICTED BY IDOCK:   -7.51 KCAL/MOL
REMARK 924 INTRA-LIGAND FREE ENERGY PREDICTED BY IDOCK:   -0.64 KCAL/MOL
REMARK 927      BINDING AFFINITY PREDICTED BY RF-SCORE:    0.00 PKD
ROOT
HETATM    1  C   UNL     1      -8.388   8.143  65.154  1.00  0.00    -0.143 C  
HETATM    2  N   UNL     1      -9.057   9.368  64.780  1.00  0.00    -0.344 NA 
HETATM    3  H   UNL     1      -8.786   9.756  63.877  1.00  0.00     0.000 HD 
ENDROOT
BRANCH   2   4
HETATM    4  C   UNL     1     -10.013  10.089  65.474  1.00  0.00    -0.296 C  
HETATM    5  C   UNL     1     -10.154   9.886  66.803  1.00  0.00    -0.230 C  
HETATM    6  O   UNL     1     -11.810  11.485  67.138  1.00  0.00    -0.595 OA 
HETATM    7  N   UNL     1     -11.101  10.596  67.629  1.00  0.00    -0.314 N  
HETATM    8  O   UNL     1     -11.128  10.251  68.820  1.00  0.00    -0.231 OA 
BRANCH   4   9
HETATM    9  N   UNL     1     -10.803  10.972  64.763  1.00  0.00    -0.230 NA 
HETATM   10  H   UNL     1     -11.807  10.807  64.831  1.00  0.00     0.000 HD 
BRANCH   9  11
HETATM   11  C   UNL     1     -10.419  12.098  63.935  1.00  0.00    -0.409 C  
BRANCH  11  12
HETATM   12  C   UNL     1     -11.670  12.851  63.467  1.00  0.00    -0.512 C  
BRANCH  12  13
HETATM   13  S   UNL     1     -12.241  14.094  64.674  1.00  0.00    -0.428 SA 
BRANCH  13  14
HETATM   14  C   UNL     1     -10.634  14.621  65.356  1.00  0.00    -0.374 C  
BRANCH  14  15
HETATM   15  C   UNL     1     -10.817  15.279  66.669  1.00  0.00    -0.310 A  
HETATM   16  C   UNL     1     -10.467  16.511  67.172  1.00  0.00    -0.300 A  
HETATM   17  C   UNL     1     -10.923  16.533  68.512  1.00  0.00    -0.350 A  
HETATM   18  C   UNL     1     -11.515  15.311  68.747  1.00  0.00    -0.331 A  
HETATM   19  O   UNL     1     -11.443  14.538  67.627  1.00  0.00    -0.320 OA 
BRANCH  18  20
HETATM   20  C   UNL     1     -12.172  14.693  69.938  1.00  0.00    -0.316 C  
BRANCH  20  21
HETATM   21  N   UNL     1     -12.753  15.682  70.867  1.00  0.00    -0.463 NA 
HETATM   22  C   UNL     1     -14.054  15.238  71.377  1.00  0.00    -0.495 C  
HETATM   23  C   UNL     1     -11.833  15.892  71.988  1.00  0.00    -0.515 C  
ENDBRANCH  20  21
ENDBRANCH  18  20
ENDBRANCH  14  15
ENDBRANCH  13  14
ENDBRANCH  12  13
ENDBRANCH  11  12
ENDBRANCH   9  11
ENDBRANCH   4   9
ENDBRANCH   2   4
TORSDOF 9
ENDMDL
MODEL       26
REMARK 921   NORMALIZED FREE ENERGY PREDICTED BY IDOCK:   -5.08 KCAL/MOL
REMARK 922        TOTAL FREE ENERGY PREDICTED BY IDOCK:   -8.15 KCAL/MOL
REMARK 923 INTER-LIGAND FREE ENERGY PREDICTED BY IDOCK:   -7.58 KCAL/MOL
REMARK 924 INTRA-LIGAND FREE ENERGY PREDICTED BY IDOCK:   -0.56 KCAL/MOL
REMARK 927      BINDING AFFINITY PREDICTED BY RF-SCORE:    0.00 PKD
ROOT
HETATM    1  C   UNL     1     -13.875   8.968  72.411  1.00  0.00    -0.475 C  
HETATM    2  N   UNL     1     -13.211   8.975  71.127  1.00  0.00    -0.537 NA 
HETATM    3  H   UNL     1     -13.807   8.775  70.325  1.00  0.00     0.000 HD 
ENDROOT
BRANCH   2   4
HETATM    4  C   UNL     1     -11.879   9.216  70.833  1.00  0.00    -0.270 C  
HETATM    5  C   UNL     1     -10.932   8.850  71.725  1.00  0.00    -0.361 C  
HETATM    6  O   UNL     1      -9.102   9.503  70.447  1.00  0.00    -0.238 OA 
HETATM    7  N   UNL     1      -9.516   9.032  71.514  1.00  0.00    -0.273 N  
HETATM    8  O   UNL     1      -8.791   8.681  72.457  1.00  0.00    -0.356 OA 
BRANCH   4   9
HETATM    9  N   UNL     1     -11.583   9.848  69.641  1.00  0.00    -0.443 NA 
HETATM   10  H   UNL     1     -10.884   9.379  69.065  1.00  0.00     0.000 HD 
BRANCH   9  11
HETATM   11  C   UNL     1     -12.114  11.076  69.086  1.00  0.00    -0.263 C  
BRANCH  11  12
HETATM   12  C   UNL     1     -11.878  12.235  70.061  1.00  0.00    -0.296 C  
BRANCH  12  13
HETATM   13  S   UNL     1     -11.714  13.846  69.222  1.00  0.00    -0.354 SA 
BRANCH  13  14
HETATM   14  C   UNL     1     -12.062  13.336  67.507  1.00  0.00    -0.264 C  
BRANCH  14  15
HETATM   15  C   UNL     1     -11.565  14.350  66.551  1.00  0.00    -0.378 A  
HETATM   16  C   UNL     1     -11.629  14.480  65.182  1.00  0.00    -0.371 A  
HETATM   17  C   UNL     1     -10.948  15.681  64.868  1.00  0.00    -0.447 A  
HETATM   18  C   UNL     1     -10.503  16.206  66.062  1.00  0.00    -0.338 A  
HETATM   19  O   UNL     1     -10.868  15.391  67.091  1.00  0.00    -0.314 OA 
BRANCH  18  20
HETATM   20  C   UNL     1      -9.721  17.424  66.427  1.00  0.00    -0.290 C  
BRANCH  20  21
HETATM   21  N   UNL     1     -10.551  18.508  66.990  1.00  0.00    -0.398 NA 
HETATM   22  C   UNL     1     -10.148  18.833  68.362  1.00  0.00    -0.393 C  
HETATM   23  C   UNL     1     -10.426  19.700  66.147  1.00  0.00    -0.524 C  
ENDBRANCH  20  21
ENDBRANCH  18  20
ENDBRANCH  14  15
ENDBRANCH  13  14
ENDBRANCH  12  13
ENDBRANCH  11  12
ENDBRANCH   9  11
ENDBRANCH   4   9
ENDBRANCH   2   4
TORSDOF 9
ENDMDL
MODEL       27
REMARK 921   NORMALIZED FREE ENERGY PREDICTED BY IDOCK:   -5.08 KCAL/MOL
REMARK 922        TOTAL FREE ENERGY PREDICTED BY IDOCK:   -8.14 KCAL/MOL
REMARK 923 INTER-LIGAND FREE ENERGY PREDICTED BY IDOCK:   -7.38 KCAL/MOL
REMARK 924 INTRA-LIGAND FREE ENERGY PREDICTED BY IDOCK:   -0.76 KCAL/MOL
REMARK 927      BINDING AFFINITY PREDICTED BY RF-SCORE:    0.00 PKD
ROOT
HETATM    1  C   UNL     1     -12.659  12.195  63.439  1.00  0.00    -0.463 C  
HETATM    2  N   UNL     1     -11.253  12.528  63.416  1.00  0.00    -0.629 NA 
HETATM    3  H   UNL     1     -10.911  12.925  62.542  1.00  0.00     0.000 HD 
ENDROOT
BRANCH   2   4
HETATM    4  C   UNL     1     -10.304  12.382  64.414  1.00  0.00    -0.343 C  
HETATM    5  C   UNL     1      -9.820  11.150  64.687  1.00  0.00    -0.280 C  
HETATM    6  O   UNL     1      -8.308  11.818  66.322  1.00  0.00    -0.106 OA 
HETATM    7  N   UNL     1      -8.815  10.884  65.688  1.00  0.00    -0.189 N  
HETATM    8  O   UNL     1      -8.520   9.689  65.838  1.00  0.00    -0.123 OA 
BRANCH   4   9
HETATM    9  N   UNL     1      -9.913  13.511  65.107  1.00  0.00    -0.551 NA 
HETATM   10  H   UNL     1      -8.918  13.564  65.324  1.00  0.00     0.000 HD 
BRANCH   9  11
HETATM   11  C   UNL     1     -10.704  14.633  65.573  1.00  0.00    -0.349 C  
BRANCH  11  12
HETATM   12  C   UNL     1     -11.622  14.185  66.716  1.00  0.00    -0.391 C  
BRANCH  12  13
HETATM   13  S   UNL     1     -10.701  13.653  68.198  1.00  0.00    -0.255 SA 
BRANCH  13  14
HETATM   14  C   UNL     1     -11.630  14.558  69.479  1.00  0.00    -0.307 C  
BRANCH  14  15
HETATM   15  C   UNL     1     -12.267  13.615  70.424  1.00  0.00    -0.363 A  
HETATM   16  C   UNL     1     -12.906  13.766  71.634  1.00  0.00    -0.438 A  
HETATM   17  C   UNL     1     -13.289  12.466  72.043  1.00  0.00    -0.511 A  
HETATM   18  C   UNL     1     -12.853  11.600  71.063  1.00  0.00    -0.245 A  
HETATM   19  O   UNL     1     -12.219  12.297  70.078  1.00  0.00    -0.271 OA 
BRANCH  18  20
HETATM   20  C   UNL     1     -12.920  10.119  70.889  1.00  0.00    -0.351 C  
BRANCH  20  21
HETATM   21  N   UNL     1     -13.003   9.381  72.165  1.00  0.00    -0.411 NA 
HETATM   22  C   UNL     1     -14.268   8.647  72.278  1.00  0.00    -0.417 C  
HETATM   23  C   UNL     1     -11.882   8.441  72.254  1.00  0.00    -0.389 C  
ENDBRANCH  20  21
ENDBRANCH  18  20
ENDBRANCH  14  15
ENDBRANCH  13  14
ENDBRANCH  12  13
ENDBRANCH  11  12
ENDBRANCH   9  11
ENDBRANCH   4   9
ENDBRANCH   2   4
TORSDOF 9
ENDMDL
MODEL       28
REMARK 921   NORMALIZED FREE ENERGY PREDICTED BY IDOCK:   -5.08 KCAL/MOL
REMARK 922        TOTAL FREE ENERGY PREDICTED BY IDOCK:   -8.14 KCAL/MOL
REMARK 923 INTER-LIGAND FREE ENERGY PREDICTED BY IDOCK:   -7.40 KCAL/MOL
REMARK 924 INTRA-LIGAND FREE ENERGY PREDICTED BY IDOCK:   -0.73 KCAL/MOL
REMARK 927      BINDING AFFINITY PREDICTED BY RF-SCORE:    0.00 PKD
ROOT
HETATM    1  C   UNL     1     -12.285  10.714  70.841  1.00  0.00    -0.395 C  
HETATM    2  N   UNL     1     -11.723  11.921  70.280  1.00  0.00    -0.519 NA 
HETATM    3  H   UNL     1     -10.820  11.810  69.819  1.00  0.00     0.000 HD 
ENDROOT
BRANCH   2   4
HETATM    4  C   UNL     1     -12.236  13.207  70.279  1.00  0.00    -0.306 C  
HETATM    5  C   UNL     1     -12.862  13.666  71.386  1.00  0.00    -0.360 C  
HETATM    6  O   UNL     1     -13.285  15.806  70.579  1.00  0.00    -0.449 OA 
HETATM    7  N   UNL     1     -13.414  14.994  71.505  1.00  0.00    -0.400 N  
HETATM    8  O   UNL     1     -13.995  15.232  72.574  1.00  0.00    -0.498 OA 
BRANCH   4   9
HETATM    9  N   UNL     1     -12.104  13.957  69.127  1.00  0.00    -0.372 NA 
HETATM   10  H   UNL     1     -12.953  14.432  68.820  1.00  0.00     0.000 HD 
BRANCH   9  11
HETATM   11  C   UNL     1     -10.942  14.171  68.288  1.00  0.00    -0.251 C  
BRANCH  11  12
HETATM   12  C   UNL     1     -11.011  15.562  67.648  1.00  0.00    -0.315 C  
BRANCH  12  13
HETATM   13  S   UNL     1      -9.813  15.776  66.288  1.00  0.00    -0.323 SA 
BRANCH  13  14
HETATM   14  C   UNL     1     -10.924  15.543  64.861  1.00  0.00    -0.436 C  
BRANCH  14  15
HETATM   15  C   UNL     1     -11.099  14.103  64.568  1.00  0.00    -0.330 A  
HETATM   16  C   UNL     1     -11.989  13.391  63.795  1.00  0.00    -0.517 A  
HETATM   17  C   UNL     1     -11.630  12.029  63.936  1.00  0.00    -0.536 A  
HETATM   18  C   UNL     1     -10.550  11.992  64.792  1.00  0.00    -0.297 A  
HETATM   19  O   UNL     1     -10.230  13.256  65.188  1.00  0.00    -0.307 OA 
BRANCH  18  20
HETATM   20  C   UNL     1      -9.716  10.890  65.356  1.00  0.00    -0.238 C  
BRANCH  20  21
HETATM   21  N   UNL     1      -9.820  10.767  66.824  1.00  0.00    -0.187 NA 
HETATM   22  C   UNL     1     -10.613   9.594  67.208  1.00  0.00    -0.247 C  
HETATM   23  C   UNL     1      -8.476  10.658  67.397  1.00  0.00    -0.122 C  
ENDBRANCH  20  21
ENDBRANCH  18  20
ENDBRANCH  14  15
ENDBRANCH  13  14
ENDBRANCH  12  13
ENDBRANCH  11  12
ENDBRANCH   9  11
ENDBRANCH   4   9
ENDBRANCH   2   4
TORSDOF 9
ENDMDL
MODEL       29
REMARK 921   NORMALIZED FREE ENERGY PREDICTED BY IDOCK:   -5.05 KCAL/MOL
REMARK 922        TOTAL FREE ENERGY PREDICTED BY IDOCK:   -8.10 KCAL/MOL
REMARK 923 INTER-LIGAND FREE ENERGY PREDICTED BY IDOCK:   -7.29 KCAL/MOL
REMARK 924 INTRA-LIGAND FREE ENERGY PREDICTED BY IDOCK:   -0.82 KCAL/MOL
REMARK 927      BINDING AFFINITY PREDICTED BY RF-SCORE:    0.00 PKD
ROOT
HETATM    1  C   UNL     1     -12.378  11.597  70.939  1.00  0.00    -0.336 C  
HETATM    2  N   UNL     1     -11.221  11.290  70.130  1.00  0.00    -0.490 NA 
HETATM    3  H   UNL     1     -10.392  11.852  70.320  1.00  0.00     0.000 HD 
ENDROOT
BRANCH   2   4
HETATM    4  C   UNL     1     -11.079  10.340  69.132  1.00  0.00    -0.235 C  
HETATM    5  C   UNL     1     -10.288   9.266  69.353  1.00  0.00    -0.215 C  
HETATM    6  O   UNL     1     -10.690   8.220  67.316  1.00  0.00    -0.289 OA 
HETATM    7  N   UNL     1     -10.084   8.206  68.396  1.00  0.00    -0.195 N  
HETATM    8  O   UNL     1      -9.289   7.321  68.746  1.00  0.00    -0.144 OA 
BRANCH   4   9
HETATM    9  N   UNL     1     -11.740  10.551  67.938  1.00  0.00    -0.714 NA 
HETATM   10  H   UNL     1     -12.202   9.729  67.548  1.00  0.00     0.000 HD 
BRANCH   9  11
HETATM   11  C   UNL     1     -11.876  11.762  67.155  1.00  0.00    -0.077 C  
BRANCH  11  12
HETATM   12  C   UNL     1     -10.572  12.046  66.401  1.00  0.00    -0.243 C  
BRANCH  12  13
HETATM   13  S   UNL     1     -10.341  13.816  66.025  1.00  0.00    -0.316 SA 
BRANCH  13  14
HETATM   14  C   UNL     1     -11.847  14.493  66.797  1.00  0.00    -0.371 C  
BRANCH  14  15
HETATM   15  C   UNL     1     -11.510  15.236  68.032  1.00  0.00    -0.341 A  
HETATM   16  C   UNL     1     -10.815  16.396  68.284  1.00  0.00    -0.347 A  
HETATM   17  C   UNL     1     -10.838  16.573  69.689  1.00  0.00    -0.322 A  
HETATM   18  C   UNL     1     -11.539  15.505  70.208  1.00  0.00    -0.335 A  
HETATM   19  O   UNL     1     -11.942  14.681  69.200  1.00  0.00    -0.308 OA 
BRANCH  18  20
HETATM   20  C   UNL     1     -11.908  15.088  71.593  1.00  0.00    -0.378 C  
BRANCH  20  21
HETATM   21  N   UNL     1     -13.084  15.802  72.128  1.00  0.00    -0.455 NA 
HETATM   22  C   UNL     1     -14.319  15.041  71.906  1.00  0.00    -0.584 C  
HETATM   23  C   UNL     1     -12.900  16.030  73.563  1.00  0.00    -0.590 C  
ENDBRANCH  20  21
ENDBRANCH  18  20
ENDBRANCH  14  15
ENDBRANCH  13  14
ENDBRANCH  12  13
ENDBRANCH  11  12
ENDBRANCH   9  11
ENDBRANCH   4   9
ENDBRANCH   2   4
TORSDOF 9
ENDMDL
MODEL       30
REMARK 921   NORMALIZED FREE ENERGY PREDICTED BY IDOCK:   -5.02 KCAL/MOL
REMARK 922        TOTAL FREE ENERGY PREDICTED BY IDOCK:   -8.05 KCAL/MOL
REMARK 923 INTER-LIGAND FREE ENERGY PREDICTED BY IDOCK:   -7.30 KCAL/MOL
REMARK 924 INTRA-LIGAND FREE ENERGY PREDICTED BY IDOCK:   -0.74 KCAL/MOL
REMARK 927      BINDING AFFINITY PREDICTED BY RF-SCORE:    0.00 PKD
ROOT
HETATM    1  C   UNL     1      -9.448  16.805  67.627  1.00  0.00    -0.234 C  
HETATM    2  N   UNL     1     -10.832  16.406  67.739  1.00  0.00    -0.328 NA 
HETATM    3  H   UNL     1     -11.457  16.789  67.031  1.00  0.00     0.000 HD 
ENDROOT
BRANCH   2   4
HETATM    4  C   UNL     1     -11.429  15.577  68.674  1.00  0.00    -0.359 C  
HETATM    5  C   UNL     1     -11.198  15.792  69.988  1.00  0.00    -0.342 C  
HETATM    6  O   UNL     1     -12.588  14.104  70.779  1.00  0.00    -0.324 OA 
HETATM    7  N   UNL     1     -11.784  15.006  71.047  1.00  0.00    -0.311 N  
HETATM    8  O   UNL     1     -11.426  15.312  72.194  1.00  0.00    -0.439 OA 
BRANCH   4   9
HETATM    9  N   UNL     1     -12.221  14.543  68.211  1.00  0.00    -0.593 NA 
HETATM   10  H   UNL     1     -13.172  14.527  68.582  1.00  0.00     0.000 HD 
BRANCH   9  11
HETATM   11  C   UNL     1     -11.906  13.479  67.280  1.00  0.00    -0.385 C  
BRANCH  11  12
HETATM   12  C   UNL     1     -12.549  13.770  65.919  1.00  0.00    -0.447 C  
BRANCH  12  13
HETATM   13  S   UNL     1     -11.321  14.037  64.597  1.00  0.00    -0.368 SA 
BRANCH  13  14
HETATM   14  C   UNL     1     -11.687  12.596  63.542  1.00  0.00    -0.531 C  
BRANCH  14  15
HETATM   15  C   UNL     1     -10.673  11.537  63.739  1.00  0.00    -0.408 A  
HETATM   16  C   UNL     1      -9.759  10.929  62.908  1.00  0.00    -0.349 A  
HETATM   17  C   UNL     1      -9.077   9.977  63.703  1.00  0.00    -0.301 A  
HETATM   18  C   UNL     1      -9.622  10.055  64.967  1.00  0.00    -0.297 A  
HETATM   19  O   UNL     1     -10.605  10.999  64.990  1.00  0.00    -0.292 OA 
BRANCH  18  20
HETATM   20  C   UNL     1      -9.370   9.330  66.247  1.00  0.00    -0.200 C  
BRANCH  20  21
HETATM   21  N   UNL     1     -10.605   8.882  66.921  1.00  0.00    -0.236 NA 
HETATM   22  C   UNL     1     -10.579   7.440  67.184  1.00  0.00    -0.342 C  
HETATM   23  C   UNL     1     -10.756   9.608  68.185  1.00  0.00    -0.217 C  
ENDBRANCH  20  21
ENDBRANCH  18  20
ENDBRANCH  14  15
ENDBRANCH  13  14
ENDBRANCH  12  13
ENDBRANCH  11  12
ENDBRANCH   9  11
ENDBRANCH   4   9
ENDBRANCH   2   4
TORSDOF 9
ENDMDL
MODEL       31
REMARK 921   NORMALIZED FREE ENERGY PREDICTED BY IDOCK:   -4.99 KCAL/MOL
REMARK 922        TOTAL FREE ENERGY PREDICTED BY IDOCK:   -8.01 KCAL/MOL
REMARK 923 INTER-LIGAND FREE ENERGY PREDICTED BY IDOCK:   -7.46 KCAL/MOL
REMARK 924 INTRA-LIGAND FREE ENERGY PREDICTED BY IDOCK:   -0.55 KCAL/MOL
REMARK 927      BINDING AFFINITY PREDICTED BY RF-SCORE:    0.00 PKD
ROOT
HETATM    1  C   UNL     1     -10.474  16.521  69.449  1.00  0.00    -0.320 C  
HETATM    2  N   UNL     1     -10.528  15.300  70.221  1.00  0.00    -0.482 NA 
HETATM    3  H   UNL     1      -9.763  14.646  70.059  1.00  0.00     0.000 HD 
ENDROOT
BRANCH   2   4
HETATM    4  C   UNL     1     -11.472  14.894  71.149  1.00  0.00    -0.264 C  
HETATM    5  C   UNL     1     -11.854  15.753  72.119  1.00  0.00    -0.496 C  
HETATM    6  O   UNL     1     -13.436  14.358  73.099  1.00  0.00    -0.625 OA 
HETATM    7  N   UNL     1     -12.844  15.445  73.123  1.00  0.00    -0.441 N  
HETATM    8  O   UNL     1     -13.039  16.334  73.966  1.00  0.00    -0.687 OA 
BRANCH   4   9
HETATM    9  N   UNL     1     -11.965  13.607  71.051  1.00  0.00    -0.466 NA 
HETATM   10  H   UNL     1     -12.105  13.128  71.941  1.00  0.00     0.000 HD 
BRANCH   9  11
HETATM   11  C   UNL     1     -12.312  12.834  69.875  1.00  0.00    -0.070 C  
BRANCH  11  12
HETATM   12  C   UNL     1     -11.598  11.479  69.913  1.00  0.00    -0.308 C  
BRANCH  12  13
HETATM   13  S   UNL     1     -11.064  10.912  68.263  1.00  0.00    -0.289 SA 
BRANCH  13  14
HETATM   14  C   UNL     1     -11.482  12.390  67.281  1.00  0.00    -0.354 C  
BRANCH  14  15
HETATM   15  C   UNL     1     -11.357  12.107  65.834  1.00  0.00    -0.356 A  
HETATM   16  C   UNL     1     -12.063  12.505  64.722  1.00  0.00    -0.497 A  
HETATM   17  C   UNL     1     -11.443  11.876  63.615  1.00  0.00    -0.551 A  
HETATM   18  C   UNL     1     -10.403  11.126  64.120  1.00  0.00    -0.361 A  
HETATM   19  O   UNL     1     -10.354  11.255  65.476  1.00  0.00    -0.249 OA 
BRANCH  18  20
HETATM   20  C   UNL     1      -9.382  10.229  63.503  1.00  0.00    -0.301 C  
BRANCH  20  21
HETATM   21  N   UNL     1      -8.394   9.710  64.470  1.00  0.00    -0.156 NA 
HETATM   22  C   UNL     1      -8.393   8.244  64.501  1.00  0.00    -0.087 C  
HETATM   23  C   UNL     1      -7.060  10.194  64.106  1.00  0.00    -0.100 C  
ENDBRANCH  20  21
ENDBRANCH  18  20
ENDBRANCH  14  15
ENDBRANCH  13  14
ENDBRANCH  12  13
ENDBRANCH  11  12
ENDBRANCH   9  11
ENDBRANCH   4   9
ENDBRANCH   2   4
TORSDOF 9
ENDMDL
MODEL       32
REMARK 921   NORMALIZED FREE ENERGY PREDICTED BY IDOCK:   -4.98 KCAL/MOL
REMARK 922        TOTAL FREE ENERGY PREDICTED BY IDOCK:   -7.99 KCAL/MOL
REMARK 923 INTER-LIGAND FREE ENERGY PREDICTED BY IDOCK:   -7.31 KCAL/MOL
REMARK 924 INTRA-LIGAND FREE ENERGY PREDICTED BY IDOCK:   -0.68 KCAL/MOL
REMARK 927      BINDING AFFINITY PREDICTED BY RF-SCORE:    0.00 PKD
ROOT
HETATM    1  C   UNL     1      -5.612  19.130  64.429  1.00  0.00    -0.273 C  
HETATM    2  N   UNL     1      -6.903  19.485  64.975  1.00  0.00    -0.409 NA 
HETATM    3  H   UNL     1      -7.623  19.704  64.287  1.00  0.00     0.000 HD 
ENDROOT
BRANCH   2   4
HETATM    4  C   UNL     1      -7.299  19.569  66.298  1.00  0.00    -0.268 C  
HETATM    5  C   UNL     1      -6.536  18.991  67.253  1.00  0.00    -0.188 C  
HETATM    6  O   UNL     1      -7.822  19.672  69.066  1.00  0.00    -0.342 OA 
HETATM    7  N   UNL     1      -6.840  19.035  68.662  1.00  0.00    -0.269 N  
HETATM    8  O   UNL     1      -6.056  18.412  69.393  1.00  0.00    -0.240 OA 
BRANCH   4   9
HETATM    9  N   UNL     1      -8.481  20.227  66.580  1.00  0.00    -0.492 NA 
HETATM   10  H   UNL     1      -8.395  21.017  67.219  1.00  0.00     0.000 HD 
BRANCH   9  11
HETATM   11  C   UNL     1      -9.824  19.963  66.105  1.00  0.00    -0.458 C  
BRANCH  11  12
HETATM   12  C   UNL     1     -10.578  19.102  67.124  1.00  0.00    -0.470 C  
BRANCH  12  13
HETATM   13  S   UNL     1     -10.191  17.325  66.975  1.00  0.00    -0.319 SA 
BRANCH  13  14
HETATM   14  C   UNL     1     -11.035  16.701  68.466  1.00  0.00    -0.339 C  
BRANCH  14  15
HETATM   15  C   UNL     1     -11.435  15.288  68.283  1.00  0.00    -0.347 A  
HETATM   16  C   UNL     1     -11.675  14.248  69.152  1.00  0.00    -0.360 A  
HETATM   17  C   UNL     1     -12.018  13.134  68.348  1.00  0.00    -0.324 A  
HETATM   18  C   UNL     1     -11.959  13.560  67.038  1.00  0.00    -0.394 A  
HETATM   19  O   UNL     1     -11.592  14.872  66.995  1.00  0.00    -0.362 OA 
BRANCH  18  20
HETATM   20  C   UNL     1     -12.188  12.891  65.724  1.00  0.00    -0.439 C  
BRANCH  20  21
HETATM   21  N   UNL     1     -10.998  12.890  64.850  1.00  0.00    -0.290 NA 
HETATM   22  C   UNL     1      -9.946  12.016  65.380  1.00  0.00    -0.253 C  
HETATM   23  C   UNL     1     -11.382  12.438  63.510  1.00  0.00    -0.476 C  
ENDBRANCH  20  21
ENDBRANCH  18  20
ENDBRANCH  14  15
ENDBRANCH  13  14
ENDBRANCH  12  13
ENDBRANCH  11  12
ENDBRANCH   9  11
ENDBRANCH   4   9
ENDBRANCH   2   4
TORSDOF 9
ENDMDL
MODEL       33
REMARK 921   NORMALIZED FREE ENERGY PREDICTED BY IDOCK:   -4.98 KCAL/MOL
REMARK 922        TOTAL FREE ENERGY PREDICTED BY IDOCK:   -7.99 KCAL/MOL
REMARK 923 INTER-LIGAND FREE ENERGY PREDICTED BY IDOCK:   -7.38 KCAL/MOL
REMARK 924 INTRA-LIGAND FREE ENERGY PREDICTED BY IDOCK:   -0.62 KCAL/MOL
REMARK 927      BINDING AFFINITY PREDICTED BY RF-SCORE:    0.00 PKD
ROOT
HETATM    1  C   UNL     1     -10.699  15.794  69.497  1.00  0.00    -0.278 C  
HETATM    2  N   UNL     1     -10.271  15.332  68.196  1.00  0.00    -0.228 NA 
HETATM    3  H   UNL     1      -9.584  14.579  68.203  1.00  0.00     0.000 HD 
ENDROOT
BRANCH   2   4
HETATM    4  C   UNL     1     -10.661  15.768  66.942  1.00  0.00    -0.299 C  
HETATM    5  C   UNL     1     -10.541  17.079  66.633  1.00  0.00    -0.182 C  
HETATM    6  O   UNL     1     -11.291  16.902  64.439  1.00  0.00    -1.133 OA 
HETATM    7  N   UNL     1     -10.896  17.640  65.352  1.00  0.00    -0.115 N  
HETATM    8  O   UNL     1     -10.765  18.869  65.257  1.00  0.00    -0.517 OA 
BRANCH   4   9
HETATM    9  N   UNL     1     -11.183  14.837  66.065  1.00  0.00    -0.341 NA 
HETATM   10  H   UNL     1     -11.021  15.033  65.077  1.00  0.00     0.000 HD 
BRANCH   9  11
HETATM   11  C   UNL     1     -11.927  13.623  66.336  1.00  0.00    -0.426 C  
BRANCH  11  12
HETATM   12  C   UNL     1     -11.031  12.401  66.110  1.00  0.00    -0.286 C  
BRANCH  12  13
HETATM   13  S   UNL     1     -11.272  11.102  67.368  1.00  0.00    -0.251 SA 
BRANCH  13  14
HETATM   14  C   UNL     1     -11.734  12.139  68.795  1.00  0.00    -0.321 C  
BRANCH  14  15
HETATM   15  C   UNL     1     -12.006  11.299  69.982  1.00  0.00    -0.368 A  
HETATM   16  C   UNL     1     -12.951  11.342  70.982  1.00  0.00    -0.304 A  
HETATM   17  C   UNL     1     -12.670  10.249  71.837  1.00  0.00    -0.478 A  
HETATM   18  C   UNL     1     -11.566   9.611  71.312  1.00  0.00    -0.393 A  
HETATM   19  O   UNL     1     -11.151  10.256  70.186  1.00  0.00    -0.276 OA 
BRANCH  18  20
HETATM   20  C   UNL     1     -10.766   8.422  71.728  1.00  0.00    -0.285 C  
BRANCH  20  21
HETATM   21  N   UNL     1     -11.542   7.165  71.736  1.00  0.00    -0.269 NA 
HETATM   22  C   UNL     1     -11.742   6.652  70.377  1.00  0.00    -0.386 C  
HETATM   23  C   UNL     1     -10.834   6.165  72.539  1.00  0.00    -0.240 C  
ENDBRANCH  20  21
ENDBRANCH  18  20
ENDBRANCH  14  15
ENDBRANCH  13  14
ENDBRANCH  12  13
ENDBRANCH  11  12
ENDBRANCH   9  11
ENDBRANCH   4   9
ENDBRANCH   2   4
TORSDOF 9
ENDMDL
MODEL       34
REMARK 921   NORMALIZED FREE ENERGY PREDICTED BY IDOCK:   -4.98 KCAL/MOL
REMARK 922        TOTAL FREE ENERGY PREDICTED BY IDOCK:   -7.99 KCAL/MOL
REMARK 923 INTER-LIGAND FREE ENERGY PREDICTED BY IDOCK:   -7.43 KCAL/MOL
REMARK 924 INTRA-LIGAND FREE ENERGY PREDICTED BY IDOCK:   -0.55 KCAL/MOL
REMARK 927      BINDING AFFINITY PREDICTED BY RF-SCORE:    0.00 PKD
ROOT
HETATM    1  C   UNL     1     -11.019   6.174  68.663  1.00  0.00    -0.336 C  
HETATM    2  N   UNL     1     -11.856   6.633  69.748  1.00  0.00    -0.654 NA 
HETATM    3  H   UNL     1     -12.788   6.949  69.479  1.00  0.00     0.000 HD 
ENDROOT
BRANCH   2   4
HETATM    4  C   UNL     1     -11.573   6.704  71.101  1.00  0.00    -0.332 C  
HETATM    5  C   UNL     1     -10.307   6.483  71.521  1.00  0.00    -0.211 C  
HETATM    6  O   UNL     1     -10.706   6.878  73.778  1.00  0.00    -0.347 OA 
HETATM    7  N   UNL     1      -9.894   6.553  72.902  1.00  0.00    -0.161 N  
HETATM    8  O   UNL     1      -8.704   6.276  73.114  1.00  0.00    -0.124 OA 
BRANCH   4   9
HETATM    9  N   UNL     1     -12.613   6.975  71.969  1.00  0.00    -0.504 NA 
HETATM   10  H   UNL     1     -12.521   6.565  72.898  1.00  0.00     0.000 HD 
BRANCH   9  11
HETATM   11  C   UNL     1     -13.816   7.756  71.758  1.00  0.00    -0.357 C  
BRANCH  11  12
HETATM   12  C   UNL     1     -13.628   9.167  72.324  1.00  0.00    -0.489 C  
BRANCH  12  13
HETATM   13  S   UNL     1     -12.785  10.291  71.159  1.00  0.00    -0.434 SA 
BRANCH  13  14
HETATM   14  C   UNL     1     -13.160  11.890  71.950  1.00  0.00    -0.369 C  
BRANCH  14  15
HETATM   15  C   UNL     1     -12.734  13.012  71.084  1.00  0.00    -0.283 A  
HETATM   16  C   UNL     1     -12.769  14.382  71.216  1.00  0.00    -0.414 A  
HETATM   17  C   UNL     1     -12.210  14.906  70.025  1.00  0.00    -0.381 A  
HETATM   18  C   UNL     1     -11.877  13.826  69.237  1.00  0.00    -0.344 A  
HETATM   19  O   UNL     1     -12.205  12.667  69.876  1.00  0.00    -0.258 OA 
BRANCH  18  20
HETATM   20  C   UNL     1     -11.273  13.685  67.879  1.00  0.00    -0.274 C  
BRANCH  20  21
HETATM   21  N   UNL     1     -11.819  14.638  66.892  1.00  0.00    -0.364 NA 
HETATM   22  C   UNL     1     -10.775  15.527  66.372  1.00  0.00    -0.303 C  
HETATM   23  C   UNL     1     -12.426  13.894  65.786  1.00  0.00    -0.495 C  
ENDBRANCH  20  21
ENDBRANCH  18  20
ENDBRANCH  14  15
ENDBRANCH  13  14
ENDBRANCH  12  13
ENDBRANCH  11  12
ENDBRANCH   9  11
ENDBRANCH   4   9
ENDBRANCH   2   4
TORSDOF 9
ENDMDL
MODEL       35
REMARK 921   NORMALIZED FREE ENERGY PREDICTED BY IDOCK:   -4.97 KCAL/MOL
REMARK 922        TOTAL FREE ENERGY PREDICTED BY IDOCK:   -7.98 KCAL/MOL
REMARK 923 INTER-LIGAND FREE ENERGY PREDICTED BY IDOCK:   -7.25 KCAL/MOL
REMARK 924 INTRA-LIGAND FREE ENERGY PREDICTED BY IDOCK:   -0.73 KCAL/MOL
REMARK 927      BINDING AFFINITY PREDICTED BY RF-SCORE:    0.00 PKD
ROOT
HETATM    1  C   UNL     1     -11.753  11.820  68.555  1.00  0.00    -0.330 C  
HETATM    2  N   UNL     1     -11.045  12.545  67.524  1.00  0.00    -0.254 NA 
HETATM    3  H   UNL     1     -10.255  13.103  67.846  1.00  0.00     0.000 HD 
ENDROOT
BRANCH   2   4
HETATM    4  C   UNL     1     -11.289  12.588  66.162  1.00  0.00    -0.343 C  
HETATM    5  C   UNL     1     -11.843  13.699  65.627  1.00  0.00    -0.364 C  
HETATM    6  O   UNL     1     -11.802  12.975  63.418  1.00  0.00    -0.524 OA 
HETATM    7  N   UNL     1     -12.120  13.862  64.221  1.00  0.00    -0.448 N  
HETATM    8  O   UNL     1     -12.673  14.928  63.910  1.00  0.00    -0.789 OA 
BRANCH   4   9
HETATM    9  N   UNL     1     -10.974  11.472  65.411  1.00  0.00    -0.260 NA 
HETATM   10  H   UNL     1     -11.772  10.979  65.012  1.00  0.00     0.000 HD 
BRANCH   9  11
HETATM   11  C   UNL     1      -9.680  10.895  65.106  1.00  0.00    -0.262 C  
BRANCH  11  12
HETATM   12  C   UNL     1      -9.676   9.405  65.464  1.00  0.00    -0.230 C  
BRANCH  12  13
HETATM   13  S   UNL     1      -9.324   9.100  67.228  1.00  0.00    -0.138 SA 
BRANCH  13  14
HETATM   14  C   UNL     1      -9.931   7.388  67.371  1.00  0.00    -0.183 C  
BRANCH  14  15
HETATM   15  C   UNL     1     -10.533   7.158  68.703  1.00  0.00    -0.197 A  
HETATM   16  C   UNL     1     -10.935   6.032  69.384  1.00  0.00    -0.455 A  
HETATM   17  C   UNL     1     -11.441   6.483  70.627  1.00  0.00    -0.433 A  
HETATM   18  C   UNL     1     -11.324   7.856  70.626  1.00  0.00    -0.259 A  
HETATM   19  O   UNL     1     -10.780   8.273  69.448  1.00  0.00    -0.221 OA 
BRANCH  18  20
HETATM   20  C   UNL     1     -11.677   8.924  71.607  1.00  0.00    -0.341 C  
BRANCH  20  21
HETATM   21  N   UNL     1     -13.053   9.435  71.448  1.00  0.00    -0.351 NA 
HETATM   22  C   UNL     1     -14.001   8.695  72.288  1.00  0.00    -0.409 C  
HETATM   23  C   UNL     1     -13.086  10.856  71.808  1.00  0.00    -0.459 C  
ENDBRANCH  20  21
ENDBRANCH  18  20
ENDBRANCH  14  15
ENDBRANCH  13  14
ENDBRANCH  12  13
ENDBRANCH  11  12
ENDBRANCH   9  11
ENDBRANCH   4   9
ENDBRANCH   2   4
TORSDOF 9
ENDMDL
MODEL       36
REMARK 921   NORMALIZED FREE ENERGY PREDICTED BY IDOCK:   -4.96 KCAL/MOL
REMARK 922        TOTAL FREE ENERGY PREDICTED BY IDOCK:   -7.95 KCAL/MOL
REMARK 923 INTER-LIGAND FREE ENERGY PREDICTED BY IDOCK:   -7.67 KCAL/MOL
REMARK 924 INTRA-LIGAND FREE ENERGY PREDICTED BY IDOCK:   -0.29 KCAL/MOL
REMARK 927      BINDING AFFINITY PREDICTED BY RF-SCORE:    0.00 PKD
ROOT
HETATM    1  C   UNL     1      -9.873  16.807  66.083  1.00  0.00    -0.309 C  
HETATM    2  N   UNL     1     -10.635  15.831  66.830  1.00  0.00    -0.310 NA 
HETATM    3  H   UNL     1     -10.511  15.859  67.841  1.00  0.00     0.000 HD 
ENDROOT
BRANCH   2   4
HETATM    4  C   UNL     1     -11.509  14.863  66.365  1.00  0.00    -0.280 C  
HETATM    5  C   UNL     1     -11.623  14.664  65.033  1.00  0.00    -0.385 C  
HETATM    6  O   UNL     1     -13.136  12.902  65.159  1.00  0.00    -0.753 OA 
HETATM    7  N   UNL     1     -12.485  13.671  64.439  1.00  0.00    -0.311 N  
HETATM    8  O   UNL     1     -12.502  13.657  63.199  1.00  0.00    -0.786 OA 
BRANCH   4   9
HETATM    9  N   UNL     1     -12.247  14.156  67.294  1.00  0.00    -0.573 NA 
HETATM   10  H   UNL     1     -13.145  13.807  66.959  1.00  0.00     0.000 HD 
BRANCH   9  11
HETATM   11  C   UNL     1     -11.939  13.836  68.673  1.00  0.00    -0.366 C  
BRANCH  11  12
HETATM   12  C   UNL     1     -10.825  12.784  68.728  1.00  0.00    -0.234 C  
BRANCH  12  13
HETATM   13  S   UNL     1     -11.463  11.085  68.918  1.00  0.00    -0.323 SA 
BRANCH  13  14
HETATM   14  C   UNL     1     -12.280  11.244  70.540  1.00  0.00    -0.383 C  
BRANCH  14  15
HETATM   15  C   UNL     1     -12.138   9.993  71.318  1.00  0.00    -0.394 A  
HETATM   16  C   UNL     1     -13.037   9.116  71.882  1.00  0.00    -0.478 A  
HETATM   17  C   UNL     1     -12.264   8.108  72.507  1.00  0.00    -0.335 A  
HETATM   18  C   UNL     1     -10.942   8.434  72.293  1.00  0.00    -0.361 A  
HETATM   19  O   UNL     1     -10.861   9.591  71.577  1.00  0.00    -0.355 OA 
BRANCH  18  20
HETATM   20  C   UNL     1      -9.647   7.809  72.690  1.00  0.00    -0.202 C  
BRANCH  20  21
HETATM   21  N   UNL     1      -8.466   8.595  72.282  1.00  0.00    -0.372 NA 
HETATM   22  C   UNL     1      -7.327   8.354  73.175  1.00  0.00    -0.056 C  
HETATM   23  C   UNL     1      -8.097   8.236  70.910  1.00  0.00    -0.102 C  
ENDBRANCH  20  21
ENDBRANCH  18  20
ENDBRANCH  14  15
ENDBRANCH  13  14
ENDBRANCH  12  13
ENDBRANCH  11  12
ENDBRANCH   9  11
ENDBRANCH   4   9
ENDBRANCH   2   4
TORSDOF 9
ENDMDL
MODEL       37
REMARK 921   NORMALIZED FREE ENERGY PREDICTED BY IDOCK:   -4.95 KCAL/MOL
REMARK 922        TOTAL FREE ENERGY PREDICTED BY IDOCK:   -7.95 KCAL/MOL
REMARK 923 INTER-LIGAND FREE ENERGY PREDICTED BY IDOCK:   -7.43 KCAL/MOL
REMARK 924 INTRA-LIGAND FREE ENERGY PREDICTED BY IDOCK:   -0.52 KCAL/MOL
REMARK 927      BINDING AFFINITY PREDICTED BY RF-SCORE:    0.00 PKD
ROOT
HETATM    1  C   UNL     1     -10.038  17.650  68.526  1.00  0.00    -0.375 C  
HETATM    2  N   UNL     1     -10.287  16.564  69.446  1.00  0.00    -0.301 NA 
HETATM    3  H   UNL     1      -9.456  16.116  69.829  1.00  0.00     0.000 HD 
ENDROOT
BRANCH   2   4
HETATM    4  C   UNL     1     -11.495  16.046  69.881  1.00  0.00    -0.326 C  
HETATM    5  C   UNL     1     -11.851  16.202  71.175  1.00  0.00    -0.366 C  
HETATM    6  O   UNL     1     -13.931  15.177  71.002  1.00  0.00    -0.402 OA 
HETATM    7  N   UNL     1     -13.094  15.724  71.732  1.00  0.00    -0.460 N  
HETATM    8  O   UNL     1     -13.237  15.913  72.949  1.00  0.00    -0.483 OA 
BRANCH   4   9
HETATM    9  N   UNL     1     -12.276  15.366  68.966  1.00  0.00    -0.610 NA 
HETATM   10  H   UNL     1     -13.272  15.585  68.998  1.00  0.00     0.000 HD 
BRANCH   9  11
HETATM   11  C   UNL     1     -11.894  14.388  67.967  1.00  0.00    -0.325 C  
BRANCH  11  12
HETATM   12  C   UNL     1     -11.118  13.244  68.628  1.00  0.00    -0.268 C  
BRANCH  12  13
HETATM   13  S   UNL     1     -12.019  12.491  70.025  1.00  0.00    -0.227 SA 
BRANCH  13  14
HETATM   14  C   UNL     1     -11.703  10.729  69.680  1.00  0.00    -0.323 C  
BRANCH  14  15
HETATM   15  C   UNL     1     -12.284   9.879  70.743  1.00  0.00    -0.291 A  
HETATM   16  C   UNL     1     -13.253  10.081  71.700  1.00  0.00    -0.518 A  
HETATM   17  C   UNL     1     -13.348   8.869  72.425  1.00  0.00    -0.488 A  
HETATM   18  C   UNL     1     -12.427   8.005  71.873  1.00  0.00    -0.330 A  
HETATM   19  O   UNL     1     -11.767   8.622  70.853  1.00  0.00    -0.282 OA 
BRANCH  18  20
HETATM   20  C   UNL     1     -12.018   6.601  72.174  1.00  0.00    -0.280 C  
BRANCH  20  21
HETATM   21  N   UNL     1     -10.576   6.456  72.455  1.00  0.00    -0.206 NA 
HETATM   22  C   UNL     1     -10.239   6.955  73.793  1.00  0.00    -0.363 C  
HETATM   23  C   UNL     1     -10.202   5.044  72.350  1.00  0.00    -0.201 C  
ENDBRANCH  20  21
ENDBRANCH  18  20
ENDBRANCH  14  15
ENDBRANCH  13  14
ENDBRANCH  12  13
ENDBRANCH  11  12
ENDBRANCH   9  11
ENDBRANCH   4   9
ENDBRANCH   2   4
TORSDOF 9
ENDMDL
MODEL       38
REMARK 921   NORMALIZED FREE ENERGY PREDICTED BY IDOCK:   -4.95 KCAL/MOL
REMARK 922        TOTAL FREE ENERGY PREDICTED BY IDOCK:   -7.94 KCAL/MOL
REMARK 923 INTER-LIGAND FREE ENERGY PREDICTED BY IDOCK:   -6.21 KCAL/MOL
REMARK 924 INTRA-LIGAND FREE ENERGY PREDICTED BY IDOCK:   -1.73 KCAL/MOL
REMARK 927      BINDING AFFINITY PREDICTED BY RF-SCORE:    0.00 PKD
ROOT
HETATM    1  C   UNL     1      -7.249  14.325  67.552  1.00  0.00    -0.176 C  
HETATM    2  N   UNL     1      -8.355  13.649  66.914  1.00  0.00    -0.411 NA 
HETATM    3  H   UNL     1      -8.598  13.988  65.983  1.00  0.00     0.000 HD 
ENDROOT
BRANCH   2   4
HETATM    4  C   UNL     1      -9.133  12.606  67.388  1.00  0.00    -0.191 C  
HETATM    5  C   UNL     1     -10.215  12.885  68.148  1.00  0.00    -0.239 C  
HETATM    6  O   UNL     1     -10.933  10.687  68.399  1.00  0.00    -0.214 OA 
HETATM    7  N   UNL     1     -11.107  11.881  68.676  1.00  0.00    -0.228 N  
HETATM    8  O   UNL     1     -12.024  12.311  69.393  1.00  0.00    -0.297 OA 
BRANCH   4   9
HETATM    9  N   UNL     1      -8.746  11.316  67.078  1.00  0.00    -0.147 NA 
HETATM   10  H   UNL     1      -9.358  10.583  67.437  1.00  0.00     0.000 HD 
BRANCH   9  11
HETATM   11  C   UNL     1      -7.603  10.848  66.321  1.00  0.00    -0.136 C  
BRANCH  11  12
HETATM   12  C   UNL     1      -8.075  10.199  65.015  1.00  0.00    -0.149 C  
BRANCH  12  13
HETATM   13  S   UNL     1      -9.892  10.108  64.884  1.00  0.00    -0.269 SA 
BRANCH  13  14
HETATM   14  C   UNL     1     -10.182  11.451  63.686  1.00  0.00    -0.397 C  
BRANCH  14  15
HETATM   15  C   UNL     1     -11.004  12.521  64.293  1.00  0.00    -0.360 A  
HETATM   16  C   UNL     1     -12.288  12.570  64.785  1.00  0.00    -0.544 A  
HETATM   17  C   UNL     1     -12.491  13.901  65.226  1.00  0.00    -0.504 A  
HETATM   18  C   UNL     1     -11.321  14.583  64.969  1.00  0.00    -0.377 A  
HETATM   19  O   UNL     1     -10.415  13.747  64.389  1.00  0.00    -0.422 OA 
BRANCH  18  20
HETATM   20  C   UNL     1     -10.884  15.996  65.174  1.00  0.00    -0.395 C  
BRANCH  20  21
HETATM   21  N   UNL     1     -10.040  16.181  66.371  1.00  0.00    -0.291 NA 
HETATM   22  C   UNL     1      -9.123  17.314  66.211  1.00  0.00    -0.215 C  
HETATM   23  C   UNL     1     -10.898  16.406  67.538  1.00  0.00    -0.249 C  
ENDBRANCH  20  21
ENDBRANCH  18  20
ENDBRANCH  14  15
ENDBRANCH  13  14
ENDBRANCH  12  13
ENDBRANCH  11  12
ENDBRANCH   9  11
ENDBRANCH   4   9
ENDBRANCH   2   4
TORSDOF 9
ENDMDL
MODEL       39
REMARK 921   NORMALIZED FREE ENERGY PREDICTED BY IDOCK:   -4.95 KCAL/MOL
REMARK 922        TOTAL FREE ENERGY PREDICTED BY IDOCK:   -7.94 KCAL/MOL
REMARK 923 INTER-LIGAND FREE ENERGY PREDICTED BY IDOCK:   -7.53 KCAL/MOL
REMARK 924 INTRA-LIGAND FREE ENERGY PREDICTED BY IDOCK:   -0.41 KCAL/MOL
REMARK 927      BINDING AFFINITY PREDICTED BY RF-SCORE:    0.00 PKD
ROOT
HETATM    1  C   UNL     1     -10.543  16.474  69.387  1.00  0.00    -0.329 C  
HETATM    2  N   UNL     1     -10.699  15.177  70.006  1.00  0.00    -0.370 NA 
HETATM    3  H   UNL     1     -10.023  14.470  69.719  1.00  0.00     0.000 HD 
ENDROOT
BRANCH   2   4
HETATM    4  C   UNL     1     -11.638  14.759  70.934  1.00  0.00    -0.266 C  
HETATM    5  C   UNL     1     -12.153  15.659  71.801  1.00  0.00    -0.431 C  
HETATM    6  O   UNL     1     -13.624  14.198  72.853  1.00  0.00    -0.651 OA 
HETATM    7  N   UNL     1     -13.151  15.340  72.793  1.00  0.00    -0.415 N  
HETATM    8  O   UNL     1     -13.477  16.278  73.537  1.00  0.00    -0.654 OA 
BRANCH   4   9
HETATM    9  N   UNL     1     -11.989  13.423  70.944  1.00  0.00    -0.480 NA 
HETATM   10  H   UNL     1     -12.006  12.987  71.866  1.00  0.00     0.000 HD 
BRANCH   9  11
HETATM   11  C   UNL     1     -12.336  12.547  69.844  1.00  0.00    -0.050 C  
BRANCH  11  12
HETATM   12  C   UNL     1     -12.223  11.084  70.286  1.00  0.00    -0.363 C  
BRANCH  12  13
HETATM   13  S   UNL     1     -10.561  10.385  70.008  1.00  0.00    -0.162 SA 
BRANCH  13  14
HETATM   14  C   UNL     1     -10.824   9.604  68.382  1.00  0.00    -0.167 C  
BRANCH  14  15
HETATM   15  C   UNL     1     -10.611  10.583  67.293  1.00  0.00    -0.264 A  
HETATM   16  C   UNL     1      -9.497  11.209  66.782  1.00  0.00    -0.203 A  
HETATM   17  C   UNL     1      -9.960  12.047  65.739  1.00  0.00    -0.266 A  
HETATM   18  C   UNL     1     -11.328  11.888  65.683  1.00  0.00    -0.284 A  
HETATM   19  O   UNL     1     -11.730  11.003  66.638  1.00  0.00    -0.201 OA 
BRANCH  18  20
HETATM   20  C   UNL     1     -12.403  12.482  64.835  1.00  0.00    -0.470 C  
BRANCH  20  21
HETATM   21  N   UNL     1     -12.790  13.846  65.247  1.00  0.00    -0.749 NA 
HETATM   22  C   UNL     1     -12.175  14.213  66.527  1.00  0.00    -0.433 C  
HETATM   23  C   UNL     1     -12.378  14.799  64.214  1.00  0.00    -0.320 C  
ENDBRANCH  20  21
ENDBRANCH  18  20
ENDBRANCH  14  15
ENDBRANCH  13  14
ENDBRANCH  12  13
ENDBRANCH  11  12
ENDBRANCH   9  11
ENDBRANCH   4   9
ENDBRANCH   2   4
TORSDOF 9
ENDMDL
MODEL       40
REMARK 921   NORMALIZED FREE ENERGY PREDICTED BY IDOCK:   -4.94 KCAL/MOL
REMARK 922        TOTAL FREE ENERGY PREDICTED BY IDOCK:   -7.93 KCAL/MOL
REMARK 923 INTER-LIGAND FREE ENERGY PREDICTED BY IDOCK:   -7.41 KCAL/MOL
REMARK 924 INTRA-LIGAND FREE ENERGY PREDICTED BY IDOCK:   -0.52 KCAL/MOL
REMARK 927      BINDING AFFINITY PREDICTED BY RF-SCORE:    0.00 PKD
ROOT
HETATM    1  C   UNL     1     -11.172   6.264  68.921  1.00  0.00    -0.309 C  
HETATM    2  N   UNL     1     -11.896   6.868  70.017  1.00  0.00    -0.629 NA 
HETATM    3  H   UNL     1     -12.795   7.282  69.772  1.00  0.00     0.000 HD 
ENDROOT
BRANCH   2   4
HETATM    4  C   UNL     1     -11.540   6.965  71.351  1.00  0.00    -0.299 C  
HETATM    5  C   UNL     1     -10.617   6.112  71.850  1.00  0.00    -0.220 C  
HETATM    6  O   UNL     1     -10.568   7.004  73.997  1.00  0.00    -0.341 OA 
HETATM    7  N   UNL     1     -10.155   6.136  73.217  1.00  0.00    -0.185 N  
HETATM    8  O   UNL     1      -9.340   5.251  73.516  1.00  0.00    -0.133 OA 
BRANCH   4   9
HETATM    9  N   UNL     1     -12.170   7.922  72.123  1.00  0.00    -0.369 NA 
HETATM   10  H   UNL     1     -11.774   8.058  73.053  1.00  0.00     0.000 HD 
BRANCH   9  11
HETATM   11  C   UNL     1     -13.308   8.762  71.810  1.00  0.00    -0.378 C  
BRANCH  11  12
HETATM   12  C   UNL     1     -12.887  10.235  71.820  1.00  0.00    -0.460 C  
BRANCH  12  13
HETATM   13  S   UNL     1     -11.875  10.694  70.373  1.00  0.00    -0.374 SA 
BRANCH  13  14
HETATM   14  C   UNL     1     -12.145  12.497  70.368  1.00  0.00    -0.297 C  
BRANCH  14  15
HETATM   15  C   UNL     1     -11.938  13.050  69.011  1.00  0.00    -0.267 A  
HETATM   16  C   UNL     1     -11.775  14.325  68.519  1.00  0.00    -0.376 A  
HETATM   17  C   UNL     1     -11.625  14.189  67.117  1.00  0.00    -0.400 A  
HETATM   18  C   UNL     1     -11.714  12.842  66.839  1.00  0.00    -0.382 A  
HETATM   19  O   UNL     1     -11.916  12.144  67.992  1.00  0.00    -0.465 OA 
BRANCH  18  20
HETATM   20  C   UNL     1     -11.654  12.041  65.581  1.00  0.00    -0.296 C  
BRANCH  20  21
HETATM   21  N   UNL     1     -11.011  12.755  64.460  1.00  0.00    -0.321 NA 
HETATM   22  C   UNL     1     -10.041  11.901  63.768  1.00  0.00    -0.398 C  
HETATM   23  C   UNL     1     -12.040  13.196  63.514  1.00  0.00    -0.514 C  
ENDBRANCH  20  21
ENDBRANCH  18  20
ENDBRANCH  14  15
ENDBRANCH  13  14
ENDBRANCH  12  13
ENDBRANCH  11  12
ENDBRANCH   9  11
ENDBRANCH   4   9
ENDBRANCH   2   4
TORSDOF 9
ENDMDL
MODEL       41
REMARK 921   NORMALIZED FREE ENERGY PREDICTED BY IDOCK:   -4.93 KCAL/MOL
REMARK 922        TOTAL FREE ENERGY PREDICTED BY IDOCK:   -7.91 KCAL/MOL
REMARK 923 INTER-LIGAND FREE ENERGY PREDICTED BY IDOCK:   -7.43 KCAL/MOL
REMARK 924 INTRA-LIGAND FREE ENERGY PREDICTED BY IDOCK:   -0.48 KCAL/MOL
REMARK 927      BINDING AFFINITY PREDICTED BY RF-SCORE:    0.00 PKD
ROOT
HETATM    1  C   UNL     1     -11.238  16.115  68.768  1.00  0.00    -0.365 C  
HETATM    2  N   UNL     1     -11.802  14.784  68.792  1.00  0.00    -0.420 NA 
HETATM    3  H   UNL     1     -12.169  14.481  69.694  1.00  0.00     0.000 HD 
ENDROOT
BRANCH   2   4
HETATM    4  C   UNL     1     -11.912  13.862  67.765  1.00  0.00    -0.355 C  
HETATM    5  C   UNL     1     -12.212  14.296  66.521  1.00  0.00    -0.391 C  
HETATM    6  O   UNL     1     -12.103  12.217  65.484  1.00  0.00    -0.523 OA 
HETATM    7  N   UNL     1     -12.331  13.429  65.373  1.00  0.00    -0.449 N  
HETATM    8  O   UNL     1     -12.658  13.990  64.317  1.00  0.00    -0.670 OA 
BRANCH   4   9
HETATM    9  N   UNL     1     -11.732  12.527  68.070  1.00  0.00    -0.346 NA 
HETATM   10  H   UNL     1     -11.918  11.879  67.305  1.00  0.00     0.000 HD 
BRANCH   9  11
HETATM   11  C   UNL     1     -11.318  11.908  69.313  1.00  0.00    -0.277 C  
BRANCH  11  12
HETATM   12  C   UNL     1     -12.317  10.815  69.709  1.00  0.00    -0.236 C  
BRANCH  12  13
HETATM   13  S   UNL     1     -12.832  10.924  71.456  1.00  0.00    -0.436 SA 
BRANCH  13  14
HETATM   14  C   UNL     1     -13.747   9.354  71.605  1.00  0.00    -0.321 C  
BRANCH  14  15
HETATM   15  C   UNL     1     -12.811   8.218  71.758  1.00  0.00    -0.338 A  
HETATM   16  C   UNL     1     -12.697   6.991  71.146  1.00  0.00    -0.361 A  
HETATM   17  C   UNL     1     -11.586   6.352  71.748  1.00  0.00    -0.367 A  
HETATM   18  C   UNL     1     -11.095   7.225  72.696  1.00  0.00    -0.313 A  
HETATM   19  O   UNL     1     -11.848   8.361  72.712  1.00  0.00    -0.371 OA 
BRANCH  18  20
HETATM   20  C   UNL     1      -9.968   7.162  73.672  1.00  0.00    -0.325 C  
BRANCH  20  21
HETATM   21  N   UNL     1      -8.838   8.045  73.322  1.00  0.00    -0.243 NA 
HETATM   22  C   UNL     1      -7.967   8.285  74.477  1.00  0.00    -0.218 C  
HETATM   23  C   UNL     1      -8.061   7.431  72.242  1.00  0.00    -0.101 C  
ENDBRANCH  20  21
ENDBRANCH  18  20
ENDBRANCH  14  15
ENDBRANCH  13  14
ENDBRANCH  12  13
ENDBRANCH  11  12
ENDBRANCH   9  11
ENDBRANCH   4   9
ENDBRANCH   2   4
TORSDOF 9
ENDMDL
MODEL       42
REMARK 921   NORMALIZED FREE ENERGY PREDICTED BY IDOCK:   -4.92 KCAL/MOL
REMARK 922        TOTAL FREE ENERGY PREDICTED BY IDOCK:   -7.89 KCAL/MOL
REMARK 923 INTER-LIGAND FREE ENERGY PREDICTED BY IDOCK:   -7.32 KCAL/MOL
REMARK 924 INTRA-LIGAND FREE ENERGY PREDICTED BY IDOCK:   -0.57 KCAL/MOL
REMARK 927      BINDING AFFINITY PREDICTED BY RF-SCORE:    0.00 PKD
ROOT
HETATM    1  C   UNL     1      -9.369  10.993  62.905  1.00  0.00    -0.361 C  
HETATM    2  N   UNL     1     -10.794  11.126  63.102  1.00  0.00    -0.820 NA 
HETATM    3  H   UNL     1     -11.375  10.517  62.526  1.00  0.00     0.000 HD 
ENDROOT
BRANCH   2   4
HETATM    4  C   UNL     1     -11.484  11.964  63.962  1.00  0.00    -0.398 C  
HETATM    5  C   UNL     1     -11.800  13.213  63.552  1.00  0.00    -0.476 C  
HETATM    6  O   UNL     1     -12.958  13.834  65.471  1.00  0.00    -0.651 OA 
HETATM    7  N   UNL     1     -12.534  14.162  64.354  1.00  0.00    -0.353 N  
HETATM    8  O   UNL     1     -12.697  15.278  63.839  1.00  0.00    -0.732 OA 
BRANCH   4   9
HETATM    9  N   UNL     1     -11.796  11.487  65.221  1.00  0.00    -0.042 NA 
HETATM   10  H   UNL     1     -12.792  11.378  65.408  1.00  0.00     0.000 HD 
BRANCH   9  11
HETATM   11  C   UNL     1     -10.921  11.118  66.315  1.00  0.00    -0.163 C  
BRANCH  11  12
HETATM   12  C   UNL     1      -9.799  12.153  66.457  1.00  0.00    -0.218 C  
BRANCH  12  13
HETATM   13  S   UNL     1      -9.512  12.654  68.188  1.00  0.00    -0.209 SA 
BRANCH  13  14
HETATM   14  C   UNL     1     -10.553  14.150  68.252  1.00  0.00    -0.251 C  
BRANCH  14  15
HETATM   15  C   UNL     1      -9.875  15.284  67.587  1.00  0.00    -0.217 A  
HETATM   16  C   UNL     1      -9.729  15.667  66.273  1.00  0.00    -0.328 A  
HETATM   17  C   UNL     1      -8.957  16.854  66.292  1.00  0.00    -0.305 A  
HETATM   18  C   UNL     1      -8.672  17.118  67.615  1.00  0.00    -0.213 A  
HETATM   19  O   UNL     1      -9.221  16.155  68.407  1.00  0.00    -0.193 OA 
BRANCH  18  20
HETATM   20  C   UNL     1      -7.900  18.189  68.311  1.00  0.00    -0.293 C  
BRANCH  20  21
HETATM   21  N   UNL     1      -8.637  19.463  68.427  1.00  0.00    -0.351 NA 
HETATM   22  C   UNL     1      -8.432  20.310  67.247  1.00  0.00    -0.347 C  
HETATM   23  C   UNL     1     -10.066  19.182  68.586  1.00  0.00    -0.398 C  
ENDBRANCH  20  21
ENDBRANCH  18  20
ENDBRANCH  14  15
ENDBRANCH  13  14
ENDBRANCH  12  13
ENDBRANCH  11  12
ENDBRANCH   9  11
ENDBRANCH   4   9
ENDBRANCH   2   4
TORSDOF 9
ENDMDL
MODEL       43
REMARK 921   NORMALIZED FREE ENERGY PREDICTED BY IDOCK:   -4.91 KCAL/MOL
REMARK 922        TOTAL FREE ENERGY PREDICTED BY IDOCK:   -7.88 KCAL/MOL
REMARK 923 INTER-LIGAND FREE ENERGY PREDICTED BY IDOCK:   -7.83 KCAL/MOL
REMARK 924 INTRA-LIGAND FREE ENERGY PREDICTED BY IDOCK:   -0.06 KCAL/MOL
REMARK 927      BINDING AFFINITY PREDICTED BY RF-SCORE:    0.00 PKD
ROOT
HETATM    1  C   UNL     1     -12.292  10.842  71.178  1.00  0.00    -0.393 C  
HETATM    2  N   UNL     1     -13.080  11.951  71.667  1.00  0.00    -0.407 NA 
HETATM    3  H   UNL     1     -13.973  11.701  72.090  1.00  0.00     0.000 HD 
ENDROOT
BRANCH   2   4
HETATM    4  C   UNL     1     -12.793  13.305  71.640  1.00  0.00    -0.302 C  
HETATM    5  C   UNL     1     -13.433  14.131  72.497  1.00  0.00    -0.534 C  
HETATM    6  O   UNL     1     -12.331  16.077  71.859  1.00  0.00    -0.447 OA 
HETATM    7  N   UNL     1     -13.197  15.553  72.572  1.00  0.00    -0.430 N  
HETATM    8  O   UNL     1     -13.906  16.165  73.385  1.00  0.00    -0.558 OA 
BRANCH   4   9
HETATM    9  N   UNL     1     -11.875  13.755  70.710  1.00  0.00    -0.519 NA 
HETATM   10  H   UNL     1     -10.952  13.974  71.084  1.00  0.00     0.000 HD 
BRANCH   9  11
HETATM   11  C   UNL     1     -12.025  13.963  69.284  1.00  0.00    -0.357 C  
BRANCH  11  12
HETATM   12  C   UNL     1     -10.666  14.294  68.659  1.00  0.00    -0.249 C  
BRANCH  12  13
HETATM   13  S   UNL     1     -10.747  15.681  67.477  1.00  0.00    -0.304 SA 
BRANCH  13  14
HETATM   14  C   UNL     1     -10.860  17.075  68.646  1.00  0.00    -0.284 C  
BRANCH  14  15
HETATM   15  C   UNL     1     -10.294  18.304  68.047  1.00  0.00    -0.391 A  
HETATM   16  C   UNL     1     -10.777  19.239  67.160  1.00  0.00    -0.584 A  
HETATM   17  C   UNL     1      -9.737  20.182  66.977  1.00  0.00    -0.574 A  
HETATM   18  C   UNL     1      -8.681  19.761  67.756  1.00  0.00    -0.325 A  
HETATM   19  O   UNL     1      -9.013  18.608  68.402  1.00  0.00    -0.311 OA 
BRANCH  18  20
HETATM   20  C   UNL     1      -7.305  20.285  68.001  1.00  0.00    -0.250 C  
BRANCH  20  21
HETATM   21  N   UNL     1      -6.238  19.376  67.538  1.00  0.00    -0.194 NA 
HETATM   22  C   UNL     1      -6.066  18.242  68.453  1.00  0.00    -0.193 C  
HETATM   23  C   UNL     1      -6.573  18.880  66.201  1.00  0.00    -0.219 C  
ENDBRANCH  20  21
ENDBRANCH  18  20
ENDBRANCH  14  15
ENDBRANCH  13  14
ENDBRANCH  12  13
ENDBRANCH  11  12
ENDBRANCH   9  11
ENDBRANCH   4   9
ENDBRANCH   2   4
TORSDOF 9
ENDMDL
MODEL       44
REMARK 921   NORMALIZED FREE ENERGY PREDICTED BY IDOCK:   -4.90 KCAL/MOL
REMARK 922        TOTAL FREE ENERGY PREDICTED BY IDOCK:   -7.87 KCAL/MOL
REMARK 923 INTER-LIGAND FREE ENERGY PREDICTED BY IDOCK:   -7.44 KCAL/MOL
REMARK 924 INTRA-LIGAND FREE ENERGY PREDICTED BY IDOCK:   -0.43 KCAL/MOL
REMARK 927      BINDING AFFINITY PREDICTED BY RF-SCORE:    0.00 PKD
ROOT
HETATM    1  C   UNL     1     -13.022  10.677  71.512  1.00  0.00    -0.461 C  
HETATM    2  N   UNL     1     -12.161  11.683  70.933  1.00  0.00    -0.384 NA 
HETATM    3  H   UNL     1     -11.257  11.347  70.601  1.00  0.00     0.000 HD 
ENDROOT
BRANCH   2   4
HETATM    4  C   UNL     1     -12.389  13.038  70.766  1.00  0.00    -0.310 C  
HETATM    5  C   UNL     1     -13.216  13.677  71.623  1.00  0.00    -0.367 C  
HETATM    6  O   UNL     1     -12.952  15.799  70.709  1.00  0.00    -0.479 OA 
HETATM    7  N   UNL     1     -13.509  15.089  71.557  1.00  0.00    -0.400 N  
HETATM    8  O   UNL     1     -14.325  15.500  72.394  1.00  0.00    -0.558 OA 
BRANCH   4   9
HETATM    9  N   UNL     1     -11.774  13.673  69.704  1.00  0.00    -0.309 NA 
HETATM   10  H   UNL     1     -11.669  14.682  69.804  1.00  0.00     0.000 HD 
BRANCH   9  11
HETATM   11  C   UNL     1     -11.255  13.121  68.469  1.00  0.00    -0.272 C  
BRANCH  11  12
HETATM   12  C   UNL     1     -12.001  13.725  67.274  1.00  0.00    -0.401 C  
BRANCH  12  13
HETATM   13  S   UNL     1     -11.851  12.716  65.761  1.00  0.00    -0.445 SA 
BRANCH  13  14
HETATM   14  C   UNL     1     -10.367  13.479  65.028  1.00  0.00    -0.362 C  
BRANCH  14  15
HETATM   15  C   UNL     1     -10.319  14.926  65.336  1.00  0.00    -0.388 A  
HETATM   16  C   UNL     1     -11.082  16.005  64.953  1.00  0.00    -0.381 A  
HETATM   17  C   UNL     1     -10.515  17.135  65.591  1.00  0.00    -0.208 A  
HETATM   18  C   UNL     1      -9.437  16.677  66.318  1.00  0.00    -0.293 A  
HETATM   19  O   UNL     1      -9.307  15.330  66.156  1.00  0.00    -0.290 OA 
BRANCH  18  20
HETATM   20  C   UNL     1      -8.422  17.341  67.189  1.00  0.00    -0.205 C  
BRANCH  20  21
HETATM   21  N   UNL     1      -8.931  17.672  68.535  1.00  0.00    -0.289 NA 
HETATM   22  C   UNL     1      -9.756  18.884  68.512  1.00  0.00    -0.387 C  
HETATM   23  C   UNL     1      -9.723  16.549  69.043  1.00  0.00    -0.258 C  
ENDBRANCH  20  21
ENDBRANCH  18  20
ENDBRANCH  14  15
ENDBRANCH  13  14
ENDBRANCH  12  13
ENDBRANCH  11  12
ENDBRANCH   9  11
ENDBRANCH   4   9
ENDBRANCH   2   4
TORSDOF 9
ENDMDL
MODEL       45
REMARK 921   NORMALIZED FREE ENERGY PREDICTED BY IDOCK:   -4.90 KCAL/MOL
REMARK 922        TOTAL FREE ENERGY PREDICTED BY IDOCK:   -7.86 KCAL/MOL
REMARK 923 INTER-LIGAND FREE ENERGY PREDICTED BY IDOCK:   -7.21 KCAL/MOL
REMARK 924 INTRA-LIGAND FREE ENERGY PREDICTED BY IDOCK:   -0.65 KCAL/MOL
REMARK 927      BINDING AFFINITY PREDICTED BY RF-SCORE:    0.00 PKD
ROOT
HETATM    1  C   UNL     1     -14.203  15.424  72.159  1.00  0.00    -0.565 C  
HETATM    2  N   UNL     1     -13.201  15.026  71.195  1.00  0.00    -0.404 NA 
HETATM    3  H   UNL     1     -12.824  15.779  70.620  1.00  0.00     0.000 HD 
ENDROOT
BRANCH   2   4
HETATM    4  C   UNL     1     -12.683  13.768  70.942  1.00  0.00    -0.323 C  
HETATM    5  C   UNL     1     -13.194  12.701  71.596  1.00  0.00    -0.298 C  
HETATM    6  O   UNL     1     -11.880  11.095  70.548  1.00  0.00    -0.337 OA 
HETATM    7  N   UNL     1     -12.747  11.344  71.396  1.00  0.00    -0.403 N  
HETATM    8  O   UNL     1     -13.294  10.494  72.114  1.00  0.00    -0.437 OA 
BRANCH   4   9
HETATM    9  N   UNL     1     -11.640  13.665  70.042  1.00  0.00    -0.471 NA 
HETATM   10  H   UNL     1     -10.742  13.400  70.447  1.00  0.00     0.000 HD 
BRANCH   9  11
HETATM   11  C   UNL     1     -11.629  13.877  68.609  1.00  0.00    -0.328 C  
BRANCH  11  12
HETATM   12  C   UNL     1     -10.752  15.087  68.268  1.00  0.00    -0.253 C  
BRANCH  12  13
HETATM   13  S   UNL     1     -10.034  14.993  66.593  1.00  0.00    -0.267 SA 
BRANCH  13  14
HETATM   14  C   UNL     1     -11.532  14.576  65.640  1.00  0.00    -0.341 C  
BRANCH  14  15
HETATM   15  C   UNL     1     -11.360  13.284  64.940  1.00  0.00    -0.316 A  
HETATM   16  C   UNL     1     -11.778  12.799  63.722  1.00  0.00    -0.562 A  
HETATM   17  C   UNL     1     -11.290  11.472  63.637  1.00  0.00    -0.412 A  
HETATM   18  C   UNL     1     -10.612  11.226  64.812  1.00  0.00    -0.312 A  
HETATM   19  O   UNL     1     -10.661  12.326  65.614  1.00  0.00    -0.253 OA 
BRANCH  18  20
HETATM   20  C   UNL     1      -9.885  10.041  65.356  1.00  0.00    -0.314 C  
BRANCH  20  21
HETATM   21  N   UNL     1     -10.200   9.758  66.770  1.00  0.00    -0.232 NA 
HETATM   22  C   UNL     1     -10.584   8.356  66.963  1.00  0.00    -0.246 C  
HETATM   23  C   UNL     1      -9.029  10.064  67.596  1.00  0.00    -0.131 C  
ENDBRANCH  20  21
ENDBRANCH  18  20
ENDBRANCH  14  15
ENDBRANCH  13  14
ENDBRANCH  12  13
ENDBRANCH  11  12
ENDBRANCH   9  11
ENDBRANCH   4   9
ENDBRANCH   2   4
TORSDOF 9
ENDMDL
MODEL       46
REMARK 921   NORMALIZED FREE ENERGY PREDICTED BY IDOCK:   -4.89 KCAL/MOL
REMARK 922        TOTAL FREE ENERGY PREDICTED BY IDOCK:   -7.86 KCAL/MOL
REMARK 923 INTER-LIGAND FREE ENERGY PREDICTED BY IDOCK:   -7.48 KCAL/MOL
REMARK 924 INTRA-LIGAND FREE ENERGY PREDICTED BY IDOCK:   -0.37 KCAL/MOL
REMARK 927      BINDING AFFINITY PREDICTED BY RF-SCORE:    0.00 PKD
ROOT
HETATM    1  C   UNL     1     -10.443   4.404  74.335  1.00  0.00    -0.260 C  
HETATM    2  N   UNL     1     -11.085   5.587  73.809  1.00  0.00    -0.410 NA 
HETATM    3  H   UNL     1     -11.403   6.259  74.507  1.00  0.00     0.000 HD 
ENDROOT
BRANCH   2   4
HETATM    4  C   UNL     1     -11.329   5.937  72.492  1.00  0.00    -0.304 C  
HETATM    5  C   UNL     1     -10.658   5.301  71.506  1.00  0.00    -0.184 C  
HETATM    6  O   UNL     1     -11.702   6.387  69.735  1.00  0.00    -0.414 OA 
HETATM    7  N   UNL     1     -10.848   5.568  70.101  1.00  0.00    -0.284 N  
HETATM    8  O   UNL     1     -10.115   4.925  69.336  1.00  0.00    -0.218 OA 
BRANCH   4   9
HETATM    9  N   UNL     1     -12.239   6.948  72.248  1.00  0.00    -0.505 NA 
HETATM   10  H   UNL     1     -13.142   6.640  71.888  1.00  0.00     0.000 HD 
BRANCH   9  11
HETATM   11  C   UNL     1     -12.104   8.380  72.427  1.00  0.00    -0.378 C  
BRANCH  11  12
HETATM   12  C   UNL     1     -13.120   9.113  71.545  1.00  0.00    -0.349 C  
BRANCH  12  13
HETATM   13  S   UNL     1     -12.496  10.712  70.924  1.00  0.00    -0.432 SA 
BRANCH  13  14
HETATM   14  C   UNL     1     -13.346  11.841  72.076  1.00  0.00    -0.312 C  
BRANCH  14  15
HETATM   15  C   UNL     1     -13.204  13.244  71.628  1.00  0.00    -0.359 A  
HETATM   16  C   UNL     1     -13.696  14.444  72.089  1.00  0.00    -0.557 A  
HETATM   17  C   UNL     1     -13.198  15.438  71.212  1.00  0.00    -0.585 A  
HETATM   18  C   UNL     1     -12.440  14.783  70.265  1.00  0.00    -0.340 A  
HETATM   19  O   UNL     1     -12.450  13.442  70.509  1.00  0.00    -0.323 OA 
BRANCH  18  20
HETATM   20  C   UNL     1     -11.664  15.233  69.072  1.00  0.00    -0.347 C  
BRANCH  20  21
HETATM   21  N   UNL     1     -10.597  16.201  69.396  1.00  0.00    -0.276 NA 
HETATM   22  C   UNL     1      -9.278  15.561  69.411  1.00  0.00    -0.280 C  
HETATM   23  C   UNL     1     -10.607  17.281  68.405  1.00  0.00    -0.368 C  
ENDBRANCH  20  21
ENDBRANCH  18  20
ENDBRANCH  14  15
ENDBRANCH  13  14
ENDBRANCH  12  13
ENDBRANCH  11  12
ENDBRANCH   9  11
ENDBRANCH   4   9
ENDBRANCH   2   4
TORSDOF 9
ENDMDL
MODEL       47
REMARK 921   NORMALIZED FREE ENERGY PREDICTED BY IDOCK:   -4.88 KCAL/MOL
REMARK 922        TOTAL FREE ENERGY PREDICTED BY IDOCK:   -7.84 KCAL/MOL
REMARK 923 INTER-LIGAND FREE ENERGY PREDICTED BY IDOCK:   -7.29 KCAL/MOL
REMARK 924 INTRA-LIGAND FREE ENERGY PREDICTED BY IDOCK:   -0.55 KCAL/MOL
REMARK 927      BINDING AFFINITY PREDICTED BY RF-SCORE:    0.00 PKD
ROOT
HETATM    1  C   UNL     1     -12.777  15.372  70.866  1.00  0.00    -0.461 C  
HETATM    2  N   UNL     1     -12.653  15.294  69.428  1.00  0.00    -0.599 NA 
HETATM    3  H   UNL     1     -13.419  14.823  68.948  1.00  0.00     0.000 HD 
ENDROOT
BRANCH   2   4
HETATM    4  C   UNL     1     -11.641  15.767  68.611  1.00  0.00    -0.386 C  
HETATM    5  C   UNL     1     -11.010  16.915  68.943  1.00  0.00    -0.207 C  
HETATM    6  O   UNL     1      -9.492  16.900  67.181  1.00  0.00    -0.230 OA 
HETATM    7  N   UNL     1      -9.928  17.489  68.179  1.00  0.00    -0.303 N  
HETATM    8  O   UNL     1      -9.496  18.571  68.603  1.00  0.00    -0.333 OA 
BRANCH   4   9
HETATM    9  N   UNL     1     -11.339  15.049  67.471  1.00  0.00    -0.331 NA 
HETATM   10  H   UNL     1     -11.597  15.500  66.593  1.00  0.00     0.000 HD 
BRANCH   9  11
HETATM   11  C   UNL     1     -10.711  13.750  67.333  1.00  0.00    -0.275 C  
BRANCH  11  12
HETATM   12  C   UNL     1     -11.783  12.667  67.169  1.00  0.00    -0.371 C  
BRANCH  12  13
HETATM   13  S   UNL     1     -11.441  11.175  68.161  1.00  0.00    -0.289 SA 
BRANCH  13  14
HETATM   14  C   UNL     1     -11.744  11.840  69.831  1.00  0.00    -0.323 C  
BRANCH  14  15
HETATM   15  C   UNL     1     -12.246  10.778  70.731  1.00  0.00    -0.381 A  
HETATM   16  C   UNL     1     -13.209  10.741  71.713  1.00  0.00    -0.523 A  
HETATM   17  C   UNL     1     -13.210   9.417  72.215  1.00  0.00    -0.528 A  
HETATM   18  C   UNL     1     -12.242   8.729  71.514  1.00  0.00    -0.327 A  
HETATM   19  O   UNL     1     -11.644   9.560  70.614  1.00  0.00    -0.267 OA 
BRANCH  18  20
HETATM   20  C   UNL     1     -11.735   7.326  71.560  1.00  0.00    -0.289 C  
BRANCH  20  21
HETATM   21  N   UNL     1     -11.408   6.864  72.923  1.00  0.00    -0.211 NA 
HETATM   22  C   UNL     1     -11.203   5.413  72.962  1.00  0.00    -0.311 C  
HETATM   23  C   UNL     1     -10.195   7.544  73.387  1.00  0.00    -0.343 C  
ENDBRANCH  20  21
ENDBRANCH  18  20
ENDBRANCH  14  15
ENDBRANCH  13  14
ENDBRANCH  12  13
ENDBRANCH  11  12
ENDBRANCH   9  11
ENDBRANCH   4   9
ENDBRANCH   2   4
TORSDOF 9
ENDMDL
MODEL       48
REMARK 921   NORMALIZED FREE ENERGY PREDICTED BY IDOCK:   -4.88 KCAL/MOL
REMARK 922        TOTAL FREE ENERGY PREDICTED BY IDOCK:   -7.84 KCAL/MOL
REMARK 923 INTER-LIGAND FREE ENERGY PREDICTED BY IDOCK:   -7.16 KCAL/MOL
REMARK 924 INTRA-LIGAND FREE ENERGY PREDICTED BY IDOCK:   -0.68 KCAL/MOL
REMARK 927      BINDING AFFINITY PREDICTED BY RF-SCORE:    0.00 PKD
ROOT
HETATM    1  C   UNL     1     -14.035   8.603  71.969  1.00  0.00    -0.446 C  
HETATM    2  N   UNL     1     -13.323   7.923  70.910  1.00  0.00    -0.477 NA 
HETATM    3  H   UNL     1     -13.607   8.170  69.963  1.00  0.00     0.000 HD 
ENDROOT
BRANCH   2   4
HETATM    4  C   UNL     1     -12.311   6.983  71.002  1.00  0.00    -0.356 C  
HETATM    5  C   UNL     1     -12.063   6.396  72.194  1.00  0.00    -0.268 C  
HETATM    6  O   UNL     1     -10.380   4.977  71.443  1.00  0.00    -0.209 OA 
HETATM    7  N   UNL     1     -11.050   5.389  72.399  1.00  0.00    -0.246 N  
HETATM    8  O   UNL     1     -10.927   4.992  73.568  1.00  0.00    -0.285 OA 
BRANCH   4   9
HETATM    9  N   UNL     1     -11.579   6.706  69.863  1.00  0.00    -0.592 NA 
HETATM   10  H   UNL     1     -11.617   5.736  69.549  1.00  0.00     0.000 HD 
BRANCH   9  11
HETATM   11  C   UNL     1     -10.765   7.585  69.048  1.00  0.00    -0.134 C  
BRANCH  11  12
HETATM   12  C   UNL     1      -9.959   8.530  69.945  1.00  0.00    -0.189 C  
BRANCH  12  13
HETATM   13  S   UNL     1      -9.803  10.209  69.247  1.00  0.00    -0.230 SA 
BRANCH  13  14
HETATM   14  C   UNL     1     -11.534  10.762  69.389  1.00  0.00    -0.295 C  
BRANCH  14  15
HETATM   15  C   UNL     1     -11.664  12.176  68.969  1.00  0.00    -0.322 A  
HETATM   16  C   UNL     1     -11.425  12.844  67.790  1.00  0.00    -0.369 A  
HETATM   17  C   UNL     1     -11.742  14.202  68.036  1.00  0.00    -0.394 A  
HETATM   18  C   UNL     1     -12.146  14.281  69.351  1.00  0.00    -0.318 A  
HETATM   19  O   UNL     1     -12.090  13.047  69.928  1.00  0.00    -0.313 OA 
BRANCH  18  20
HETATM   20  C   UNL     1     -12.593  15.403  70.228  1.00  0.00    -0.336 C  
BRANCH  20  21
HETATM   21  N   UNL     1     -12.775  15.008  71.639  1.00  0.00    -0.317 NA 
HETATM   22  C   UNL     1     -11.858  15.737  72.522  1.00  0.00    -0.499 C  
HETATM   23  C   UNL     1     -14.158  15.275  72.042  1.00  0.00    -0.562 C  
ENDBRANCH  20  21
ENDBRANCH  18  20
ENDBRANCH  14  15
ENDBRANCH  13  14
ENDBRANCH  12  13
ENDBRANCH  11  12
ENDBRANCH   9  11
ENDBRANCH   4   9
ENDBRANCH   2   4
TORSDOF 9
ENDMDL
MODEL       49
REMARK 921   NORMALIZED FREE ENERGY PREDICTED BY IDOCK:   -4.88 KCAL/MOL
REMARK 922        TOTAL FREE ENERGY PREDICTED BY IDOCK:   -7.83 KCAL/MOL
REMARK 923 INTER-LIGAND FREE ENERGY PREDICTED BY IDOCK:   -6.95 KCAL/MOL
REMARK 924 INTRA-LIGAND FREE ENERGY PREDICTED BY IDOCK:   -0.88 KCAL/MOL
REMARK 927      BINDING AFFINITY PREDICTED BY RF-SCORE:    0.00 PKD
ROOT
HETATM    1  C   UNL     1      -9.174  10.261  62.340  1.00  0.00    -0.287 C  
HETATM    2  N   UNL     1     -10.427  10.845  62.763  1.00  0.00    -0.781 NA 
HETATM    3  H   UNL     1     -11.261  10.451  62.330  1.00  0.00     0.000 HD 
ENDROOT
BRANCH   2   4
HETATM    4  C   UNL     1     -10.653  11.863  63.673  1.00  0.00    -0.446 C  
HETATM    5  C   UNL     1     -11.587  12.800  63.394  1.00  0.00    -0.443 C  
HETATM    6  O   UNL     1     -11.377  13.982  65.385  1.00  0.00    -0.304 OA 
HETATM    7  N   UNL     1     -11.920  13.891  64.277  1.00  0.00    -0.443 N  
HETATM    8  O   UNL     1     -12.768  14.685  63.841  1.00  0.00    -0.788 OA 
BRANCH   4   9
HETATM    9  N   UNL     1      -9.888  11.887  64.823  1.00  0.00    -0.369 NA 
HETATM   10  H   UNL     1      -9.322  12.726  64.949  1.00  0.00     0.000 HD 
BRANCH   9  11
HETATM   11  C   UNL     1      -9.768  10.900  65.877  1.00  0.00    -0.224 C  
BRANCH  11  12
HETATM   12  C   UNL     1      -8.289  10.591  66.135  1.00  0.00    -0.155 C  
BRANCH  12  13
HETATM   13  S   UNL     1      -7.432  11.929  67.034  1.00  0.00    -0.090 SA 
BRANCH  13  14
HETATM   14  C   UNL     1      -8.630  12.212  68.378  1.00  0.00    -0.141 C  
BRANCH  14  15
HETATM   15  C   UNL     1      -9.175  13.586  68.309  1.00  0.00    -0.195 A  
HETATM   16  C   UNL     1      -8.716  14.765  67.767  1.00  0.00    -0.173 A  
HETATM   17  C   UNL     1      -9.708  15.738  68.042  1.00  0.00    -0.212 A  
HETATM   18  C   UNL     1     -10.707  15.095  68.742  1.00  0.00    -0.239 A  
HETATM   19  O   UNL     1     -10.380  13.783  68.916  1.00  0.00    -0.219 OA 
BRANCH  18  20
HETATM   20  C   UNL     1     -12.004  15.539  69.332  1.00  0.00    -0.336 C  
BRANCH  20  21
HETATM   21  N   UNL     1     -12.268  14.965  70.666  1.00  0.00    -0.294 NA 
HETATM   22  C   UNL     1     -11.435  15.594  71.696  1.00  0.00    -0.429 C  
HETATM   23  C   UNL     1     -13.683  15.149  71.001  1.00  0.00    -0.382 C  
ENDBRANCH  20  21
ENDBRANCH  18  20
ENDBRANCH  14  15
ENDBRANCH  13  14
ENDBRANCH  12  13
ENDBRANCH  11  12
ENDBRANCH   9  11
ENDBRANCH   4   9
ENDBRANCH   2   4
TORSDOF 9
ENDMDL
MODEL       50
REMARK 921   NORMALIZED FREE ENERGY PREDICTED BY IDOCK:   -4.87 KCAL/MOL
REMARK 922        TOTAL FREE ENERGY PREDICTED BY IDOCK:   -7.83 KCAL/MOL
REMARK 923 INTER-LIGAND FREE ENERGY PREDICTED BY IDOCK:   -7.14 KCAL/MOL
REMARK 924 INTRA-LIGAND FREE ENERGY PREDICTED BY IDOCK:   -0.68 KCAL/MOL
REMARK 927      BINDING AFFINITY PREDICTED BY RF-SCORE:    0.00 PKD
ROOT
HETATM    1  C   UNL     1      -8.543  18.303  68.290  1.00  0.00    -0.285 C  
HETATM    2  N   UNL     1      -9.910  17.967  68.614  1.00  0.00    -0.364 NA 
HETATM    3  H   UNL     1     -10.420  18.672  69.147  1.00  0.00     0.000 HD 
ENDROOT
BRANCH   2   4
HETATM    4  C   UNL     1     -10.627  16.823  68.304  1.00  0.00    -0.352 C  
HETATM    5  C   UNL     1     -10.402  16.205  67.123  1.00  0.00    -0.291 C  
HETATM    6  O   UNL     1     -11.873  14.438  67.468  1.00  0.00    -0.373 OA 
HETATM    7  N   UNL     1     -11.073  14.998  66.707  1.00  0.00    -0.328 N  
HETATM    8  O   UNL     1     -10.779  14.593  65.572  1.00  0.00    -0.309 OA 
BRANCH   4   9
HETATM    9  N   UNL     1     -11.564  16.379  69.216  1.00  0.00    -0.237 NA 
HETATM   10  H   UNL     1     -12.504  16.247  68.842  1.00  0.00     0.000 HD 
BRANCH   9  11
HETATM   11  C   UNL     1     -11.414  16.071  70.624  1.00  0.00    -0.402 C  
BRANCH  11  12
HETATM   12  C   UNL     1     -12.767  15.659  71.215  1.00  0.00    -0.475 C  
BRANCH  12  13
HETATM   13  S   UNL     1     -12.603  14.614  72.702  1.00  0.00    -0.315 SA 
BRANCH  13  14
HETATM   14  C   UNL     1     -13.851  13.340  72.321  1.00  0.00    -0.539 C  
BRANCH  14  15
HETATM   15  C   UNL     1     -13.209  12.141  71.737  1.00  0.00    -0.320 A  
HETATM   16  C   UNL     1     -13.278  10.795  72.015  1.00  0.00    -0.466 A  
HETATM   17  C   UNL     1     -12.411  10.158  71.094  1.00  0.00    -0.488 A  
HETATM   18  C   UNL     1     -11.859  11.155  70.318  1.00  0.00    -0.366 A  
HETATM   19  O   UNL     1     -12.336  12.368  70.715  1.00  0.00    -0.377 OA 
BRANCH  18  20
HETATM   20  C   UNL     1     -10.876  11.164  69.195  1.00  0.00    -0.238 C  
BRANCH  20  21
HETATM   21  N   UNL     1     -10.294   9.836  68.913  1.00  0.00    -0.201 NA 
HETATM   22  C   UNL     1     -10.386   9.503  67.488  1.00  0.00    -0.248 C  
HETATM   23  C   UNL     1      -8.889   9.826  69.329  1.00  0.00    -0.169 C  
ENDBRANCH  20  21
ENDBRANCH  18  20
ENDBRANCH  14  15
ENDBRANCH  13  14
ENDBRANCH  12  13
ENDBRANCH  11  12
ENDBRANCH   9  11
ENDBRANCH   4   9
ENDBRANCH   2   4
TORSDOF 9
ENDMDL
MODEL       51
REMARK 921   NORMALIZED FREE ENERGY PREDICTED BY IDOCK:   -4.87 KCAL/MOL
REMARK 922        TOTAL FREE ENERGY PREDICTED BY IDOCK:   -7.83 KCAL/MOL
REMARK 923 INTER-LIGAND FREE ENERGY PREDICTED BY IDOCK:   -7.31 KCAL/MOL
REMARK 924 INTRA-LIGAND FREE ENERGY PREDICTED BY IDOCK:   -0.52 KCAL/MOL
REMARK 927      BINDING AFFINITY PREDICTED BY RF-SCORE:    0.00 PKD
ROOT
HETATM    1  C   UNL     1     -10.669   4.272  74.143  1.00  0.00    -0.240 C  
HETATM    2  N   UNL     1     -11.156   5.518  73.595  1.00  0.00    -0.439 NA 
HETATM    3  H   UNL     1     -11.385   6.237  74.280  1.00  0.00     0.000 HD 
ENDROOT
BRANCH   2   4
HETATM    4  C   UNL     1     -11.356   5.872  72.271  1.00  0.00    -0.298 C  
HETATM    5  C   UNL     1     -10.660   5.231  71.306  1.00  0.00    -0.172 C  
HETATM    6  O   UNL     1     -11.638   6.328  69.504  1.00  0.00    -0.423 OA 
HETATM    7  N   UNL     1     -10.803   5.502  69.896  1.00  0.00    -0.299 N  
HETATM    8  O   UNL     1     -10.052   4.853  69.152  1.00  0.00    -0.199 OA 
BRANCH   4   9
HETATM    9  N   UNL     1     -12.248   6.891  72.000  1.00  0.00    -0.427 NA 
HETATM   10  H   UNL     1     -13.112   6.600  71.543  1.00  0.00     0.000 HD 
BRANCH   9  11
HETATM   11  C   UNL     1     -12.143   8.311  72.268  1.00  0.00    -0.379 C  
BRANCH  11  12
HETATM   12  C   UNL     1     -10.762   8.821  71.841  1.00  0.00    -0.359 C  
BRANCH  12  13
HETATM   13  S   UNL     1     -10.778   9.623  70.203  1.00  0.00    -0.296 SA 
BRANCH  13  14
HETATM   14  C   UNL     1     -12.151  10.798  70.450  1.00  0.00    -0.354 C  
BRANCH  14  15
HETATM   15  C   UNL     1     -12.065  11.909  69.477  1.00  0.00    -0.226 A  
HETATM   16  C   UNL     1     -12.226  13.273  69.574  1.00  0.00    -0.233 A  
HETATM   17  C   UNL     1     -12.018  13.788  68.272  1.00  0.00    -0.392 A  
HETATM   18  C   UNL     1     -11.753  12.707  67.458  1.00  0.00    -0.368 A  
HETATM   19  O   UNL     1     -11.791  11.557  68.188  1.00  0.00    -0.510 OA 
BRANCH  18  20
HETATM   20  C   UNL     1     -11.464  12.558  66.001  1.00  0.00    -0.377 C  
BRANCH  20  21
HETATM   21  N   UNL     1     -12.458  13.223  65.135  1.00  0.00    -0.499 NA 
HETATM   22  C   UNL     1     -11.992  14.545  64.702  1.00  0.00    -0.468 C  
HETATM   23  C   UNL     1     -12.713  12.385  63.960  1.00  0.00    -0.349 C  
ENDBRANCH  20  21
ENDBRANCH  18  20
ENDBRANCH  14  15
ENDBRANCH  13  14
ENDBRANCH  12  13
ENDBRANCH  11  12
ENDBRANCH   9  11
ENDBRANCH   4   9
ENDBRANCH   2   4
TORSDOF 9
ENDMDL
MODEL       52
REMARK 921   NORMALIZED FREE ENERGY PREDICTED BY IDOCK:   -4.86 KCAL/MOL
REMARK 922        TOTAL FREE ENERGY PREDICTED BY IDOCK:   -7.81 KCAL/MOL
REMARK 923 INTER-LIGAND FREE ENERGY PREDICTED BY IDOCK:   -6.99 KCAL/MOL
REMARK 924 INTRA-LIGAND FREE ENERGY PREDICTED BY IDOCK:   -0.82 KCAL/MOL
REMARK 927      BINDING AFFINITY PREDICTED BY RF-SCORE:    0.00 PKD
ROOT
HETATM    1  C   UNL     1     -13.333   8.743  72.299  1.00  0.00    -0.419 C  
HETATM    2  N   UNL     1     -13.014   9.246  70.983  1.00  0.00    -0.525 NA 
HETATM    3  H   UNL     1     -12.978   8.546  70.243  1.00  0.00     0.000 HD 
ENDROOT
BRANCH   2   4
HETATM    4  C   UNL     1     -12.751  10.546  70.584  1.00  0.00    -0.355 C  
HETATM    5  C   UNL     1     -12.957  11.557  71.457  1.00  0.00    -0.380 C  
HETATM    6  O   UNL     1     -12.209  13.263  70.064  1.00  0.00    -0.317 OA 
HETATM    7  N   UNL     1     -12.696  12.944  71.157  1.00  0.00    -0.335 N  
HETATM    8  O   UNL     1     -12.985  13.745  72.059  1.00  0.00    -0.346 OA 
BRANCH   4   9
HETATM    9  N   UNL     1     -12.310  10.750  69.290  1.00  0.00    -0.691 NA 
HETATM   10  H   UNL     1     -12.817  11.465  68.768  1.00  0.00     0.000 HD 
BRANCH   9  11
HETATM   11  C   UNL     1     -11.236  10.103  68.564  1.00  0.00    -0.168 C  
BRANCH  11  12
HETATM   12  C   UNL     1      -9.903  10.786  68.886  1.00  0.00    -0.199 C  
BRANCH  12  13
HETATM   13  S   UNL     1      -9.013  11.343  67.394  1.00  0.00    -0.157 SA 
BRANCH  13  14
HETATM   14  C   UNL     1     -10.299  11.038  66.138  1.00  0.00    -0.251 C  
BRANCH  14  15
HETATM   15  C   UNL     1     -11.167  12.226  65.983  1.00  0.00    -0.332 A  
HETATM   16  C   UNL     1     -12.201  12.544  65.132  1.00  0.00    -0.509 A  
HETATM   17  C   UNL     1     -12.620  13.848  65.491  1.00  0.00    -0.560 A  
HETATM   18  C   UNL     1     -11.811  14.249  66.533  1.00  0.00    -0.415 A  
HETATM   19  O   UNL     1     -10.916  13.265  66.829  1.00  0.00    -0.281 OA 
BRANCH  18  20
HETATM   20  C   UNL     1     -11.718  15.497  67.348  1.00  0.00     0.053 C  
BRANCH  20  21
HETATM   21  N   UNL     1     -10.363  15.754  67.874  1.00  0.00    -0.256 NA 
HETATM   22  C   UNL     1      -9.607  16.650  66.993  1.00  0.00    -0.244 C  
HETATM   23  C   UNL     1     -10.468  16.353  69.208  1.00  0.00    -0.303 C  
ENDBRANCH  20  21
ENDBRANCH  18  20
ENDBRANCH  14  15
ENDBRANCH  13  14
ENDBRANCH  12  13
ENDBRANCH  11  12
ENDBRANCH   9  11
ENDBRANCH   4   9
ENDBRANCH   2   4
TORSDOF 9
ENDMDL
MODEL       53
REMARK 921   NORMALIZED FREE ENERGY PREDICTED BY IDOCK:   -4.86 KCAL/MOL
REMARK 922        TOTAL FREE ENERGY PREDICTED BY IDOCK:   -7.81 KCAL/MOL
REMARK 923 INTER-LIGAND FREE ENERGY PREDICTED BY IDOCK:   -6.48 KCAL/MOL
REMARK 924 INTRA-LIGAND FREE ENERGY PREDICTED BY IDOCK:   -1.33 KCAL/MOL
REMARK 927      BINDING AFFINITY PREDICTED BY RF-SCORE:    0.00 PKD
ROOT
HETATM    1  C   UNL     1     -12.159  13.987  69.558  1.00  0.00    -0.347 C  
HETATM    2  N   UNL     1     -11.474  13.997  68.285  1.00  0.00    -0.285 NA 
HETATM    3  H   UNL     1     -10.580  14.487  68.273  1.00  0.00     0.000 HD 
ENDROOT
BRANCH   2   4
HETATM    4  C   UNL     1     -11.860  13.436  67.080  1.00  0.00    -0.382 C  
HETATM    5  C   UNL     1     -12.115  14.246  66.028  1.00  0.00    -0.408 C  
HETATM    6  O   UNL     1     -12.570  12.554  64.499  1.00  0.00    -0.558 OA 
HETATM    7  N   UNL     1     -12.502  13.770  64.722  1.00  0.00    -0.376 N  
HETATM    8  O   UNL     1     -12.742  14.654  63.886  1.00  0.00    -0.788 OA 
BRANCH   4   9
HETATM    9  N   UNL     1     -11.993  12.062  67.018  1.00  0.00    -0.606 NA 
HETATM   10  H   UNL     1     -12.872  11.729  66.620  1.00  0.00     0.000 HD 
BRANCH   9  11
HETATM   11  C   UNL     1     -11.073  11.022  67.432  1.00  0.00    -0.305 C  
BRANCH  11  12
HETATM   12  C   UNL     1     -10.141  10.659  66.271  1.00  0.00    -0.235 C  
BRANCH  12  13
HETATM   13  S   UNL     1      -8.376  10.741  66.726  1.00  0.00    -0.141 SA 
BRANCH  13  14
HETATM   14  C   UNL     1      -8.494  11.765  68.230  1.00  0.00    -0.161 C  
BRANCH  14  15
HETATM   15  C   UNL     1      -7.874  13.090  68.007  1.00  0.00    -0.146 A  
HETATM   16  C   UNL     1      -6.648  13.631  68.322  1.00  0.00    -0.108 A  
HETATM   17  C   UNL     1      -6.669  14.962  67.838  1.00  0.00    -0.175 A  
HETATM   18  C   UNL     1      -7.908  15.154  67.265  1.00  0.00    -0.211 A  
HETATM   19  O   UNL     1      -8.651  14.016  67.376  1.00  0.00    -0.180 OA 
BRANCH  18  20
HETATM   20  C   UNL     1      -8.569  16.313  66.597  1.00  0.00    -0.267 C  
BRANCH  20  21
HETATM   21  N   UNL     1      -9.132  17.295  67.545  1.00  0.00    -0.222 NA 
HETATM   22  C   UNL     1      -8.347  18.534  67.563  1.00  0.00    -0.257 C  
HETATM   23  C   UNL     1     -10.515  17.596  67.166  1.00  0.00    -0.319 C  
ENDBRANCH  20  21
ENDBRANCH  18  20
ENDBRANCH  14  15
ENDBRANCH  13  14
ENDBRANCH  12  13
ENDBRANCH  11  12
ENDBRANCH   9  11
ENDBRANCH   4   9
ENDBRANCH   2   4
TORSDOF 9
ENDMDL
MODEL       54
REMARK 921   NORMALIZED FREE ENERGY PREDICTED BY IDOCK:   -4.86 KCAL/MOL
REMARK 922        TOTAL FREE ENERGY PREDICTED BY IDOCK:   -7.81 KCAL/MOL
REMARK 923 INTER-LIGAND FREE ENERGY PREDICTED BY IDOCK:   -6.95 KCAL/MOL
REMARK 924 INTRA-LIGAND FREE ENERGY PREDICTED BY IDOCK:   -0.85 KCAL/MOL
REMARK 927      BINDING AFFINITY PREDICTED BY RF-SCORE:    0.00 PKD
ROOT
HETATM    1  C   UNL     1     -13.233  10.539  71.824  1.00  0.00    -0.417 C  
HETATM    2  N   UNL     1     -12.694   9.671  70.801  1.00  0.00    -0.519 NA 
HETATM    3  H   UNL     1     -13.383   9.245  70.182  1.00  0.00     0.000 HD 
ENDROOT
BRANCH   2   4
HETATM    4  C   UNL     1     -11.376   9.335  70.545  1.00  0.00    -0.258 C  
HETATM    5  C   UNL     1     -10.525   9.168  71.582  1.00  0.00    -0.332 C  
HETATM    6  O   UNL     1      -8.676   8.562  70.309  1.00  0.00    -0.132 OA 
HETATM    7  N   UNL     1      -9.139   8.797  71.433  1.00  0.00    -0.223 N  
HETATM    8  O   UNL     1      -8.491   8.732  72.489  1.00  0.00    -0.403 OA 
BRANCH   4   9
HETATM    9  N   UNL     1     -10.984   9.211  69.226  1.00  0.00    -0.415 NA 
HETATM   10  H   UNL     1     -10.735   8.265  68.935  1.00  0.00     0.000 HD 
BRANCH   9  11
HETATM   11  C   UNL     1     -10.872  10.221  68.193  1.00  0.00    -0.265 C  
BRANCH  11  12
HETATM   12  C   UNL     1     -10.401   9.578  66.884  1.00  0.00    -0.237 C  
BRANCH  12  13
HETATM   13  S   UNL     1      -9.198  10.610  65.980  1.00  0.00    -0.191 SA 
BRANCH  13  14
HETATM   14  C   UNL     1     -10.253  11.178  64.606  1.00  0.00    -0.317 C  
BRANCH  14  15
HETATM   15  C   UNL     1     -11.165  12.252  65.060  1.00  0.00    -0.321 A  
HETATM   16  C   UNL     1     -12.446  12.620  64.717  1.00  0.00    -0.555 A  
HETATM   17  C   UNL     1     -12.759  13.746  65.515  1.00  0.00    -0.530 A  
HETATM   18  C   UNL     1     -11.649  14.002  66.290  1.00  0.00    -0.369 A  
HETATM   19  O   UNL     1     -10.669  13.098  66.007  1.00  0.00    -0.272 OA 
BRANCH  18  20
HETATM   20  C   UNL     1     -11.320  15.037  67.314  1.00  0.00    -0.332 C  
BRANCH  20  21
HETATM   21  N   UNL     1     -10.884  14.468  68.605  1.00  0.00    -0.243 NA 
HETATM   22  C   UNL     1     -10.401  15.511  69.515  1.00  0.00    -0.271 C  
HETATM   23  C   UNL     1     -12.006  13.758  69.224  1.00  0.00    -0.352 C  
ENDBRANCH  20  21
ENDBRANCH  18  20
ENDBRANCH  14  15
ENDBRANCH  13  14
ENDBRANCH  12  13
ENDBRANCH  11  12
ENDBRANCH   9  11
ENDBRANCH   4   9
ENDBRANCH   2   4
TORSDOF 9
ENDMDL
MODEL       55
REMARK 921   NORMALIZED FREE ENERGY PREDICTED BY IDOCK:   -4.86 KCAL/MOL
REMARK 922        TOTAL FREE ENERGY PREDICTED BY IDOCK:   -7.80 KCAL/MOL
REMARK 923 INTER-LIGAND FREE ENERGY PREDICTED BY IDOCK:   -6.99 KCAL/MOL
REMARK 924 INTRA-LIGAND FREE ENERGY PREDICTED BY IDOCK:   -0.82 KCAL/MOL
REMARK 927      BINDING AFFINITY PREDICTED BY RF-SCORE:    0.00 PKD
ROOT
HETATM    1  C   UNL     1     -13.152   9.512  71.714  1.00  0.00    -0.418 C  
HETATM    2  N   UNL     1     -13.075   8.302  70.927  1.00  0.00    -0.462 NA 
HETATM    3  H   UNL     1     -13.719   8.251  70.138  1.00  0.00     0.000 HD 
ENDROOT
BRANCH   2   4
HETATM    4  C   UNL     1     -12.250   7.202  71.093  1.00  0.00    -0.365 C  
HETATM    5  C   UNL     1     -12.089   6.681  72.330  1.00  0.00    -0.188 C  
HETATM    6  O   UNL     1     -10.711   4.919  71.694  1.00  0.00    -0.127 OA 
HETATM    7  N   UNL     1     -11.273   5.526  72.616  1.00  0.00    -0.286 N  
HETATM    8  O   UNL     1     -11.200   5.212  73.813  1.00  0.00    -0.258 OA 
BRANCH   4   9
HETATM    9  N   UNL     1     -11.606   6.701  69.978  1.00  0.00    -0.555 NA 
HETATM   10  H   UNL     1     -11.843   5.739  69.738  1.00  0.00     0.000 HD 
BRANCH   9  11
HETATM   11  C   UNL     1     -10.644   7.336  69.099  1.00  0.00    -0.208 C  
BRANCH  11  12
HETATM   12  C   UNL     1      -9.585   8.070  69.929  1.00  0.00    -0.171 C  
BRANCH  12  13
HETATM   13  S   UNL     1      -9.595   9.874  69.656  1.00  0.00    -0.228 SA 
BRANCH  13  14
HETATM   14  C   UNL     1     -11.035  10.008  68.546  1.00  0.00    -0.209 C  
BRANCH  14  15
HETATM   15  C   UNL     1     -11.414  11.426  68.355  1.00  0.00    -0.299 A  
HETATM   16  C   UNL     1     -11.474  12.516  69.193  1.00  0.00    -0.361 A  
HETATM   17  C   UNL     1     -11.923  13.599  68.399  1.00  0.00    -0.391 A  
HETATM   18  C   UNL     1     -12.116  13.103  67.128  1.00  0.00    -0.286 A  
HETATM   19  O   UNL     1     -11.816  11.773  67.099  1.00  0.00    -0.599 OA 
BRANCH  18  20
HETATM   20  C   UNL     1     -12.584  13.704  65.844  1.00  0.00    -0.425 C  
BRANCH  20  21
HETATM   21  N   UNL     1     -11.506  13.882  64.852  1.00  0.00    -0.336 NA 
HETATM   22  C   UNL     1     -11.830  13.218  63.585  1.00  0.00    -0.458 C  
HETATM   23  C   UNL     1     -11.298  15.313  64.615  1.00  0.00    -0.358 C  
ENDBRANCH  20  21
ENDBRANCH  18  20
ENDBRANCH  14  15
ENDBRANCH  13  14
ENDBRANCH  12  13
ENDBRANCH  11  12
ENDBRANCH   9  11
ENDBRANCH   4   9
ENDBRANCH   2   4
TORSDOF 9
ENDMDL
MODEL       56
REMARK 921   NORMALIZED FREE ENERGY PREDICTED BY IDOCK:   -4.84 KCAL/MOL
REMARK 922        TOTAL FREE ENERGY PREDICTED BY IDOCK:   -7.78 KCAL/MOL
REMARK 923 INTER-LIGAND FREE ENERGY PREDICTED BY IDOCK:   -7.49 KCAL/MOL
REMARK 924 INTRA-LIGAND FREE ENERGY PREDICTED BY IDOCK:   -0.28 KCAL/MOL
REMARK 927      BINDING AFFINITY PREDICTED BY RF-SCORE:    0.00 PKD
ROOT
HETATM    1  C   UNL     1     -13.521  13.628  71.970  1.00  0.00    -0.484 C  
HETATM    2  N   UNL     1     -12.696  12.768  71.152  1.00  0.00    -0.328 NA 
HETATM    3  H   UNL     1     -12.157  13.240  70.426  1.00  0.00     0.000 HD 
ENDROOT
BRANCH   2   4
HETATM    4  C   UNL     1     -12.533  11.395  71.214  1.00  0.00    -0.318 C  
HETATM    5  C   UNL     1     -13.400  10.662  71.948  1.00  0.00    -0.349 C  
HETATM    6  O   UNL     1     -12.489   8.585  71.435  1.00  0.00    -0.308 OA 
HETATM    7  N   UNL     1     -13.340   9.225  72.066  1.00  0.00    -0.417 N  
HETATM    8  O   UNL     1     -14.186   8.719  72.818  1.00  0.00    -0.520 OA 
BRANCH   4   9
HETATM    9  N   UNL     1     -11.467  10.836  70.536  1.00  0.00    -0.394 NA 
HETATM   10  H   UNL     1     -10.725  10.463  71.128  1.00  0.00     0.000 HD 
BRANCH   9  11
HETATM   11  C   UNL     1     -11.244  10.701  69.111  1.00  0.00    -0.265 C  
BRANCH  11  12
HETATM   12  C   UNL     1     -10.148   9.661  68.851  1.00  0.00    -0.187 C  
BRANCH  12  13
HETATM   13  S   UNL     1     -10.325   8.833  67.235  1.00  0.00    -0.289 SA 
BRANCH  13  14
HETATM   14  C   UNL     1      -9.226   9.885  66.230  1.00  0.00    -0.168 C  
BRANCH  14  15
HETATM   15  C   UNL     1     -10.014  10.706  65.285  1.00  0.00    -0.294 A  
HETATM   16  C   UNL     1     -10.069  10.787  63.912  1.00  0.00    -0.397 A  
HETATM   17  C   UNL     1     -11.031  11.784  63.614  1.00  0.00    -0.513 A  
HETATM   18  C   UNL     1     -11.497  12.255  64.822  1.00  0.00    -0.329 A  
HETATM   19  O   UNL     1     -10.871  11.607  65.845  1.00  0.00    -0.278 OA 
BRANCH  18  20
HETATM   20  C   UNL     1     -12.492  13.299  65.209  1.00  0.00    -0.489 C  
BRANCH  20  21
HETATM   21  N   UNL     1     -11.872  14.560  65.663  1.00  0.00    -0.349 NA 
HETATM   22  C   UNL     1     -11.633  14.550  67.109  1.00  0.00    -0.388 C  
HETATM   23  C   UNL     1     -10.603  14.757  64.957  1.00  0.00    -0.429 C  
ENDBRANCH  20  21
ENDBRANCH  18  20
ENDBRANCH  14  15
ENDBRANCH  13  14
ENDBRANCH  12  13
ENDBRANCH  11  12
ENDBRANCH   9  11
ENDBRANCH   4   9
ENDBRANCH   2   4
TORSDOF 9
ENDMDL
MODEL       57
REMARK 921   NORMALIZED FREE ENERGY PREDICTED BY IDOCK:   -4.83 KCAL/MOL
REMARK 922        TOTAL FREE ENERGY PREDICTED BY IDOCK:   -7.76 KCAL/MOL
REMARK 923 INTER-LIGAND FREE ENERGY PREDICTED BY IDOCK:   -7.24 KCAL/MOL
REMARK 924 INTRA-LIGAND FREE ENERGY PREDICTED BY IDOCK:   -0.53 KCAL/MOL
REMARK 927      BINDING AFFINITY PREDICTED BY RF-SCORE:    0.00 PKD
ROOT
HETATM    1  C   UNL     1     -11.024   6.320  67.484  1.00  0.00    -0.350 C  
HETATM    2  N   UNL     1     -11.524   6.514  68.826  1.00  0.00    -0.589 NA 
HETATM    3  H   UNL     1     -12.310   7.157  68.912  1.00  0.00     0.000 HD 
ENDROOT
BRANCH   2   4
HETATM    4  C   UNL     1     -11.085   5.950  70.012  1.00  0.00    -0.341 C  
HETATM    5  C   UNL     1     -10.171   4.955  69.970  1.00  0.00    -0.243 C  
HETATM    6  O   UNL     1      -9.956   4.697  72.271  1.00  0.00    -0.164 OA 
HETATM    7  N   UNL     1      -9.628   4.311  71.141  1.00  0.00    -0.167 N  
HETATM    8  O   UNL     1      -8.835   3.385  70.917  1.00  0.00    -0.075 OA 
BRANCH   4   9
HETATM    9  N   UNL     1     -11.626   6.421  71.193  1.00  0.00    -0.324 NA 
HETATM   10  H   UNL     1     -11.167   6.091  72.042  1.00  0.00     0.000 HD 
BRANCH   9  11
HETATM   11  C   UNL     1     -12.747   7.313  71.408  1.00  0.00    -0.389 C  
BRANCH  11  12
HETATM   12  C   UNL     1     -12.310   8.503  72.269  1.00  0.00    -0.387 C  
BRANCH  12  13
HETATM   13  S   UNL     1     -12.770  10.111  71.542  1.00  0.00    -0.471 SA 
BRANCH  13  14
HETATM   14  C   UNL     1     -11.880   9.998  69.955  1.00  0.00    -0.126 C  
BRANCH  14  15
HETATM   15  C   UNL     1     -11.855  11.313  69.277  1.00  0.00    -0.354 A  
HETATM   16  C   UNL     1     -11.910  12.614  69.722  1.00  0.00    -0.379 A  
HETATM   17  C   UNL     1     -11.850  13.429  68.566  1.00  0.00    -0.401 A  
HETATM   18  C   UNL     1     -11.771  12.576  67.486  1.00  0.00    -0.374 A  
HETATM   19  O   UNL     1     -11.785  11.283  67.915  1.00  0.00    -0.534 OA 
BRANCH  18  20
HETATM   20  C   UNL     1     -11.695  12.783  66.009  1.00  0.00    -0.418 C  
BRANCH  20  21
HETATM   21  N   UNL     1     -11.538  14.199  65.622  1.00  0.00    -0.331 NA 
HETATM   22  C   UNL     1     -10.125  14.555  65.456  1.00  0.00    -0.366 C  
HETATM   23  C   UNL     1     -12.255  14.441  64.368  1.00  0.00    -0.458 C  
ENDBRANCH  20  21
ENDBRANCH  18  20
ENDBRANCH  14  15
ENDBRANCH  13  14
ENDBRANCH  12  13
ENDBRANCH  11  12
ENDBRANCH   9  11
ENDBRANCH   4   9
ENDBRANCH   2   4
TORSDOF 9
ENDMDL
MODEL       58
REMARK 921   NORMALIZED FREE ENERGY PREDICTED BY IDOCK:   -4.83 KCAL/MOL
REMARK 922        TOTAL FREE ENERGY PREDICTED BY IDOCK:   -7.76 KCAL/MOL
REMARK 923 INTER-LIGAND FREE ENERGY PREDICTED BY IDOCK:   -7.25 KCAL/MOL
REMARK 924 INTRA-LIGAND FREE ENERGY PREDICTED BY IDOCK:   -0.51 KCAL/MOL
REMARK 927      BINDING AFFINITY PREDICTED BY RF-SCORE:    0.00 PKD
ROOT
HETATM    1  C   UNL     1      -6.184  20.593  64.725  1.00  0.00    -0.294 C  
HETATM    2  N   UNL     1      -7.535  20.385  65.195  1.00  0.00    -0.432 NA 
HETATM    3  H   UNL     1      -8.264  20.482  64.489  1.00  0.00     0.000 HD 
ENDROOT
BRANCH   2   4
HETATM    4  C   UNL     1      -7.979  20.073  66.469  1.00  0.00    -0.313 C  
HETATM    5  C   UNL     1      -7.086  19.658  67.394  1.00  0.00    -0.212 C  
HETATM    6  O   UNL     1      -8.597  19.466  69.151  1.00  0.00    -0.301 OA 
HETATM    7  N   UNL     1      -7.432  19.328  68.755  1.00  0.00    -0.342 N  
HETATM    8  O   UNL     1      -6.494  18.920  69.457  1.00  0.00    -0.275 OA 
BRANCH   4   9
HETATM    9  N   UNL     1      -9.332  20.178  66.727  1.00  0.00    -0.437 NA 
HETATM   10  H   UNL     1      -9.591  20.905  67.394  1.00  0.00     0.000 HD 
BRANCH   9  11
HETATM   11  C   UNL     1     -10.440  19.411  66.194  1.00  0.00    -0.508 C  
BRANCH  11  12
HETATM   12  C   UNL     1     -10.579  18.092  66.963  1.00  0.00    -0.328 C  
BRANCH  12  13
HETATM   13  S   UNL     1      -9.718  16.704  66.149  1.00  0.00    -0.290 SA 
BRANCH  13  14
HETATM   14  C   UNL     1     -11.006  16.198  64.962  1.00  0.00    -0.344 C  
BRANCH  14  15
HETATM   15  C   UNL     1     -11.315  14.759  65.111  1.00  0.00    -0.379 A  
HETATM   16  C   UNL     1     -12.487  14.044  65.214  1.00  0.00    -0.495 A  
HETATM   17  C   UNL     1     -12.108  12.685  65.343  1.00  0.00    -0.516 A  
HETATM   18  C   UNL     1     -10.730  12.656  65.320  1.00  0.00    -0.289 A  
HETATM   19  O   UNL     1     -10.242  13.921  65.190  1.00  0.00    -0.359 OA 
BRANCH  18  20
HETATM   20  C   UNL     1      -9.719  11.563  65.425  1.00  0.00    -0.233 C  
BRANCH  20  21
HETATM   21  N   UNL     1      -9.823  10.562  64.344  1.00  0.00    -0.322 NA 
HETATM   22  C   UNL     1      -9.566  11.162  63.031  1.00  0.00    -0.369 C  
HETATM   23  C   UNL     1      -8.859   9.485  64.588  1.00  0.00    -0.213 C  
ENDBRANCH  20  21
ENDBRANCH  18  20
ENDBRANCH  14  15
ENDBRANCH  13  14
ENDBRANCH  12  13
ENDBRANCH  11  12
ENDBRANCH   9  11
ENDBRANCH   4   9
ENDBRANCH   2   4
TORSDOF 9
ENDMDL
MODEL       59
REMARK 921   NORMALIZED FREE ENERGY PREDICTED BY IDOCK:   -4.83 KCAL/MOL
REMARK 922        TOTAL FREE ENERGY PREDICTED BY IDOCK:   -7.75 KCAL/MOL
REMARK 923 INTER-LIGAND FREE ENERGY PREDICTED BY IDOCK:   -6.85 KCAL/MOL
REMARK 924 INTRA-LIGAND FREE ENERGY PREDICTED BY IDOCK:   -0.90 KCAL/MOL
REMARK 927      BINDING AFFINITY PREDICTED BY RF-SCORE:    0.00 PKD
ROOT
HETATM    1  C   UNL     1      -8.945   8.333  71.539  1.00  0.00    -0.173 C  
HETATM    2  N   UNL     1      -9.889   8.134  70.463  1.00  0.00    -0.185 NA 
HETATM    3  H   UNL     1      -9.990   7.171  70.141  1.00  0.00     0.000 HD 
ENDROOT
BRANCH   2   4
HETATM    4  C   UNL     1     -10.675   9.065  69.806  1.00  0.00    -0.225 C  
HETATM    5  C   UNL     1     -11.125  10.143  70.485  1.00  0.00    -0.327 C  
HETATM    6  O   UNL     1     -12.207  11.152  68.691  1.00  0.00    -0.582 OA 
HETATM    7  N   UNL     1     -11.931  11.186  69.897  1.00  0.00    -0.332 N  
HETATM    8  O   UNL     1     -12.295  12.078  70.678  1.00  0.00    -0.356 OA 
BRANCH   4   9
HETATM    9  N   UNL     1     -10.985   8.832  68.480  1.00  0.00    -0.449 NA 
HETATM   10  H   UNL     1     -11.789   9.350  68.125  1.00  0.00     0.000 HD 
BRANCH   9  11
HETATM   11  C   UNL     1     -10.341   7.962  67.516  1.00  0.00    -0.259 C  
BRANCH  11  12
HETATM   12  C   UNL     1      -9.056   8.617  66.999  1.00  0.00    -0.138 C  
BRANCH  12  13
HETATM   13  S   UNL     1      -9.266  10.390  66.624  1.00  0.00    -0.158 SA 
BRANCH  13  14
HETATM   14  C   UNL     1     -10.023  10.266  64.970  1.00  0.00    -0.323 C  
BRANCH  14  15
HETATM   15  C   UNL     1     -10.819  11.477  64.670  1.00  0.00    -0.310 A  
HETATM   16  C   UNL     1     -11.320  12.023  63.510  1.00  0.00    -0.528 A  
HETATM   17  C   UNL     1     -11.996  13.207  63.892  1.00  0.00    -0.550 A  
HETATM   18  C   UNL     1     -11.860  13.316  65.259  1.00  0.00    -0.357 A  
HETATM   19  O   UNL     1     -11.132  12.267  65.737  1.00  0.00    -0.298 OA 
BRANCH  18  20
HETATM   20  C   UNL     1     -12.315  14.320  66.266  1.00  0.00    -0.373 C  
BRANCH  20  21
HETATM   21  N   UNL     1     -11.253  14.733  67.205  1.00  0.00    -0.334 NA 
HETATM   22  C   UNL     1     -10.497  15.879  66.688  1.00  0.00    -0.306 C  
HETATM   23  C   UNL     1     -11.857  15.084  68.493  1.00  0.00    -0.291 C  
ENDBRANCH  20  21
ENDBRANCH  18  20
ENDBRANCH  14  15
ENDBRANCH  13  14
ENDBRANCH  12  13
ENDBRANCH  11  12
ENDBRANCH   9  11
ENDBRANCH   4   9
ENDBRANCH   2   4
TORSDOF 9
ENDMDL
MODEL       60
REMARK 921   NORMALIZED FREE ENERGY PREDICTED BY IDOCK:   -4.82 KCAL/MOL
REMARK 922        TOTAL FREE ENERGY PREDICTED BY IDOCK:   -7.75 KCAL/MOL
REMARK 923 INTER-LIGAND FREE ENERGY PREDICTED BY IDOCK:   -7.14 KCAL/MOL
REMARK 924 INTRA-LIGAND FREE ENERGY PREDICTED BY IDOCK:   -0.61 KCAL/MOL
REMARK 927      BINDING AFFINITY PREDICTED BY RF-SCORE:    0.00 PKD
ROOT
HETATM    1  C   UNL     1     -11.612  15.353  68.785  1.00  0.00    -0.368 C  
HETATM    2  N   UNL     1     -12.090  14.394  67.815  1.00  0.00    -0.596 NA 
HETATM    3  H   UNL     1     -12.969  13.934  68.050  1.00  0.00     0.000 HD 
ENDROOT
BRANCH   2   4
HETATM    4  C   UNL     1     -11.522  14.011  66.612  1.00  0.00    -0.364 C  
HETATM    5  C   UNL     1     -12.323  13.573  65.615  1.00  0.00    -0.476 C  
HETATM    6  O   UNL     1     -10.639  13.262  64.042  1.00  0.00    -0.373 OA 
HETATM    7  N   UNL     1     -11.843  13.170  64.315  1.00  0.00    -0.383 N  
HETATM    8  O   UNL     1     -12.712  12.751  63.536  1.00  0.00    -0.713 OA 
BRANCH   4   9
HETATM    9  N   UNL     1     -10.146  14.071  66.496  1.00  0.00    -0.278 NA 
HETATM   10  H   UNL     1      -9.797  14.772  65.842  1.00  0.00     0.000 HD 
BRANCH   9  11
HETATM   11  C   UNL     1      -9.125  13.290  67.163  1.00  0.00    -0.231 C  
BRANCH  11  12
HETATM   12  C   UNL     1      -7.903  14.168  67.454  1.00  0.00    -0.177 C  
BRANCH  12  13
HETATM   13  S   UNL     1      -8.073  15.130  68.995  1.00  0.00    -0.204 SA 
BRANCH  13  14
HETATM   14  C   UNL     1      -6.454  15.967  69.015  1.00  0.00    -0.137 C  
BRANCH  14  15
HETATM   15  C   UNL     1      -6.626  17.435  68.955  1.00  0.00    -0.232 A  
HETATM   16  C   UNL     1      -6.131  18.483  69.698  1.00  0.00    -0.269 A  
HETATM   17  C   UNL     1      -6.682  19.660  69.137  1.00  0.00    -0.383 A  
HETATM   18  C   UNL     1      -7.486  19.259  68.091  1.00  0.00    -0.289 A  
HETATM   19  O   UNL     1      -7.463  17.900  67.984  1.00  0.00    -0.220 OA 
BRANCH  18  20
HETATM   20  C   UNL     1      -8.349  19.986  67.114  1.00  0.00    -0.332 C  
BRANCH  20  21
HETATM   21  N   UNL     1      -9.682  19.375  66.940  1.00  0.00    -0.325 NA 
HETATM   22  C   UNL     1     -10.526  19.584  68.121  1.00  0.00    -0.377 C  
HETATM   23  C   UNL     1     -10.332  19.960  65.764  1.00  0.00    -0.410 C  
ENDBRANCH  20  21
ENDBRANCH  18  20
ENDBRANCH  14  15
ENDBRANCH  13  14
ENDBRANCH  12  13
ENDBRANCH  11  12
ENDBRANCH   9  11
ENDBRANCH   4   9
ENDBRANCH   2   4
TORSDOF 9
ENDMDL
MODEL       61
REMARK 921   NORMALIZED FREE ENERGY PREDICTED BY IDOCK:   -4.82 KCAL/MOL
REMARK 922        TOTAL FREE ENERGY PREDICTED BY IDOCK:   -7.74 KCAL/MOL
REMARK 923 INTER-LIGAND FREE ENERGY PREDICTED BY IDOCK:   -7.02 KCAL/MOL
REMARK 924 INTRA-LIGAND FREE ENERGY PREDICTED BY IDOCK:   -0.72 KCAL/MOL
REMARK 927      BINDING AFFINITY PREDICTED BY RF-SCORE:    0.00 PKD
ROOT
HETATM    1  C   UNL     1      -9.552  11.177  67.404  1.00  0.00    -0.168 C  
HETATM    2  N   UNL     1     -10.338  10.727  66.277  1.00  0.00    -0.248 NA 
HETATM    3  H   UNL     1     -11.345  10.693  66.431  1.00  0.00     0.000 HD 
ENDROOT
BRANCH   2   4
HETATM    4  C   UNL     1      -9.916  10.334  65.018  1.00  0.00    -0.323 C  
HETATM    5  C   UNL     1      -8.898   9.450  64.911  1.00  0.00    -0.202 C  
HETATM    6  O   UNL     1      -8.926   9.299  62.591  1.00  0.00    -0.235 OA 
HETATM    7  N   UNL     1      -8.392   8.956  63.654  1.00  0.00    -0.177 N  
HETATM    8  O   UNL     1      -7.424   8.185  63.739  1.00  0.00    -0.105 OA 
BRANCH   4   9
HETATM    9  N   UNL     1     -10.545  10.889  63.921  1.00  0.00    -0.510 NA 
HETATM   10  H   UNL     1     -10.969  10.219  63.280  1.00  0.00     0.000 HD 
BRANCH   9  11
HETATM   11  C   UNL     1     -10.694  12.280  63.543  1.00  0.00    -0.451 C  
BRANCH  11  12
HETATM   12  C   UNL     1     -12.178  12.665  63.544  1.00  0.00    -0.547 C  
BRANCH  12  13
HETATM   13  S   UNL     1     -12.594  13.882  64.838  1.00  0.00    -0.298 SA 
BRANCH  13  14
HETATM   14  C   UNL     1     -10.949  14.104  65.591  1.00  0.00    -0.308 C  
BRANCH  14  15
HETATM   15  C   UNL     1     -11.062  14.800  66.892  1.00  0.00    -0.339 A  
HETATM   16  C   UNL     1     -10.655  16.033  67.350  1.00  0.00    -0.316 A  
HETATM   17  C   UNL     1     -11.061  16.103  68.705  1.00  0.00    -0.356 A  
HETATM   18  C   UNL     1     -11.683  14.907  68.993  1.00  0.00    -0.319 A  
HETATM   19  O   UNL     1     -11.676  14.105  67.891  1.00  0.00    -0.326 OA 
BRANCH  18  20
HETATM   20  C   UNL     1     -12.314  14.341  70.221  1.00  0.00    -0.354 C  
BRANCH  20  21
HETATM   21  N   UNL     1     -12.943  15.362  71.082  1.00  0.00    -0.450 NA 
HETATM   22  C   UNL     1     -14.233  14.902  71.605  1.00  0.00    -0.542 C  
HETATM   23  C   UNL     1     -12.045  15.674  72.198  1.00  0.00    -0.448 C  
ENDBRANCH  20  21
ENDBRANCH  18  20
ENDBRANCH  14  15
ENDBRANCH  13  14
ENDBRANCH  12  13
ENDBRANCH  11  12
ENDBRANCH   9  11
ENDBRANCH   4   9
ENDBRANCH   2   4
TORSDOF 9
ENDMDL
MODEL       62
REMARK 921   NORMALIZED FREE ENERGY PREDICTED BY IDOCK:   -4.81 KCAL/MOL
REMARK 922        TOTAL FREE ENERGY PREDICTED BY IDOCK:   -7.73 KCAL/MOL
REMARK 923 INTER-LIGAND FREE ENERGY PREDICTED BY IDOCK:   -6.76 KCAL/MOL
REMARK 924 INTRA-LIGAND FREE ENERGY PREDICTED BY IDOCK:   -0.97 KCAL/MOL
REMARK 927      BINDING AFFINITY PREDICTED BY RF-SCORE:    0.00 PKD
ROOT
HETATM    1  C   UNL     1      -9.213  15.524  69.053  1.00  0.00    -0.238 C  
HETATM    2  N   UNL     1     -10.206  15.057  68.112  1.00  0.00    -0.219 NA 
HETATM    3  H   UNL     1     -10.679  14.191  68.369  1.00  0.00     0.000 HD 
ENDROOT
BRANCH   2   4
HETATM    4  C   UNL     1     -10.606  15.620  66.912  1.00  0.00    -0.311 C  
HETATM    5  C   UNL     1     -10.353  16.927  66.681  1.00  0.00    -0.299 C  
HETATM    6  O   UNL     1     -11.225  16.987  64.526  1.00  0.00    -1.091 OA 
HETATM    7  N   UNL     1     -10.704  17.611  65.460  1.00  0.00    -0.198 N  
HETATM    8  O   UNL     1     -10.440  18.822  65.436  1.00  0.00    -0.509 OA 
BRANCH   4   9
HETATM    9  N   UNL     1     -11.273  14.814  66.009  1.00  0.00    -0.341 NA 
HETATM   10  H   UNL     1     -10.899  14.826  65.060  1.00  0.00     0.000 HD 
BRANCH   9  11
HETATM   11  C   UNL     1     -12.423  13.956  66.207  1.00  0.00    -0.409 C  
BRANCH  11  12
HETATM   12  C   UNL     1     -12.385  12.796  65.206  1.00  0.00    -0.488 C  
BRANCH  12  13
HETATM   13  S   UNL     1     -10.986  12.910  64.041  1.00  0.00    -0.392 SA 
BRANCH  13  14
HETATM   14  C   UNL     1     -10.078  11.398  64.503  1.00  0.00    -0.287 C  
BRANCH  14  15
HETATM   15  C   UNL     1      -9.605  11.482  65.902  1.00  0.00    -0.230 A  
HETATM   16  C   UNL     1      -8.683  12.274  66.549  1.00  0.00    -0.084 A  
HETATM   17  C   UNL     1      -8.684  11.855  67.901  1.00  0.00    -0.167 A  
HETATM   18  C   UNL     1      -9.598  10.828  67.996  1.00  0.00    -0.163 A  
HETATM   19  O   UNL     1     -10.155  10.591  66.774  1.00  0.00    -0.202 OA 
BRANCH  18  20
HETATM   20  C   UNL     1     -10.061   9.957  69.116  1.00  0.00    -0.200 C  
BRANCH  20  21
HETATM   21  N   UNL     1     -10.901  10.665  70.102  1.00  0.00    -0.227 NA 
HETATM   22  C   UNL     1     -12.135  11.169  69.492  1.00  0.00    -0.326 C  
HETATM   23  C   UNL     1     -11.234   9.751  71.198  1.00  0.00    -0.374 C  
ENDBRANCH  20  21
ENDBRANCH  18  20
ENDBRANCH  14  15
ENDBRANCH  13  14
ENDBRANCH  12  13
ENDBRANCH  11  12
ENDBRANCH   9  11
ENDBRANCH   4   9
ENDBRANCH   2   4
TORSDOF 9
ENDMDL
MODEL       63
REMARK 921   NORMALIZED FREE ENERGY PREDICTED BY IDOCK:   -4.81 KCAL/MOL
REMARK 922        TOTAL FREE ENERGY PREDICTED BY IDOCK:   -7.72 KCAL/MOL
REMARK 923 INTER-LIGAND FREE ENERGY PREDICTED BY IDOCK:   -7.42 KCAL/MOL
REMARK 924 INTRA-LIGAND FREE ENERGY PREDICTED BY IDOCK:   -0.30 KCAL/MOL
REMARK 927      BINDING AFFINITY PREDICTED BY RF-SCORE:    0.00 PKD
ROOT
HETATM    1  C   UNL     1     -14.404   7.752  71.520  1.00  0.00    -0.447 C  
HETATM    2  N   UNL     1     -13.172   7.318  70.900  1.00  0.00    -0.583 NA 
HETATM    3  H   UNL     1     -13.204   7.217  69.886  1.00  0.00     0.000 HD 
ENDROOT
BRANCH   2   4
HETATM    4  C   UNL     1     -11.955   7.019  71.489  1.00  0.00    -0.334 C  
HETATM    5  C   UNL     1     -11.898   6.045  72.425  1.00  0.00    -0.231 C  
HETATM    6  O   UNL     1      -9.601   6.148  72.772  1.00  0.00    -0.155 OA 
HETATM    7  N   UNL     1     -10.683   5.636  73.087  1.00  0.00    -0.248 N  
HETATM    8  O   UNL     1     -10.821   4.760  73.954  1.00  0.00    -0.280 OA 
BRANCH   4   9
HETATM    9  N   UNL     1     -10.851   7.754  71.105  1.00  0.00    -0.232 NA 
HETATM   10  H   UNL     1     -10.172   7.250  70.535  1.00  0.00     0.000 HD 
BRANCH   9  11
HETATM   11  C   UNL     1     -10.512   9.134  71.389  1.00  0.00    -0.344 C  
BRANCH  11  12
HETATM   12  C   UNL     1     -10.592   9.966  70.104  1.00  0.00    -0.297 C  
BRANCH  12  13
HETATM   13  S   UNL     1     -12.143  10.919  69.973  1.00  0.00    -0.367 SA 
BRANCH  13  14
HETATM   14  C   UNL     1     -11.756  11.934  68.508  1.00  0.00    -0.330 C  
BRANCH  14  15
HETATM   15  C   UNL     1     -11.783  13.373  68.851  1.00  0.00    -0.328 A  
HETATM   16  C   UNL     1     -11.847  14.528  68.104  1.00  0.00    -0.348 A  
HETATM   17  C   UNL     1     -11.833  15.598  69.032  1.00  0.00    -0.379 A  
HETATM   18  C   UNL     1     -11.754  15.032  70.286  1.00  0.00    -0.294 A  
HETATM   19  O   UNL     1     -11.712  13.674  70.179  1.00  0.00    -0.276 OA 
BRANCH  18  20
HETATM   20  C   UNL     1     -11.688  15.590  71.669  1.00  0.00    -0.426 C  
BRANCH  20  21
HETATM   21  N   UNL     1     -13.011  15.938  72.224  1.00  0.00    -0.442 NA 
HETATM   22  C   UNL     1     -14.079  15.154  71.597  1.00  0.00    -0.549 C  
HETATM   23  C   UNL     1     -13.008  15.695  73.669  1.00  0.00    -0.526 C  
ENDBRANCH  20  21
ENDBRANCH  18  20
ENDBRANCH  14  15
ENDBRANCH  13  14
ENDBRANCH  12  13
ENDBRANCH  11  12
ENDBRANCH   9  11
ENDBRANCH   4   9
ENDBRANCH   2   4
TORSDOF 9
ENDMDL
MODEL       64
REMARK 921   NORMALIZED FREE ENERGY PREDICTED BY IDOCK:   -4.80 KCAL/MOL
REMARK 922        TOTAL FREE ENERGY PREDICTED BY IDOCK:   -7.72 KCAL/MOL
REMARK 923 INTER-LIGAND FREE ENERGY PREDICTED BY IDOCK:   -7.26 KCAL/MOL
REMARK 924 INTRA-LIGAND FREE ENERGY PREDICTED BY IDOCK:   -0.46 KCAL/MOL
REMARK 927      BINDING AFFINITY PREDICTED BY RF-SCORE:    0.00 PKD
ROOT
HETATM    1  C   UNL     1      -9.703  20.365  67.058  1.00  0.00    -0.447 C  
HETATM    2  N   UNL     1     -10.165  19.182  67.747  1.00  0.00    -0.379 NA 
HETATM    3  H   UNL     1     -10.310  19.288  68.750  1.00  0.00     0.000 HD 
ENDROOT
BRANCH   2   4
HETATM    4  C   UNL     1     -10.438  17.923  67.237  1.00  0.00    -0.366 C  
HETATM    5  C   UNL     1     -10.737  17.795  65.925  1.00  0.00    -0.116 C  
HETATM    6  O   UNL     1     -10.939  15.479  65.927  1.00  0.00    -0.320 OA 
HETATM    7  N   UNL     1     -11.016  16.534  65.283  1.00  0.00    -0.246 N  
HETATM    8  O   UNL     1     -11.318  16.605  64.082  1.00  0.00    -1.141 OA 
BRANCH   4   9
HETATM    9  N   UNL     1     -10.414  16.852  68.109  1.00  0.00    -0.333 NA 
HETATM   10  H   UNL     1     -10.206  15.950  67.681  1.00  0.00     0.000 HD 
BRANCH   9  11
HETATM   11  C   UNL     1     -10.642  16.815  69.539  1.00  0.00    -0.283 C  
BRANCH  11  12
HETATM   12  C   UNL     1     -11.819  15.887  69.856  1.00  0.00    -0.300 C  
BRANCH  12  13
HETATM   13  S   UNL     1     -11.615  14.998  71.436  1.00  0.00    -0.320 SA 
BRANCH  13  14
HETATM   14  C   UNL     1     -12.901  13.721  71.238  1.00  0.00    -0.357 C  
BRANCH  14  15
HETATM   15  C   UNL     1     -12.405  12.608  70.399  1.00  0.00    -0.237 A  
HETATM   16  C   UNL     1     -12.103  11.288  70.649  1.00  0.00    -0.480 A  
HETATM   17  C   UNL     1     -11.664  10.744  69.418  1.00  0.00    -0.378 A  
HETATM   18  C   UNL     1     -11.716  11.766  68.494  1.00  0.00    -0.330 A  
HETATM   19  O   UNL     1     -12.157  12.908  69.092  1.00  0.00    -0.266 OA 
BRANCH  18  20
HETATM   20  C   UNL     1     -11.381  11.864  67.043  1.00  0.00    -0.329 C  
BRANCH  20  21
HETATM   21  N   UNL     1     -10.018  11.395  66.722  1.00  0.00    -0.205 NA 
HETATM   22  C   UNL     1      -9.775  11.404  65.276  1.00  0.00    -0.241 C  
HETATM   23  C   UNL     1      -9.040  12.259  67.389  1.00  0.00    -0.184 C  
ENDBRANCH  20  21
ENDBRANCH  18  20
ENDBRANCH  14  15
ENDBRANCH  13  14
ENDBRANCH  12  13
ENDBRANCH  11  12
ENDBRANCH   9  11
ENDBRANCH   4   9
ENDBRANCH   2   4
TORSDOF 9
ENDMDL
MODEL       65
REMARK 921   NORMALIZED FREE ENERGY PREDICTED BY IDOCK:   -4.80 KCAL/MOL
REMARK 922        TOTAL FREE ENERGY PREDICTED BY IDOCK:   -7.71 KCAL/MOL
REMARK 923 INTER-LIGAND FREE ENERGY PREDICTED BY IDOCK:   -7.17 KCAL/MOL
REMARK 924 INTRA-LIGAND FREE ENERGY PREDICTED BY IDOCK:   -0.55 KCAL/MOL
REMARK 927      BINDING AFFINITY PREDICTED BY RF-SCORE:    0.00 PKD
ROOT
HETATM    1  C   UNL     1     -10.509   4.734  65.785  1.00  0.00    -0.238 C  
HETATM    2  N   UNL     1     -11.161   5.939  66.244  1.00  0.00    -0.697 NA 
HETATM    3  H   UNL     1     -11.916   6.281  65.650  1.00  0.00     0.000 HD 
ENDROOT
BRANCH   2   4
HETATM    4  C   UNL     1     -10.906   6.695  67.375  1.00  0.00    -0.363 C  
HETATM    5  C   UNL     1     -10.805   6.076  68.572  1.00  0.00    -0.286 C  
HETATM    6  O   UNL     1     -10.301   7.979  69.810  1.00  0.00    -0.209 OA 
HETATM    7  N   UNL     1     -10.520   6.760  69.810  1.00  0.00    -0.200 N  
HETATM    8  O   UNL     1     -10.509   6.043  70.821  1.00  0.00    -0.215 OA 
BRANCH   4   9
HETATM    9  N   UNL     1     -10.791   8.064  67.227  1.00  0.00    -0.509 NA 
HETATM   10  H   UNL     1     -11.334   8.619  67.888  1.00  0.00     0.000 HD 
BRANCH   9  11
HETATM   11  C   UNL     1     -10.014   8.831  66.274  1.00  0.00    -0.245 C  
BRANCH  11  12
HETATM   12  C   UNL     1      -9.807  10.257  66.798  1.00  0.00    -0.197 C  
BRANCH  12  13
HETATM   13  S   UNL     1     -11.299  10.943  67.593  1.00  0.00    -0.193 SA 
BRANCH  13  14
HETATM   14  C   UNL     1     -10.591  11.436  69.199  1.00  0.00    -0.160 C  
BRANCH  14  15
HETATM   15  C   UNL     1     -11.617  11.364  70.264  1.00  0.00    -0.243 A  
HETATM   16  C   UNL     1     -12.327  10.331  70.832  1.00  0.00    -0.471 A  
HETATM   17  C   UNL     1     -13.168  10.920  71.806  1.00  0.00    -0.513 A  
HETATM   18  C   UNL     1     -12.926  12.276  71.768  1.00  0.00    -0.325 A  
HETATM   19  O   UNL     1     -11.987  12.552  70.819  1.00  0.00    -0.253 OA 
BRANCH  18  20
HETATM   20  C   UNL     1     -13.480  13.445  72.513  1.00  0.00    -0.536 C  
BRANCH  20  21
HETATM   21  N   UNL     1     -12.846  14.728  72.147  1.00  0.00    -0.316 NA 
HETATM   22  C   UNL     1     -13.640  15.452  71.149  1.00  0.00    -0.462 C  
HETATM   23  C   UNL     1     -12.698  15.554  73.348  1.00  0.00    -0.532 C  
ENDBRANCH  20  21
ENDBRANCH  18  20
ENDBRANCH  14  15
ENDBRANCH  13  14
ENDBRANCH  12  13
ENDBRANCH  11  12
ENDBRANCH   9  11
ENDBRANCH   4   9
ENDBRANCH   2   4
TORSDOF 9
ENDMDL
MODEL       66
REMARK 921   NORMALIZED FREE ENERGY PREDICTED BY IDOCK:   -4.80 KCAL/MOL
REMARK 922        TOTAL FREE ENERGY PREDICTED BY IDOCK:   -7.71 KCAL/MOL
REMARK 923 INTER-LIGAND FREE ENERGY PREDICTED BY IDOCK:   -7.01 KCAL/MOL
REMARK 924 INTRA-LIGAND FREE ENERGY PREDICTED BY IDOCK:   -0.70 KCAL/MOL
REMARK 927      BINDING AFFINITY PREDICTED BY RF-SCORE:    0.00 PKD
ROOT
HETATM    1  C   UNL     1      -8.727  15.042  66.688  1.00  0.00    -0.254 C  
HETATM    2  N   UNL     1     -10.133  15.348  66.545  1.00  0.00    -0.261 NA 
HETATM    3  H   UNL     1     -10.403  16.297  66.803  1.00  0.00     0.000 HD 
ENDROOT
BRANCH   2   4
HETATM    4  C   UNL     1     -11.164  14.534  66.107  1.00  0.00    -0.339 C  
HETATM    5  C   UNL     1     -11.340  14.351  64.780  1.00  0.00    -0.388 C  
HETATM    6  O   UNL     1     -13.118  12.862  64.954  1.00  0.00    -0.799 OA 
HETATM    7  N   UNL     1     -12.366  13.509  64.213  1.00  0.00    -0.367 N  
HETATM    8  O   UNL     1     -12.414  13.493  62.974  1.00  0.00    -0.709 OA 
BRANCH   4   9
HETATM    9  N   UNL     1     -11.987  13.963  67.059  1.00  0.00    -0.414 NA 
HETATM   10  H   UNL     1     -12.694  13.326  66.693  1.00  0.00     0.000 HD 
BRANCH   9  11
HETATM   11  C   UNL     1     -11.998  14.134  68.498  1.00  0.00    -0.332 C  
BRANCH  11  12
HETATM   12  C   UNL     1     -11.908  12.767  69.185  1.00  0.00    -0.301 C  
BRANCH  12  13
HETATM   13  S   UNL     1     -11.392  11.435  68.049  1.00  0.00    -0.312 SA 
BRANCH  13  14
HETATM   14  C   UNL     1      -9.592  11.467  68.336  1.00  0.00    -0.197 C  
BRANCH  14  15
HETATM   15  C   UNL     1      -9.203  10.428  69.316  1.00  0.00    -0.184 A  
HETATM   16  C   UNL     1      -7.993   9.964  69.780  1.00  0.00    -0.181 A  
HETATM   17  C   UNL     1      -8.295   8.945  70.716  1.00  0.00    -0.205 A  
HETATM   18  C   UNL     1      -9.669   8.844  70.760  1.00  0.00    -0.227 A  
HETATM   19  O   UNL     1     -10.227   9.741  69.898  1.00  0.00    -0.221 OA 
BRANCH  18  20
HETATM   20  C   UNL     1     -10.617   7.974  71.516  1.00  0.00    -0.226 C  
BRANCH  20  21
HETATM   21  N   UNL     1     -11.725   7.455  70.689  1.00  0.00    -0.274 NA 
HETATM   22  C   UNL     1     -11.317   6.267  69.932  1.00  0.00    -0.434 C  
HETATM   23  C   UNL     1     -12.859   7.120  71.554  1.00  0.00    -0.391 C  
ENDBRANCH  20  21
ENDBRANCH  18  20
ENDBRANCH  14  15
ENDBRANCH  13  14
ENDBRANCH  12  13
ENDBRANCH  11  12
ENDBRANCH   9  11
ENDBRANCH   4   9
ENDBRANCH   2   4
TORSDOF 9
ENDMDL
MODEL       67
REMARK 921   NORMALIZED FREE ENERGY PREDICTED BY IDOCK:   -4.79 KCAL/MOL
REMARK 922        TOTAL FREE ENERGY PREDICTED BY IDOCK:   -7.70 KCAL/MOL
REMARK 923 INTER-LIGAND FREE ENERGY PREDICTED BY IDOCK:   -7.47 KCAL/MOL
REMARK 924 INTRA-LIGAND FREE ENERGY PREDICTED BY IDOCK:   -0.23 KCAL/MOL
REMARK 927      BINDING AFFINITY PREDICTED BY RF-SCORE:    0.00 PKD
ROOT
HETATM    1  C   UNL     1     -12.806  11.931  63.373  1.00  0.00    -0.256 C  
HETATM    2  N   UNL     1     -12.992  12.610  64.636  1.00  0.00    -0.844 NA 
HETATM    3  H   UNL     1     -13.764  12.267  65.207  1.00  0.00     0.000 HD 
ENDROOT
BRANCH   2   4
HETATM    4  C   UNL     1     -12.272  13.661  65.178  1.00  0.00    -0.433 C  
HETATM    5  C   UNL     1     -12.106  14.789  64.453  1.00  0.00    -0.440 C  
HETATM    6  O   UNL     1     -10.936  15.974  66.076  1.00  0.00    -0.233 OA 
HETATM    7  N   UNL     1     -11.394  15.952  64.926  1.00  0.00    -0.304 N  
HETATM    8  O   UNL     1     -11.298  16.882  64.111  1.00  0.00    -1.208 OA 
BRANCH   4   9
HETATM    9  N   UNL     1     -11.731  13.493  66.438  1.00  0.00    -0.351 NA 
HETATM   10  H   UNL     1     -11.986  14.209  67.118  1.00  0.00     0.000 HD 
BRANCH   9  11
HETATM   11  C   UNL     1     -10.855  12.453  66.940  1.00  0.00    -0.251 C  
BRANCH  11  12
HETATM   12  C   UNL     1     -11.643  11.500  67.845  1.00  0.00    -0.282 C  
BRANCH  12  13
HETATM   13  S   UNL     1     -11.575  11.974  69.605  1.00  0.00    -0.276 SA 
BRANCH  13  14
HETATM   14  C   UNL     1     -12.191  10.434  70.362  1.00  0.00    -0.303 C  
BRANCH  14  15
HETATM   15  C   UNL     1     -11.077   9.488  70.595  1.00  0.00    -0.300 A  
HETATM   16  C   UNL     1      -9.712   9.569  70.442  1.00  0.00    -0.328 A  
HETATM   17  C   UNL     1      -9.196   8.309  70.833  1.00  0.00    -0.182 A  
HETATM   18  C   UNL     1     -10.278   7.535  71.193  1.00  0.00    -0.193 A  
HETATM   19  O   UNL     1     -11.429   8.247  71.039  1.00  0.00    -0.270 OA 
BRANCH  18  20
HETATM   20  C   UNL     1     -10.427   6.130  71.677  1.00  0.00    -0.222 C  
BRANCH  20  21
HETATM   21  N   UNL     1     -10.117   5.968  73.111  1.00  0.00    -0.179 NA 
HETATM   22  C   UNL     1     -10.363   7.206  73.857  1.00  0.00    -0.296 C  
HETATM   23  C   UNL     1     -10.942   4.890  73.665  1.00  0.00    -0.318 C  
ENDBRANCH  20  21
ENDBRANCH  18  20
ENDBRANCH  14  15
ENDBRANCH  13  14
ENDBRANCH  12  13
ENDBRANCH  11  12
ENDBRANCH   9  11
ENDBRANCH   4   9
ENDBRANCH   2   4
TORSDOF 9
ENDMDL
MODEL       68
REMARK 921   NORMALIZED FREE ENERGY PREDICTED BY IDOCK:   -4.75 KCAL/MOL
REMARK 922        TOTAL FREE ENERGY PREDICTED BY IDOCK:   -7.64 KCAL/MOL
REMARK 923 INTER-LIGAND FREE ENERGY PREDICTED BY IDOCK:   -7.03 KCAL/MOL
REMARK 924 INTRA-LIGAND FREE ENERGY PREDICTED BY IDOCK:   -0.61 KCAL/MOL
REMARK 927      BINDING AFFINITY PREDICTED BY RF-SCORE:    0.00 PKD
ROOT
HETATM    1  C   UNL     1     -12.430   8.231  72.292  1.00  0.00    -0.335 C  
HETATM    2  N   UNL     1     -13.092   9.124  71.369  1.00  0.00    -0.426 NA 
HETATM    3  H   UNL     1     -13.969   8.779  70.979  1.00  0.00     0.000 HD 
ENDROOT
BRANCH   2   4
HETATM    4  C   UNL     1     -12.704  10.381  70.937  1.00  0.00    -0.385 C  
HETATM    5  C   UNL     1     -13.144  11.471  71.604  1.00  0.00    -0.373 C  
HETATM    6  O   UNL     1     -11.993  13.040  70.331  1.00  0.00    -0.332 OA 
HETATM    7  N   UNL     1     -12.786  12.825  71.257  1.00  0.00    -0.327 N  
HETATM    8  O   UNL     1     -13.319  13.707  71.948  1.00  0.00    -0.370 OA 
BRANCH   4   9
HETATM    9  N   UNL     1     -11.896  10.462  69.819  1.00  0.00    -0.412 NA 
HETATM   10  H   UNL     1     -12.279  11.006  69.046  1.00  0.00     0.000 HD 
BRANCH   9  11
HETATM   11  C   UNL     1     -10.587   9.890  69.578  1.00  0.00    -0.242 C  
BRANCH  11  12
HETATM   12  C   UNL     1     -10.508   9.354  68.144  1.00  0.00    -0.220 C  
BRANCH  12  13
HETATM   13  S   UNL     1      -8.988   9.870  67.277  1.00  0.00    -0.135 SA 
BRANCH  13  14
HETATM   14  C   UNL     1      -9.208   8.967  65.709  1.00  0.00    -0.232 C  
BRANCH  14  15
HETATM   15  C   UNL     1      -9.472   9.909  64.599  1.00  0.00    -0.278 A  
HETATM   16  C   UNL     1      -8.968  10.043  63.325  1.00  0.00    -0.275 A  
HETATM   17  C   UNL     1      -9.630  11.157  62.754  1.00  0.00    -0.334 A  
HETATM   18  C   UNL     1     -10.491  11.639  63.717  1.00  0.00    -0.402 A  
HETATM   19  O   UNL     1     -10.389  10.886  64.848  1.00  0.00    -0.295 OA 
BRANCH  18  20
HETATM   20  C   UNL     1     -11.452  12.781  63.765  1.00  0.00    -0.470 C  
BRANCH  20  21
HETATM   21  N   UNL     1     -11.399  13.540  65.030  1.00  0.00    -0.312 NA 
HETATM   22  C   UNL     1     -10.801  14.865  64.836  1.00  0.00    -0.413 C  
HETATM   23  C   UNL     1     -12.756  13.688  65.562  1.00  0.00    -0.466 C  
ENDBRANCH  20  21
ENDBRANCH  18  20
ENDBRANCH  14  15
ENDBRANCH  13  14
ENDBRANCH  12  13
ENDBRANCH  11  12
ENDBRANCH   9  11
ENDBRANCH   4   9
ENDBRANCH   2   4
TORSDOF 9
ENDMDL
MODEL       69
REMARK 921   NORMALIZED FREE ENERGY PREDICTED BY IDOCK:   -4.75 KCAL/MOL
REMARK 922        TOTAL FREE ENERGY PREDICTED BY IDOCK:   -7.64 KCAL/MOL
REMARK 923 INTER-LIGAND FREE ENERGY PREDICTED BY IDOCK:   -7.15 KCAL/MOL
REMARK 924 INTRA-LIGAND FREE ENERGY PREDICTED BY IDOCK:   -0.49 KCAL/MOL
REMARK 927      BINDING AFFINITY PREDICTED BY RF-SCORE:    0.00 PKD
ROOT
HETATM    1  C   UNL     1      -9.371  19.689  66.630  1.00  0.00    -0.376 C  
HETATM    2  N   UNL     1      -9.285  18.298  67.012  1.00  0.00    -0.268 NA 
HETATM    3  H   UNL     1      -8.937  18.123  67.954  1.00  0.00     0.000 HD 
ENDROOT
BRANCH   2   4
HETATM    4  C   UNL     1      -9.609  17.169  66.279  1.00  0.00    -0.252 C  
HETATM    5  C   UNL     1     -10.644  17.222  65.411  1.00  0.00    -0.072 C  
HETATM    6  O   UNL     1     -10.419  15.054  64.601  1.00  0.00    -0.318 OA 
HETATM    7  N   UNL     1     -11.056  16.115  64.581  1.00  0.00    -0.411 N  
HETATM    8  O   UNL     1     -12.055  16.324  63.877  1.00  0.00    -0.986 OA 
BRANCH   4   9
HETATM    9  N   UNL     1      -8.867  16.023  66.491  1.00  0.00    -0.274 NA 
HETATM   10  H   UNL     1      -8.920  15.328  65.746  1.00  0.00     0.000 HD 
BRANCH   9  11
HETATM   11  C   UNL     1      -8.023  15.660  67.611  1.00  0.00    -0.153 C  
BRANCH  11  12
HETATM   12  C   UNL     1      -8.882  15.446  68.863  1.00  0.00    -0.211 C  
BRANCH  12  13
HETATM   13  S   UNL     1     -10.264  14.288  68.585  1.00  0.00    -0.239 SA 
BRANCH  13  14
HETATM   14  C   UNL     1     -11.553  15.102  69.583  1.00  0.00    -0.311 C  
BRANCH  14  15
HETATM   15  C   UNL     1     -12.207  14.128  70.485  1.00  0.00    -0.361 A  
HETATM   16  C   UNL     1     -12.851  14.236  71.696  1.00  0.00    -0.424 A  
HETATM   17  C   UNL     1     -13.252  12.924  72.047  1.00  0.00    -0.549 A  
HETATM   18  C   UNL     1     -12.821  12.095  71.034  1.00  0.00    -0.166 A  
HETATM   19  O   UNL     1     -12.173  12.825  70.083  1.00  0.00    -0.312 OA 
BRANCH  18  20
HETATM   20  C   UNL     1     -12.905  10.624  70.797  1.00  0.00    -0.352 C  
BRANCH  20  21
HETATM   21  N   UNL     1     -12.350   9.818  71.903  1.00  0.00    -0.368 NA 
HETATM   22  C   UNL     1     -13.321   8.831  72.386  1.00  0.00    -0.399 C  
HETATM   23  C   UNL     1     -11.141   9.131  71.441  1.00  0.00    -0.345 C  
ENDBRANCH  20  21
ENDBRANCH  18  20
ENDBRANCH  14  15
ENDBRANCH  13  14
ENDBRANCH  12  13
ENDBRANCH  11  12
ENDBRANCH   9  11
ENDBRANCH   4   9
ENDBRANCH   2   4
TORSDOF 9
ENDMDL
MODEL       70
REMARK 921   NORMALIZED FREE ENERGY PREDICTED BY IDOCK:   -4.75 KCAL/MOL
REMARK 922        TOTAL FREE ENERGY PREDICTED BY IDOCK:   -7.63 KCAL/MOL
REMARK 923 INTER-LIGAND FREE ENERGY PREDICTED BY IDOCK:   -6.77 KCAL/MOL
REMARK 924 INTRA-LIGAND FREE ENERGY PREDICTED BY IDOCK:   -0.86 KCAL/MOL
REMARK 927      BINDING AFFINITY PREDICTED BY RF-SCORE:    0.00 PKD
ROOT
HETATM    1  C   UNL     1     -10.411  20.054  66.296  1.00  0.00    -0.455 C  
HETATM    2  N   UNL     1     -10.613  18.823  67.026  1.00  0.00    -0.421 NA 
HETATM    3  H   UNL     1     -11.452  18.789  67.604  1.00  0.00     0.000 HD 
ENDROOT
BRANCH   2   4
HETATM    4  C   UNL     1      -9.827  17.683  67.052  1.00  0.00    -0.307 C  
HETATM    5  C   UNL     1      -9.107  17.404  68.161  1.00  0.00    -0.267 C  
HETATM    6  O   UNL     1      -8.227  15.390  67.403  1.00  0.00    -0.155 OA 
HETATM    7  N   UNL     1      -8.273  16.235  68.306  1.00  0.00    -0.167 N  
HETATM    8  O   UNL     1      -7.646  16.161  69.373  1.00  0.00    -0.234 OA 
BRANCH   4   9
HETATM    9  N   UNL     1      -9.799  16.890  65.920  1.00  0.00    -0.520 NA 
HETATM   10  H   UNL     1      -8.873  16.560  65.646  1.00  0.00     0.000 HD 
BRANCH   9  11
HETATM   11  C   UNL     1     -10.885  16.455  65.065  1.00  0.00    -0.273 C  
BRANCH  11  12
HETATM   12  C   UNL     1     -10.851  14.931  64.914  1.00  0.00    -0.413 C  
BRANCH  12  13
HETATM   13  S   UNL     1     -12.515  14.181  64.913  1.00  0.00    -0.352 SA 
BRANCH  13  14
HETATM   14  C   UNL     1     -12.059  12.423  65.073  1.00  0.00    -0.407 C  
BRANCH  14  15
HETATM   15  C   UNL     1     -11.459  12.159  66.400  1.00  0.00    -0.370 A  
HETATM   16  C   UNL     1     -10.324  11.502  66.817  1.00  0.00    -0.262 A  
HETATM   17  C   UNL     1     -10.312  11.593  68.230  1.00  0.00    -0.212 A  
HETATM   18  C   UNL     1     -11.445  12.292  68.589  1.00  0.00    -0.307 A  
HETATM   19  O   UNL     1     -12.153  12.630  67.475  1.00  0.00    -0.411 OA 
BRANCH  18  20
HETATM   20  C   UNL     1     -12.027  12.714  69.897  1.00  0.00    -0.295 C  
BRANCH  20  21
HETATM   21  N   UNL     1     -12.446  14.129  69.925  1.00  0.00    -0.319 NA 
HETATM   22  C   UNL     1     -13.187  14.444  71.150  1.00  0.00    -0.350 C  
HETATM   23  C   UNL     1     -11.261  14.986  69.835  1.00  0.00    -0.276 C  
ENDBRANCH  20  21
ENDBRANCH  18  20
ENDBRANCH  14  15
ENDBRANCH  13  14
ENDBRANCH  12  13
ENDBRANCH  11  12
ENDBRANCH   9  11
ENDBRANCH   4   9
ENDBRANCH   2   4
TORSDOF 9
ENDMDL
MODEL       71
REMARK 921   NORMALIZED FREE ENERGY PREDICTED BY IDOCK:   -4.74 KCAL/MOL
REMARK 922        TOTAL FREE ENERGY PREDICTED BY IDOCK:   -7.63 KCAL/MOL
REMARK 923 INTER-LIGAND FREE ENERGY PREDICTED BY IDOCK:   -7.18 KCAL/MOL
REMARK 924 INTRA-LIGAND FREE ENERGY PREDICTED BY IDOCK:   -0.45 KCAL/MOL
REMARK 927      BINDING AFFINITY PREDICTED BY RF-SCORE:    0.00 PKD
ROOT
HETATM    1  C   UNL     1     -12.756  14.169  71.645  1.00  0.00    -0.349 C  
HETATM    2  N   UNL     1     -12.180  13.291  70.652  1.00  0.00    -0.433 NA 
HETATM    3  H   UNL     1     -11.803  13.754  69.825  1.00  0.00     0.000 HD 
ENDROOT
BRANCH   2   4
HETATM    4  C   UNL     1     -12.070  11.911  70.663  1.00  0.00    -0.294 C  
HETATM    5  C   UNL     1     -12.800  11.200  71.551  1.00  0.00    -0.437 C  
HETATM    6  O   UNL     1     -12.105   9.098  70.838  1.00  0.00    -0.283 OA 
HETATM    7  N   UNL     1     -12.780   9.759  71.638  1.00  0.00    -0.388 N  
HETATM    8  O   UNL     1     -13.476   9.273  72.541  1.00  0.00    -0.464 OA 
BRANCH   4   9
HETATM    9  N   UNL     1     -11.190  11.324  69.775  1.00  0.00    -0.403 NA 
HETATM   10  H   UNL     1     -10.250  11.165  70.137  1.00  0.00     0.000 HD 
BRANCH   9  11
HETATM   11  C   UNL     1     -11.401  10.899  68.405  1.00  0.00    -0.304 C  
BRANCH  11  12
HETATM   12  C   UNL     1     -10.063  10.858  67.660  1.00  0.00    -0.179 C  
BRANCH  12  13
HETATM   13  S   UNL     1     -10.124   9.838  66.148  1.00  0.00    -0.211 SA 
BRANCH  13  14
HETATM   14  C   UNL     1      -9.938  11.143  64.889  1.00  0.00    -0.278 C  
BRANCH  14  15
HETATM   15  C   UNL     1     -10.796  12.305  65.213  1.00  0.00    -0.293 A  
HETATM   16  C   UNL     1     -12.157  12.507  65.231  1.00  0.00    -0.500 A  
HETATM   17  C   UNL     1     -12.351  13.853  65.624  1.00  0.00    -0.511 A  
HETATM   18  C   UNL     1     -11.097  14.392  65.815  1.00  0.00    -0.316 A  
HETATM   19  O   UNL     1     -10.144  13.453  65.555  1.00  0.00    -0.295 OA 
BRANCH  18  20
HETATM   20  C   UNL     1     -10.603  15.744  66.214  1.00  0.00    -0.310 C  
BRANCH  20  21
HETATM   21  N   UNL     1     -10.875  16.075  67.626  1.00  0.00    -0.323 NA 
HETATM   22  C   UNL     1     -10.081  15.242  68.535  1.00  0.00    -0.222 C  
HETATM   23  C   UNL     1     -10.565  17.488  67.860  1.00  0.00    -0.390 C  
ENDBRANCH  20  21
ENDBRANCH  18  20
ENDBRANCH  14  15
ENDBRANCH  13  14
ENDBRANCH  12  13
ENDBRANCH  11  12
ENDBRANCH   9  11
ENDBRANCH   4   9
ENDBRANCH   2   4
TORSDOF 9
ENDMDL
MODEL       72
REMARK 921   NORMALIZED FREE ENERGY PREDICTED BY IDOCK:   -4.73 KCAL/MOL
REMARK 922        TOTAL FREE ENERGY PREDICTED BY IDOCK:   -7.60 KCAL/MOL
REMARK 923 INTER-LIGAND FREE ENERGY PREDICTED BY IDOCK:   -7.13 KCAL/MOL
REMARK 924 INTRA-LIGAND FREE ENERGY PREDICTED BY IDOCK:   -0.47 KCAL/MOL
REMARK 927      BINDING AFFINITY PREDICTED BY RF-SCORE:    0.00 PKD
ROOT
HETATM    1  C   UNL     1      -8.905  18.416  68.337  1.00  0.00    -0.320 C  
HETATM    2  N   UNL     1      -9.555  17.125  68.362  1.00  0.00    -0.271 NA 
HETATM    3  H   UNL     1      -9.758  16.755  69.290  1.00  0.00     0.000 HD 
ENDROOT
BRANCH   2   4
HETATM    4  C   UNL     1      -9.940  16.321  67.303  1.00  0.00    -0.250 C  
HETATM    5  C   UNL     1     -10.430  16.896  66.182  1.00  0.00    -0.272 C  
HETATM    6  O   UNL     1     -10.707  14.928  64.976  1.00  0.00    -0.380 OA 
HETATM    7  N   UNL     1     -10.840  16.158  65.013  1.00  0.00    -0.416 N  
HETATM    8  O   UNL     1     -11.309  16.843  64.091  1.00  0.00    -1.208 OA 
BRANCH   4   9
HETATM    9  N   UNL     1      -9.828  14.952  67.455  1.00  0.00    -0.217 NA 
HETATM   10  H   UNL     1      -9.390  14.464  66.674  1.00  0.00     0.000 HD 
BRANCH   9  11
HETATM   11  C   UNL     1     -10.238  14.105  68.557  1.00  0.00    -0.247 C  
BRANCH  11  12
HETATM   12  C   UNL     1     -11.269  13.081  68.071  1.00  0.00    -0.278 C  
BRANCH  12  13
HETATM   13  S   UNL     1     -11.147  11.483  68.944  1.00  0.00    -0.253 SA 
BRANCH  13  14
HETATM   14  C   UNL     1     -12.073  11.889  70.461  1.00  0.00    -0.331 C  
BRANCH  14  15
HETATM   15  C   UNL     1     -12.435  10.657  71.195  1.00  0.00    -0.418 A  
HETATM   16  C   UNL     1     -13.528  10.281  71.942  1.00  0.00    -0.403 A  
HETATM   17  C   UNL     1     -13.266   8.964  72.390  1.00  0.00    -0.482 A  
HETATM   18  C   UNL     1     -12.026   8.619  71.895  1.00  0.00    -0.356 A  
HETATM   19  O   UNL     1     -11.511   9.654  71.174  1.00  0.00    -0.323 OA 
BRANCH  18  20
HETATM   20  C   UNL     1     -11.172   7.399  72.007  1.00  0.00    -0.251 C  
BRANCH  20  21
HETATM   21  N   UNL     1      -9.810   7.585  71.469  1.00  0.00    -0.166 NA 
HETATM   22  C   UNL     1      -8.792   7.368  72.502  1.00  0.00    -0.128 C  
HETATM   23  C   UNL     1      -9.595   6.648  70.363  1.00  0.00    -0.165 C  
ENDBRANCH  20  21
ENDBRANCH  18  20
ENDBRANCH  14  15
ENDBRANCH  13  14
ENDBRANCH  12  13
ENDBRANCH  11  12
ENDBRANCH   9  11
ENDBRANCH   4   9
ENDBRANCH   2   4
TORSDOF 9
ENDMDL
MODEL       73
REMARK 921   NORMALIZED FREE ENERGY PREDICTED BY IDOCK:   -4.72 KCAL/MOL
REMARK 922        TOTAL FREE ENERGY PREDICTED BY IDOCK:   -7.59 KCAL/MOL
REMARK 923 INTER-LIGAND FREE ENERGY PREDICTED BY IDOCK:   -6.98 KCAL/MOL
REMARK 924 INTRA-LIGAND FREE ENERGY PREDICTED BY IDOCK:   -0.61 KCAL/MOL
REMARK 927      BINDING AFFINITY PREDICTED BY RF-SCORE:    0.00 PKD
ROOT
HETATM    1  C   UNL     1     -10.268   4.702  66.143  1.00  0.00    -0.277 C  
HETATM    2  N   UNL     1     -11.120   5.786  66.576  1.00  0.00    -0.744 NA 
HETATM    3  H   UNL     1     -11.914   5.989  65.969  1.00  0.00     0.000 HD 
ENDROOT
BRANCH   2   4
HETATM    4  C   UNL     1     -11.010   6.589  67.699  1.00  0.00    -0.337 C  
HETATM    5  C   UNL     1     -11.119   6.027  68.924  1.00  0.00    -0.279 C  
HETATM    6  O   UNL     1     -10.734   7.972  70.139  1.00  0.00    -0.238 OA 
HETATM    7  N   UNL     1     -10.999   6.763  70.159  1.00  0.00    -0.271 N  
HETATM    8  O   UNL     1     -11.172   6.097  71.191  1.00  0.00    -0.291 OA 
BRANCH   4   9
HETATM    9  N   UNL     1     -10.818   7.944  67.510  1.00  0.00    -0.517 NA 
HETATM   10  H   UNL     1     -11.103   8.535  68.291  1.00  0.00     0.000 HD 
BRANCH   9  11
HETATM   11  C   UNL     1     -10.272   8.653  66.371  1.00  0.00    -0.154 C  
BRANCH  11  12
HETATM   12  C   UNL     1      -9.102   9.537  66.818  1.00  0.00    -0.146 C  
BRANCH  12  13
HETATM   13  S   UNL     1      -8.460  10.595  65.478  1.00  0.00    -0.156 SA 
BRANCH  13  14
HETATM   14  C   UNL     1      -9.785  10.368  64.246  1.00  0.00    -0.326 C  
BRANCH  14  15
HETATM   15  C   UNL     1     -10.642  11.572  64.175  1.00  0.00    -0.363 A  
HETATM   16  C   UNL     1     -11.748  11.910  63.429  1.00  0.00    -0.500 A  
HETATM   17  C   UNL     1     -12.105  13.222  63.826  1.00  0.00    -0.546 A  
HETATM   18  C   UNL     1     -11.191  13.607  64.783  1.00  0.00    -0.360 A  
HETATM   19  O   UNL     1     -10.289  12.606  64.991  1.00  0.00    -0.289 OA 
BRANCH  18  20
HETATM   20  C   UNL     1     -10.995  14.853  65.581  1.00  0.00    -0.344 C  
BRANCH  20  21
HETATM   21  N   UNL     1     -10.478  14.603  66.942  1.00  0.00    -0.267 NA 
HETATM   22  C   UNL     1      -9.831  15.796  67.497  1.00  0.00    -0.229 C  
HETATM   23  C   UNL     1     -11.584  14.196  67.812  1.00  0.00    -0.347 C  
ENDBRANCH  20  21
ENDBRANCH  18  20
ENDBRANCH  14  15
ENDBRANCH  13  14
ENDBRANCH  12  13
ENDBRANCH  11  12
ENDBRANCH   9  11
ENDBRANCH   4   9
ENDBRANCH   2   4
TORSDOF 9
ENDMDL
MODEL       74
REMARK 921   NORMALIZED FREE ENERGY PREDICTED BY IDOCK:   -4.72 KCAL/MOL
REMARK 922        TOTAL FREE ENERGY PREDICTED BY IDOCK:   -7.59 KCAL/MOL
REMARK 923 INTER-LIGAND FREE ENERGY PREDICTED BY IDOCK:   -7.03 KCAL/MOL
REMARK 924 INTRA-LIGAND FREE ENERGY PREDICTED BY IDOCK:   -0.56 KCAL/MOL
REMARK 927      BINDING AFFINITY PREDICTED BY RF-SCORE:    0.00 PKD
ROOT
HETATM    1  C   UNL     1      -9.419   9.379  69.044  1.00  0.00    -0.160 C  
HETATM    2  N   UNL     1     -10.089  10.429  69.777  1.00  0.00    -0.394 NA 
HETATM    3  H   UNL     1      -9.639  11.343  69.743  1.00  0.00     0.000 HD 
ENDROOT
BRANCH   2   4
HETATM    4  C   UNL     1     -11.256  10.369  70.521  1.00  0.00    -0.314 C  
HETATM    5  C   UNL     1     -11.716   9.165  70.927  1.00  0.00    -0.284 C  
HETATM    6  O   UNL     1     -13.544   9.970  72.118  1.00  0.00    -0.395 OA 
HETATM    7  N   UNL     1     -12.906   8.985  71.723  1.00  0.00    -0.350 N  
HETATM    8  O   UNL     1     -13.208   7.807  71.967  1.00  0.00    -0.281 OA 
BRANCH   4   9
HETATM    9  N   UNL     1     -11.913  11.553  70.793  1.00  0.00    -0.419 NA 
HETATM   10  H   UNL     1     -12.301  11.627  71.733  1.00  0.00     0.000 HD 
BRANCH   9  11
HETATM   11  C   UNL     1     -12.133  12.707  69.945  1.00  0.00    -0.252 C  
BRANCH  11  12
HETATM   12  C   UNL     1     -12.173  13.980  70.797  1.00  0.00    -0.367 C  
BRANCH  12  13
HETATM   13  S   UNL     1     -10.956  15.230  70.261  1.00  0.00    -0.277 SA 
BRANCH  13  14
HETATM   14  C   UNL     1     -11.784  15.839  68.755  1.00  0.00    -0.378 C  
BRANCH  14  15
HETATM   15  C   UNL     1     -11.057  15.392  67.546  1.00  0.00    -0.315 A  
HETATM   16  C   UNL     1     -10.103  15.973  66.741  1.00  0.00    -0.272 A  
HETATM   17  C   UNL     1      -9.813  15.026  65.729  1.00  0.00    -0.386 A  
HETATM   18  C   UNL     1     -10.612  13.930  65.973  1.00  0.00    -0.293 A  
HETATM   19  O   UNL     1     -11.381  14.154  67.076  1.00  0.00    -0.306 OA 
BRANCH  18  20
HETATM   20  C   UNL     1     -10.803  12.617  65.288  1.00  0.00    -0.288 C  
BRANCH  20  21
HETATM   21  N   UNL     1     -10.822  12.721  63.815  1.00  0.00    -0.410 NA 
HETATM   22  C   UNL     1     -10.052  11.640  63.192  1.00  0.00    -0.376 C  
HETATM   23  C   UNL     1     -12.209  12.669  63.345  1.00  0.00    -0.517 C  
ENDBRANCH  20  21
ENDBRANCH  18  20
ENDBRANCH  14  15
ENDBRANCH  13  14
ENDBRANCH  12  13
ENDBRANCH  11  12
ENDBRANCH   9  11
ENDBRANCH   4   9
ENDBRANCH   2   4
TORSDOF 9
ENDMDL
MODEL       75
REMARK 921   NORMALIZED FREE ENERGY PREDICTED BY IDOCK:   -4.71 KCAL/MOL
REMARK 922        TOTAL FREE ENERGY PREDICTED BY IDOCK:   -7.58 KCAL/MOL
REMARK 923 INTER-LIGAND FREE ENERGY PREDICTED BY IDOCK:   -7.04 KCAL/MOL
REMARK 924 INTRA-LIGAND FREE ENERGY PREDICTED BY IDOCK:   -0.54 KCAL/MOL
REMARK 927      BINDING AFFINITY PREDICTED BY RF-SCORE:    0.00 PKD
ROOT
HETATM    1  C   UNL     1     -10.674  15.804  65.068  1.00  0.00    -0.421 C  
HETATM    2  N   UNL     1     -11.006  14.568  64.398  1.00  0.00    -0.621 NA 
HETATM    3  H   UNL     1     -11.489  14.670  63.506  1.00  0.00     0.000 HD 
ENDROOT
BRANCH   2   4
HETATM    4  C   UNL     1     -10.763  13.264  64.797  1.00  0.00    -0.378 C  
HETATM    5  C   UNL     1     -10.363  12.358  63.877  1.00  0.00    -0.423 C  
HETATM    6  O   UNL     1     -10.111  10.579  65.353  1.00  0.00    -0.271 OA 
HETATM    7  N   UNL     1     -10.061  10.981  64.183  1.00  0.00    -0.315 N  
HETATM    8  O   UNL     1      -9.754  10.277  63.209  1.00  0.00    -0.301 OA 
BRANCH   4   9
HETATM    9  N   UNL     1     -10.966  12.944  66.125  1.00  0.00    -0.277 NA 
HETATM   10  H   UNL     1     -10.159  12.542  66.602  1.00  0.00     0.000 HD 
BRANCH   9  11
HETATM   11  C   UNL     1     -12.152  13.093  66.944  1.00  0.00    -0.316 C  
BRANCH  11  12
HETATM   12  C   UNL     1     -11.777  13.001  68.427  1.00  0.00    -0.351 C  
BRANCH  12  13
HETATM   13  S   UNL     1     -11.440  11.292  68.969  1.00  0.00    -0.334 SA 
BRANCH  13  14
HETATM   14  C   UNL     1     -12.228  11.330  70.612  1.00  0.00    -0.393 C  
BRANCH  14  15
HETATM   15  C   UNL     1     -12.577   9.962  71.054  1.00  0.00    -0.336 A  
HETATM   16  C   UNL     1     -13.690   9.408  71.644  1.00  0.00    -0.393 A  
HETATM   17  C   UNL     1     -13.399   8.034  71.823  1.00  0.00    -0.370 A  
HETATM   18  C   UNL     1     -12.123   7.835  71.339  1.00  0.00    -0.311 A  
HETATM   19  O   UNL     1     -11.614   9.012  70.879  1.00  0.00    -0.279 OA 
BRANCH  18  20
HETATM   20  C   UNL     1     -11.229   6.644  71.244  1.00  0.00    -0.282 C  
BRANCH  20  21
HETATM   21  N   UNL     1     -10.314   6.687  70.086  1.00  0.00    -0.197 NA 
HETATM   22  C   UNL     1      -9.062   5.977  70.365  1.00  0.00    -0.149 C  
HETATM   23  C   UNL     1     -10.973   6.080  68.926  1.00  0.00    -0.325 C  
ENDBRANCH  20  21
ENDBRANCH  18  20
ENDBRANCH  14  15
ENDBRANCH  13  14
ENDBRANCH  12  13
ENDBRANCH  11  12
ENDBRANCH   9  11
ENDBRANCH   4   9
ENDBRANCH   2   4
TORSDOF 9
ENDMDL
MODEL       76
REMARK 921   NORMALIZED FREE ENERGY PREDICTED BY IDOCK:   -4.70 KCAL/MOL
REMARK 922        TOTAL FREE ENERGY PREDICTED BY IDOCK:   -7.56 KCAL/MOL
REMARK 923 INTER-LIGAND FREE ENERGY PREDICTED BY IDOCK:   -7.43 KCAL/MOL
REMARK 924 INTRA-LIGAND FREE ENERGY PREDICTED BY IDOCK:   -0.14 KCAL/MOL
REMARK 927      BINDING AFFINITY PREDICTED BY RF-SCORE:    0.00 PKD
ROOT
HETATM    1  C   UNL     1     -14.320  14.767  72.000  1.00  0.00    -0.554 C  
HETATM    2  N   UNL     1     -13.128  14.378  71.281  1.00  0.00    -0.337 NA 
HETATM    3  H   UNL     1     -12.575  15.146  70.902  1.00  0.00     0.000 HD 
ENDROOT
BRANCH   2   4
HETATM    4  C   UNL     1     -12.631  13.110  71.033  1.00  0.00    -0.312 C  
HETATM    5  C   UNL     1     -13.122  12.062  71.732  1.00  0.00    -0.355 C  
HETATM    6  O   UNL     1     -11.868  10.422  70.663  1.00  0.00    -0.294 OA 
HETATM    7  N   UNL     1     -12.695  10.697  71.542  1.00  0.00    -0.425 N  
HETATM    8  O   UNL     1     -13.218   9.868  72.302  1.00  0.00    -0.431 OA 
BRANCH   4   9
HETATM    9  N   UNL     1     -11.630  12.978  70.091  1.00  0.00    -0.536 NA 
HETATM   10  H   UNL     1     -10.766  12.557  70.432  1.00  0.00     0.000 HD 
BRANCH   9  11
HETATM   11  C   UNL     1     -11.621  13.348  68.690  1.00  0.00    -0.327 C  
BRANCH  11  12
HETATM   12  C   UNL     1     -10.361  14.160  68.373  1.00  0.00    -0.249 C  
BRANCH  12  13
HETATM   13  S   UNL     1     -10.727  15.743  67.541  1.00  0.00    -0.314 SA 
BRANCH  13  14
HETATM   14  C   UNL     1      -9.756  16.873  68.591  1.00  0.00    -0.267 C  
BRANCH  14  15
HETATM   15  C   UNL     1      -9.622  18.198  67.945  1.00  0.00    -0.288 A  
HETATM   16  C   UNL     1     -10.381  19.346  67.962  1.00  0.00    -0.536 A  
HETATM   17  C   UNL     1      -9.714  20.271  67.123  1.00  0.00    -0.592 A  
HETATM   18  C   UNL     1      -8.594  19.629  66.639  1.00  0.00    -0.343 A  
HETATM   19  O   UNL     1      -8.541  18.359  67.130  1.00  0.00    -0.253 OA 
BRANCH  18  20
HETATM   20  C   UNL     1      -7.494  20.028  65.713  1.00  0.00    -0.295 C  
BRANCH  20  21
HETATM   21  N   UNL     1      -6.295  20.534  66.409  1.00  0.00    -0.214 NA 
HETATM   22  C   UNL     1      -6.609  20.959  67.777  1.00  0.00    -0.340 C  
HETATM   23  C   UNL     1      -5.276  19.482  66.445  1.00  0.00    -0.161 C  
ENDBRANCH  20  21
ENDBRANCH  18  20
ENDBRANCH  14  15
ENDBRANCH  13  14
ENDBRANCH  12  13
ENDBRANCH  11  12
ENDBRANCH   9  11
ENDBRANCH   4   9
ENDBRANCH   2   4
TORSDOF 9
ENDMDL
MODEL       77
REMARK 921   NORMALIZED FREE ENERGY PREDICTED BY IDOCK:   -4.69 KCAL/MOL
REMARK 922        TOTAL FREE ENERGY PREDICTED BY IDOCK:   -7.55 KCAL/MOL
REMARK 923 INTER-LIGAND FREE ENERGY PREDICTED BY IDOCK:   -7.02 KCAL/MOL
REMARK 924 INTRA-LIGAND FREE ENERGY PREDICTED BY IDOCK:   -0.53 KCAL/MOL
REMARK 927      BINDING AFFINITY PREDICTED BY RF-SCORE:    0.00 PKD
ROOT
HETATM    1  C   UNL     1     -11.340   4.724  73.361  1.00  0.00    -0.312 C  
HETATM    2  N   UNL     1     -12.030   5.791  72.672  1.00  0.00    -0.512 NA 
HETATM    3  H   UNL     1     -12.843   6.170  73.157  1.00  0.00     0.000 HD 
ENDROOT
BRANCH   2   4
HETATM    4  C   UNL     1     -11.744   6.370  71.448  1.00  0.00    -0.306 C  
HETATM    5  C   UNL     1     -10.728   5.874  70.706  1.00  0.00    -0.277 C  
HETATM    6  O   UNL     1     -11.011   7.296  68.888  1.00  0.00    -0.139 OA 
HETATM    7  N   UNL     1     -10.356   6.384  69.409  1.00  0.00    -0.193 N  
HETATM    8  O   UNL     1      -9.369   5.840  68.889  1.00  0.00    -0.120 OA 
BRANCH   4   9
HETATM    9  N   UNL     1     -12.502   7.454  71.050  1.00  0.00    -0.510 NA 
HETATM   10  H   UNL     1     -12.069   8.051  70.346  1.00  0.00     0.000 HD 
BRANCH   9  11
HETATM   11  C   UNL     1     -13.821   7.871  71.482  1.00  0.00    -0.342 C  
BRANCH  11  12
HETATM   12  C   UNL     1     -13.745   9.265  72.114  1.00  0.00    -0.453 C  
BRANCH  12  13
HETATM   13  S   UNL     1     -12.770  10.443  71.119  1.00  0.00    -0.447 SA 
BRANCH  13  14
HETATM   14  C   UNL     1     -13.180  11.993  71.986  1.00  0.00    -0.375 C  
BRANCH  14  15
HETATM   15  C   UNL     1     -12.748  13.164  71.193  1.00  0.00    -0.300 A  
HETATM   16  C   UNL     1     -12.992  14.516  71.280  1.00  0.00    -0.403 A  
HETATM   17  C   UNL     1     -12.286  15.114  70.209  1.00  0.00    -0.398 A  
HETATM   18  C   UNL     1     -11.661  14.091  69.528  1.00  0.00    -0.313 A  
HETATM   19  O   UNL     1     -11.949  12.898  70.120  1.00  0.00    -0.341 OA 
BRANCH  18  20
HETATM   20  C   UNL     1     -10.789  14.038  68.318  1.00  0.00    -0.255 C  
BRANCH  20  21
HETATM   21  N   UNL     1     -11.494  14.391  67.070  1.00  0.00    -0.346 NA 
HETATM   22  C   UNL     1     -10.576  14.967  66.081  1.00  0.00    -0.318 C  
HETATM   23  C   UNL     1     -12.124  13.191  66.514  1.00  0.00    -0.358 C  
ENDBRANCH  20  21
ENDBRANCH  18  20
ENDBRANCH  14  15
ENDBRANCH  13  14
ENDBRANCH  12  13
ENDBRANCH  11  12
ENDBRANCH   9  11
ENDBRANCH   4   9
ENDBRANCH   2   4
TORSDOF 9
ENDMDL
MODEL       78
REMARK 921   NORMALIZED FREE ENERGY PREDICTED BY IDOCK:   -4.69 KCAL/MOL
REMARK 922        TOTAL FREE ENERGY PREDICTED BY IDOCK:   -7.54 KCAL/MOL
REMARK 923 INTER-LIGAND FREE ENERGY PREDICTED BY IDOCK:   -6.79 KCAL/MOL
REMARK 924 INTRA-LIGAND FREE ENERGY PREDICTED BY IDOCK:   -0.75 KCAL/MOL
REMARK 927      BINDING AFFINITY PREDICTED BY RF-SCORE:    0.00 PKD
ROOT
HETATM    1  C   UNL     1      -7.422   9.527  64.791  1.00  0.00    -0.112 C  
HETATM    2  N   UNL     1      -8.234  10.722  64.795  1.00  0.00    -0.362 NA 
HETATM    3  H   UNL     1      -7.870  11.501  64.247  1.00  0.00     0.000 HD 
ENDROOT
BRANCH   2   4
HETATM    4  C   UNL     1      -9.438  10.959  65.437  1.00  0.00    -0.214 C  
HETATM    5  C   UNL     1      -9.475  10.952  66.788  1.00  0.00    -0.177 C  
HETATM    6  O   UNL     1     -11.726  11.502  66.992  1.00  0.00    -0.556 OA 
HETATM    7  N   UNL     1     -10.667  11.207  67.561  1.00  0.00    -0.220 N  
HETATM    8  O   UNL     1     -10.531  11.115  68.791  1.00  0.00    -0.188 OA 
BRANCH   4   9
HETATM    9  N   UNL     1     -10.559  11.169  64.657  1.00  0.00    -0.330 NA 
HETATM   10  H   UNL     1     -11.350  10.559  64.863  1.00  0.00     0.000 HD 
BRANCH   9  11
HETATM   11  C   UNL     1     -10.781  12.124  63.591  1.00  0.00    -0.467 C  
BRANCH  11  12
HETATM   12  C   UNL     1     -12.238  12.598  63.610  1.00  0.00    -0.536 C  
BRANCH  12  13
HETATM   13  S   UNL     1     -12.483  14.099  64.618  1.00  0.00    -0.289 SA 
BRANCH  13  14
HETATM   14  C   UNL     1     -10.745  14.506  64.990  1.00  0.00    -0.427 C  
BRANCH  14  15
HETATM   15  C   UNL     1     -10.641  15.211  66.287  1.00  0.00    -0.310 A  
HETATM   16  C   UNL     1     -10.580  14.791  67.596  1.00  0.00    -0.262 A  
HETATM   17  C   UNL     1     -10.496  15.965  68.383  1.00  0.00    -0.254 A  
HETATM   18  C   UNL     1     -10.520  17.029  67.507  1.00  0.00    -0.334 A  
HETATM   19  O   UNL     1     -10.620  16.573  66.227  1.00  0.00    -0.294 OA 
BRANCH  18  20
HETATM   20  C   UNL     1     -10.479  18.511  67.682  1.00  0.00    -0.417 C  
BRANCH  20  21
HETATM   21  N   UNL     1      -9.610  19.194  66.703  1.00  0.00    -0.329 NA 
HETATM   22  C   UNL     1     -10.389  20.038  65.792  1.00  0.00    -0.369 C  
HETATM   23  C   UNL     1      -8.631  20.017  67.418  1.00  0.00    -0.341 C  
ENDBRANCH  20  21
ENDBRANCH  18  20
ENDBRANCH  14  15
ENDBRANCH  13  14
ENDBRANCH  12  13
ENDBRANCH  11  12
ENDBRANCH   9  11
ENDBRANCH   4   9
ENDBRANCH   2   4
TORSDOF 9
ENDMDL
MODEL       79
REMARK 921   NORMALIZED FREE ENERGY PREDICTED BY IDOCK:   -4.65 KCAL/MOL
REMARK 922        TOTAL FREE ENERGY PREDICTED BY IDOCK:   -7.49 KCAL/MOL
REMARK 923 INTER-LIGAND FREE ENERGY PREDICTED BY IDOCK:   -6.94 KCAL/MOL
REMARK 924 INTRA-LIGAND FREE ENERGY PREDICTED BY IDOCK:   -0.56 KCAL/MOL
REMARK 927      BINDING AFFINITY PREDICTED BY RF-SCORE:    0.00 PKD
ROOT
HETATM    1  C   UNL     1     -12.512  13.553  70.400  1.00  0.00    -0.275 C  
HETATM    2  N   UNL     1     -11.661  12.393  70.259  1.00  0.00    -0.546 NA 
HETATM    3  H   UNL     1     -10.696  12.588  69.993  1.00  0.00     0.000 HD 
ENDROOT
BRANCH   2   4
HETATM    4  C   UNL     1     -11.972  11.055  70.433  1.00  0.00    -0.368 C  
HETATM    5  C   UNL     1     -12.767  10.693  71.464  1.00  0.00    -0.444 C  
HETATM    6  O   UNL     1     -12.833   8.424  70.960  1.00  0.00    -0.143 OA 
HETATM    7  N   UNL     1     -13.172   9.333  71.728  1.00  0.00    -0.377 N  
HETATM    8  O   UNL     1     -13.866   9.175  72.744  1.00  0.00    -0.430 OA 
BRANCH   4   9
HETATM    9  N   UNL     1     -11.427  10.143  69.550  1.00  0.00    -0.395 NA 
HETATM   10  H   UNL     1     -11.923   9.254  69.485  1.00  0.00     0.000 HD 
BRANCH   9  11
HETATM   11  C   UNL     1     -10.258  10.259  68.701  1.00  0.00    -0.180 C  
BRANCH  11  12
HETATM   12  C   UNL     1     -10.620   9.880  67.261  1.00  0.00    -0.252 C  
BRANCH  12  13
HETATM   13  S   UNL     1     -10.188  11.180  66.056  1.00  0.00    -0.257 SA 
BRANCH  13  14
HETATM   14  C   UNL     1     -10.039  12.605  67.183  1.00  0.00    -0.223 C  
BRANCH  14  15
HETATM   15  C   UNL     1     -10.263  13.872  66.452  1.00  0.00    -0.292 A  
HETATM   16  C   UNL     1     -10.727  14.174  65.192  1.00  0.00    -0.400 A  
HETATM   17  C   UNL     1     -10.699  15.586  65.090  1.00  0.00    -0.460 A  
HETATM   18  C   UNL     1     -10.212  16.059  66.290  1.00  0.00    -0.316 A  
HETATM   19  O   UNL     1      -9.934  15.015  67.120  1.00  0.00    -0.234 OA 
BRANCH  18  20
HETATM   20  C   UNL     1      -9.926  17.424  66.822  1.00  0.00    -0.307 C  
BRANCH  20  21
HETATM   21  N   UNL     1      -8.855  18.128  66.089  1.00  0.00    -0.490 NA 
HETATM   22  C   UNL     1      -9.046  19.581  66.127  1.00  0.00    -0.310 C  
HETATM   23  C   UNL     1      -7.559  17.788  66.680  1.00  0.00    -0.236 C  
ENDBRANCH  20  21
ENDBRANCH  18  20
ENDBRANCH  14  15
ENDBRANCH  13  14
ENDBRANCH  12  13
ENDBRANCH  11  12
ENDBRANCH   9  11
ENDBRANCH   4   9
ENDBRANCH   2   4
TORSDOF 9
ENDMDL
MODEL       80
REMARK 921   NORMALIZED FREE ENERGY PREDICTED BY IDOCK:   -4.65 KCAL/MOL
REMARK 922        TOTAL FREE ENERGY PREDICTED BY IDOCK:   -7.49 KCAL/MOL
REMARK 923 INTER-LIGAND FREE ENERGY PREDICTED BY IDOCK:   -7.04 KCAL/MOL
REMARK 924 INTRA-LIGAND FREE ENERGY PREDICTED BY IDOCK:   -0.46 KCAL/MOL
REMARK 927      BINDING AFFINITY PREDICTED BY RF-SCORE:    0.00 PKD
ROOT
HETATM    1  C   UNL     1     -10.070   4.811  66.157  1.00  0.00    -0.262 C  
HETATM    2  N   UNL     1     -10.982   5.880  66.493  1.00  0.00    -0.725 NA 
HETATM    3  H   UNL     1     -11.750   6.022  65.838  1.00  0.00     0.000 HD 
ENDROOT
BRANCH   2   4
HETATM    4  C   UNL     1     -10.961   6.739  67.579  1.00  0.00    -0.303 C  
HETATM    5  C   UNL     1     -11.243   6.254  68.808  1.00  0.00    -0.273 C  
HETATM    6  O   UNL     1     -10.896   8.243  69.962  1.00  0.00    -0.247 OA 
HETATM    7  N   UNL     1     -11.229   7.051  70.011  1.00  0.00    -0.280 N  
HETATM    8  O   UNL     1     -11.558   6.454  71.047  1.00  0.00    -0.324 OA 
BRANCH   4   9
HETATM    9  N   UNL     1     -10.673   8.070  67.347  1.00  0.00    -0.489 NA 
HETATM   10  H   UNL     1     -11.266   8.735  67.844  1.00  0.00     0.000 HD 
BRANCH   9  11
HETATM   11  C   UNL     1      -9.655   8.665  66.504  1.00  0.00    -0.237 C  
BRANCH  11  12
HETATM   12  C   UNL     1     -10.265   9.800  65.673  1.00  0.00    -0.108 C  
BRANCH  12  13
HETATM   13  S   UNL     1      -9.827  11.455  66.304  1.00  0.00    -0.227 SA 
BRANCH  13  14
HETATM   14  C   UNL     1     -11.482  12.220  66.332  1.00  0.00    -0.378 C  
BRANCH  14  15
HETATM   15  C   UNL     1     -11.457  13.485  67.099  1.00  0.00    -0.338 A  
HETATM   16  C   UNL     1     -11.908  13.850  68.347  1.00  0.00    -0.409 A  
HETATM   17  C   UNL     1     -11.585  15.221  68.497  1.00  0.00    -0.368 A  
HETATM   18  C   UNL     1     -10.964  15.610  67.330  1.00  0.00    -0.275 A  
HETATM   19  O   UNL     1     -10.893  14.555  66.469  1.00  0.00    -0.303 OA 
BRANCH  18  20
HETATM   20  C   UNL     1     -10.398  16.902  66.842  1.00  0.00    -0.304 C  
BRANCH  20  21
HETATM   21  N   UNL     1     -10.430  17.976  67.854  1.00  0.00    -0.395 NA 
HETATM   22  C   UNL     1      -9.134  18.117  68.527  1.00  0.00    -0.306 C  
HETATM   23  C   UNL     1     -10.785  19.242  67.206  1.00  0.00    -0.488 C  
ENDBRANCH  20  21
ENDBRANCH  18  20
ENDBRANCH  14  15
ENDBRANCH  13  14
ENDBRANCH  12  13
ENDBRANCH  11  12
ENDBRANCH   9  11
ENDBRANCH   4   9
ENDBRANCH   2   4
TORSDOF 9
ENDMDL
MODEL       81
REMARK 921   NORMALIZED FREE ENERGY PREDICTED BY IDOCK:   -4.65 KCAL/MOL
REMARK 922        TOTAL FREE ENERGY PREDICTED BY IDOCK:   -7.49 KCAL/MOL
REMARK 923 INTER-LIGAND FREE ENERGY PREDICTED BY IDOCK:   -7.08 KCAL/MOL
REMARK 924 INTRA-LIGAND FREE ENERGY PREDICTED BY IDOCK:   -0.41 KCAL/MOL
REMARK 927      BINDING AFFINITY PREDICTED BY RF-SCORE:    0.00 PKD
ROOT
HETATM    1  C   UNL     1     -11.151   6.211  68.997  1.00  0.00    -0.367 C  
HETATM    2  N   UNL     1     -11.956   6.608  70.130  1.00  0.00    -0.615 NA 
HETATM    3  H   UNL     1     -12.911   6.890  69.912  1.00  0.00     0.000 HD 
ENDROOT
BRANCH   2   4
HETATM    4  C   UNL     1     -11.612   6.662  71.470  1.00  0.00    -0.309 C  
HETATM    5  C   UNL     1     -10.651   5.833  71.937  1.00  0.00    -0.232 C  
HETATM    6  O   UNL     1     -10.658   6.628  74.122  1.00  0.00    -0.310 OA 
HETATM    7  N   UNL     1     -10.199   5.817  73.307  1.00  0.00    -0.189 N  
HETATM    8  O   UNL     1      -9.343   4.960  73.572  1.00  0.00    -0.126 OA 
BRANCH   4   9
HETATM    9  N   UNL     1     -12.292   7.552  72.279  1.00  0.00    -0.489 NA 
HETATM   10  H   UNL     1     -12.432   7.243  73.241  1.00  0.00     0.000 HD 
BRANCH   9  11
HETATM   11  C   UNL     1     -12.836   8.858  71.967  1.00  0.00    -0.397 C  
BRANCH  11  12
HETATM   12  C   UNL     1     -11.715   9.791  71.497  1.00  0.00    -0.375 C  
BRANCH  12  13
HETATM   13  S   UNL     1     -12.338  11.249  70.595  1.00  0.00    -0.370 SA 
BRANCH  13  14
HETATM   14  C   UNL     1     -11.244  11.199  69.138  1.00  0.00    -0.264 C  
BRANCH  14  15
HETATM   15  C   UNL     1     -11.495  12.362  68.258  1.00  0.00    -0.310 A  
HETATM   16  C   UNL     1     -11.841  12.494  66.932  1.00  0.00    -0.404 A  
HETATM   17  C   UNL     1     -11.926  13.886  66.684  1.00  0.00    -0.474 A  
HETATM   18  C   UNL     1     -11.619  14.517  67.871  1.00  0.00    -0.344 A  
HETATM   19  O   UNL     1     -11.345  13.590  68.831  1.00  0.00    -0.255 OA 
BRANCH  18  20
HETATM   20  C   UNL     1     -11.516  15.948  68.283  1.00  0.00    -0.320 C  
BRANCH  20  21
HETATM   21  N   UNL     1     -10.325  16.631  67.739  1.00  0.00    -0.296 NA 
HETATM   22  C   UNL     1     -10.554  18.072  67.594  1.00  0.00    -0.399 C  
HETATM   23  C   UNL     1      -9.186  16.403  68.632  1.00  0.00    -0.231 C  
ENDBRANCH  20  21
ENDBRANCH  18  20
ENDBRANCH  14  15
ENDBRANCH  13  14
ENDBRANCH  12  13
ENDBRANCH  11  12
ENDBRANCH   9  11
ENDBRANCH   4   9
ENDBRANCH   2   4
TORSDOF 9
ENDMDL
MODEL       82
REMARK 921   NORMALIZED FREE ENERGY PREDICTED BY IDOCK:   -4.65 KCAL/MOL
REMARK 922        TOTAL FREE ENERGY PREDICTED BY IDOCK:   -7.49 KCAL/MOL
REMARK 923 INTER-LIGAND FREE ENERGY PREDICTED BY IDOCK:   -7.08 KCAL/MOL
REMARK 924 INTRA-LIGAND FREE ENERGY PREDICTED BY IDOCK:   -0.41 KCAL/MOL
REMARK 927      BINDING AFFINITY PREDICTED BY RF-SCORE:    0.00 PKD
ROOT
HETATM    1  C   UNL     1      -8.967  15.670  66.427  1.00  0.00    -0.326 C  
HETATM    2  N   UNL     1     -10.397  15.785  66.255  1.00  0.00    -0.297 NA 
HETATM    3  H   UNL     1     -10.777  16.725  66.358  1.00  0.00     0.000 HD 
ENDROOT
BRANCH   2   4
HETATM    4  C   UNL     1     -11.325  14.797  65.971  1.00  0.00    -0.332 C  
HETATM    5  C   UNL     1     -11.398  14.304  64.715  1.00  0.00    -0.382 C  
HETATM    6  O   UNL     1     -13.051  12.727  65.148  1.00  0.00    -0.750 OA 
HETATM    7  N   UNL     1     -12.310  13.261  64.312  1.00  0.00    -0.364 N  
HETATM    8  O   UNL     1     -12.275  12.961  63.109  1.00  0.00    -0.557 OA 
BRANCH   4   9
HETATM    9  N   UNL     1     -12.157  14.377  66.991  1.00  0.00    -0.524 NA 
HETATM   10  H   UNL     1     -13.098  14.110  66.700  1.00  0.00     0.000 HD 
BRANCH   9  11
HETATM   11  C   UNL     1     -11.896  14.259  68.411  1.00  0.00    -0.338 C  
BRANCH  11  12
HETATM   12  C   UNL     1     -10.940  13.089  68.669  1.00  0.00    -0.265 C  
BRANCH  12  13
HETATM   13  S   UNL     1     -11.785  11.472  68.684  1.00  0.00    -0.317 SA 
BRANCH  13  14
HETATM   14  C   UNL     1     -10.900  10.650  67.319  1.00  0.00    -0.287 C  
BRANCH  14  15
HETATM   15  C   UNL     1     -10.551   9.260  67.687  1.00  0.00    -0.261 A  
HETATM   16  C   UNL     1     -10.525   8.071  66.994  1.00  0.00    -0.410 A  
HETATM   17  C   UNL     1     -10.106   7.085  67.920  1.00  0.00    -0.204 A  
HETATM   18  C   UNL     1      -9.909   7.731  69.122  1.00  0.00    -0.173 A  
HETATM   19  O   UNL     1     -10.191   9.058  68.986  1.00  0.00    -0.194 OA 
BRANCH  18  20
HETATM   20  C   UNL     1      -9.487   7.279  70.481  1.00  0.00    -0.165 C  
BRANCH  20  21
HETATM   21  N   UNL     1     -10.605   7.178  71.439  1.00  0.00    -0.216 NA 
HETATM   22  C   UNL     1     -10.887   8.471  72.071  1.00  0.00    -0.335 C  
HETATM   23  C   UNL     1     -11.802   6.704  70.739  1.00  0.00    -0.383 C  
ENDBRANCH  20  21
ENDBRANCH  18  20
ENDBRANCH  14  15
ENDBRANCH  13  14
ENDBRANCH  12  13
ENDBRANCH  11  12
ENDBRANCH   9  11
ENDBRANCH   4   9
ENDBRANCH   2   4
TORSDOF 9
ENDMDL
MODEL       83
REMARK 921   NORMALIZED FREE ENERGY PREDICTED BY IDOCK:   -4.65 KCAL/MOL
REMARK 922        TOTAL FREE ENERGY PREDICTED BY IDOCK:   -7.48 KCAL/MOL
REMARK 923 INTER-LIGAND FREE ENERGY PREDICTED BY IDOCK:   -6.71 KCAL/MOL
REMARK 924 INTRA-LIGAND FREE ENERGY PREDICTED BY IDOCK:   -0.77 KCAL/MOL
REMARK 927      BINDING AFFINITY PREDICTED BY RF-SCORE:    0.00 PKD
ROOT
HETATM    1  C   UNL     1     -11.968  11.490  68.644  1.00  0.00    -0.246 C  
HETATM    2  N   UNL     1     -12.056  12.850  68.164  1.00  0.00    -0.236 NA 
HETATM    3  H   UNL     1     -12.605  13.484  68.744  1.00  0.00     0.000 HD 
ENDROOT
BRANCH   2   4
HETATM    4  C   UNL     1     -11.501  13.414  67.028  1.00  0.00    -0.337 C  
HETATM    5  C   UNL     1     -12.275  13.590  65.935  1.00  0.00    -0.460 C  
HETATM    6  O   UNL     1     -10.652  14.619  64.626  1.00  0.00    -0.392 OA 
HETATM    7  N   UNL     1     -11.809  14.186  64.706  1.00  0.00    -0.394 N  
HETATM    8  O   UNL     1     -12.642  14.227  63.788  1.00  0.00    -0.821 OA 
BRANCH   4   9
HETATM    9  N   UNL     1     -10.161  13.751  67.060  1.00  0.00    -0.252 NA 
HETATM   10  H   UNL     1      -9.964  14.749  66.989  1.00  0.00     0.000 HD 
BRANCH   9  11
HETATM   11  C   UNL     1      -8.994  12.900  67.180  1.00  0.00    -0.219 C  
BRANCH  11  12
HETATM   12  C   UNL     1      -9.139  11.685  66.257  1.00  0.00    -0.214 C  
BRANCH  12  13
HETATM   13  S   UNL     1      -8.811  10.105  67.110  1.00  0.00    -0.131 SA 
BRANCH  13  14
HETATM   14  C   UNL     1     -10.157   9.094  66.411  1.00  0.00    -0.274 C  
BRANCH  14  15
HETATM   15  C   UNL     1     -10.461   7.948  67.297  1.00  0.00    -0.320 A  
HETATM   16  C   UNL     1     -10.860   6.651  67.072  1.00  0.00    -0.467 A  
HETATM   17  C   UNL     1     -10.992   6.051  68.348  1.00  0.00    -0.340 A  
HETATM   18  C   UNL     1     -10.673   7.022  69.274  1.00  0.00    -0.225 A  
HETATM   19  O   UNL     1     -10.359   8.185  68.636  1.00  0.00    -0.205 OA 
BRANCH  18  20
HETATM   20  C   UNL     1     -10.626   7.050  70.765  1.00  0.00    -0.219 C  
BRANCH  20  21
HETATM   21  N   UNL     1     -11.686   6.243  71.402  1.00  0.00    -0.296 NA 
HETATM   22  C   UNL     1     -11.258   5.729  72.707  1.00  0.00    -0.292 C  
HETATM   23  C   UNL     1     -12.886   7.067  71.569  1.00  0.00    -0.372 C  
ENDBRANCH  20  21
ENDBRANCH  18  20
ENDBRANCH  14  15
ENDBRANCH  13  14
ENDBRANCH  12  13
ENDBRANCH  11  12
ENDBRANCH   9  11
ENDBRANCH   4   9
ENDBRANCH   2   4
TORSDOF 9
ENDMDL
MODEL       84
REMARK 921   NORMALIZED FREE ENERGY PREDICTED BY IDOCK:   -4.65 KCAL/MOL
REMARK 922        TOTAL FREE ENERGY PREDICTED BY IDOCK:   -7.48 KCAL/MOL
REMARK 923 INTER-LIGAND FREE ENERGY PREDICTED BY IDOCK:   -7.18 KCAL/MOL
REMARK 924 INTRA-LIGAND FREE ENERGY PREDICTED BY IDOCK:   -0.30 KCAL/MOL
REMARK 927      BINDING AFFINITY PREDICTED BY RF-SCORE:    0.00 PKD
ROOT
HETATM    1  C   UNL     1     -13.543  13.271  72.154  1.00  0.00    -0.562 C  
HETATM    2  N   UNL     1     -12.781  12.701  71.065  1.00  0.00    -0.291 NA 
HETATM    3  H   UNL     1     -12.531  13.350  70.320  1.00  0.00     0.000 HD 
ENDROOT
BRANCH   2   4
HETATM    4  C   UNL     1     -12.345  11.399  70.892  1.00  0.00    -0.381 C  
HETATM    5  C   UNL     1     -12.677  10.465  71.811  1.00  0.00    -0.421 C  
HETATM    6  O   UNL     1     -11.669   8.667  70.734  1.00  0.00    -0.277 OA 
HETATM    7  N   UNL     1     -12.296   9.076  71.720  1.00  0.00    -0.342 N  
HETATM    8  O   UNL     1     -12.647   8.367  72.675  1.00  0.00    -0.323 OA 
BRANCH   4   9
HETATM    9  N   UNL     1     -11.561  11.119  69.789  1.00  0.00    -0.303 NA 
HETATM   10  H   UNL     1     -10.713  10.587  69.983  1.00  0.00     0.000 HD 
BRANCH   9  11
HETATM   11  C   UNL     1     -11.762  11.469  68.397  1.00  0.00    -0.303 C  
BRANCH  11  12
HETATM   12  C   UNL     1     -10.612  12.358  67.911  1.00  0.00    -0.213 C  
BRANCH  12  13
HETATM   13  S   UNL     1     -11.165  13.678  66.780  1.00  0.00    -0.324 SA 
BRANCH  13  14
HETATM   14  C   UNL     1     -11.648  14.944  67.999  1.00  0.00    -0.341 C  
BRANCH  14  15
HETATM   15  C   UNL     1     -10.581  15.960  68.145  1.00  0.00    -0.280 A  
HETATM   16  C   UNL     1      -9.210  15.892  68.243  1.00  0.00    -0.189 A  
HETATM   17  C   UNL     1      -8.758  17.228  68.370  1.00  0.00    -0.261 A  
HETATM   18  C   UNL     1      -9.880  18.028  68.351  1.00  0.00    -0.366 A  
HETATM   19  O   UNL     1     -10.997  17.256  68.224  1.00  0.00    -0.336 OA 
BRANCH  18  20
HETATM   20  C   UNL     1     -10.101  19.500  68.455  1.00  0.00    -0.445 C  
BRANCH  20  21
HETATM   21  N   UNL     1      -9.694  20.242  67.246  1.00  0.00    -0.426 NA 
HETATM   22  C   UNL     1      -8.237  20.391  67.173  1.00  0.00    -0.320 C  
HETATM   23  C   UNL     1     -10.174  19.532  66.058  1.00  0.00    -0.478 C  
ENDBRANCH  20  21
ENDBRANCH  18  20
ENDBRANCH  14  15
ENDBRANCH  13  14
ENDBRANCH  12  13
ENDBRANCH  11  12
ENDBRANCH   9  11
ENDBRANCH   4   9
ENDBRANCH   2   4
TORSDOF 9
ENDMDL
MODEL       85
REMARK 921   NORMALIZED FREE ENERGY PREDICTED BY IDOCK:   -4.64 KCAL/MOL
REMARK 922        TOTAL FREE ENERGY PREDICTED BY IDOCK:   -7.47 KCAL/MOL
REMARK 923 INTER-LIGAND FREE ENERGY PREDICTED BY IDOCK:   -7.01 KCAL/MOL
REMARK 924 INTRA-LIGAND FREE ENERGY PREDICTED BY IDOCK:   -0.47 KCAL/MOL
REMARK 927      BINDING AFFINITY PREDICTED BY RF-SCORE:    0.00 PKD
ROOT
HETATM    1  C   UNL     1      -9.288   7.141  71.931  1.00  0.00    -0.138 C  
HETATM    2  N   UNL     1      -9.623   8.547  71.928  1.00  0.00    -0.256 NA 
HETATM    3  H   UNL     1      -8.867   9.178  72.190  1.00  0.00     0.000 HD 
ENDROOT
BRANCH   2   4
HETATM    4  C   UNL     1     -10.827   9.158  71.619  1.00  0.00    -0.372 C  
HETATM    5  C   UNL     1     -11.941   8.796  72.293  1.00  0.00    -0.345 C  
HETATM    6  O   UNL     1     -13.377  10.303  71.257  1.00  0.00    -0.357 OA 
HETATM    7  N   UNL     1     -13.242   9.380  72.070  1.00  0.00    -0.415 N  
HETATM    8  O   UNL     1     -14.163   8.896  72.745  1.00  0.00    -0.557 OA 
BRANCH   4   9
HETATM    9  N   UNL     1     -10.835  10.100  70.608  1.00  0.00    -0.379 NA 
HETATM   10  H   UNL     1     -11.325  10.967  70.829  1.00  0.00     0.000 HD 
BRANCH   9  11
HETATM   11  C   UNL     1     -10.253  10.043  69.283  1.00  0.00    -0.214 C  
BRANCH  11  12
HETATM   12  C   UNL     1     -11.213  10.666  68.264  1.00  0.00    -0.301 C  
BRANCH  12  13
HETATM   13  S   UNL     1     -11.006  12.472  68.107  1.00  0.00    -0.244 SA 
BRANCH  13  14
HETATM   14  C   UNL     1     -11.979  12.762  66.593  1.00  0.00    -0.341 C  
BRANCH  14  15
HETATM   15  C   UNL     1     -11.528  13.997  65.913  1.00  0.00    -0.330 A  
HETATM   16  C   UNL     1     -11.947  14.670  64.788  1.00  0.00    -0.439 A  
HETATM   17  C   UNL     1     -11.093  15.793  64.661  1.00  0.00    -0.376 A  
HETATM   18  C   UNL     1     -10.202  15.732  65.711  1.00  0.00    -0.370 A  
HETATM   19  O   UNL     1     -10.458  14.630  66.472  1.00  0.00    -0.280 OA 
BRANCH  18  20
HETATM   20  C   UNL     1      -9.056  16.585  66.144  1.00  0.00    -0.306 C  
BRANCH  20  21
HETATM   21  N   UNL     1      -9.425  17.998  66.360  1.00  0.00    -0.377 NA 
HETATM   22  C   UNL     1     -10.057  18.192  67.669  1.00  0.00    -0.359 C  
HETATM   23  C   UNL     1      -8.223  18.831  66.268  1.00  0.00    -0.252 C  
ENDBRANCH  20  21
ENDBRANCH  18  20
ENDBRANCH  14  15
ENDBRANCH  13  14
ENDBRANCH  12  13
ENDBRANCH  11  12
ENDBRANCH   9  11
ENDBRANCH   4   9
ENDBRANCH   2   4
TORSDOF 9
ENDMDL
MODEL       86
REMARK 921   NORMALIZED FREE ENERGY PREDICTED BY IDOCK:   -4.64 KCAL/MOL
REMARK 922        TOTAL FREE ENERGY PREDICTED BY IDOCK:   -7.46 KCAL/MOL
REMARK 923 INTER-LIGAND FREE ENERGY PREDICTED BY IDOCK:   -6.88 KCAL/MOL
REMARK 924 INTRA-LIGAND FREE ENERGY PREDICTED BY IDOCK:   -0.58 KCAL/MOL
REMARK 927      BINDING AFFINITY PREDICTED BY RF-SCORE:    0.00 PKD
ROOT
HETATM    1  C   UNL     1      -9.944  10.895  63.145  1.00  0.00    -0.321 C  
HETATM    2  N   UNL     1     -11.020  11.809  63.457  1.00  0.00    -0.527 NA 
HETATM    3  H   UNL     1     -11.507  12.203  62.653  1.00  0.00     0.000 HD 
ENDROOT
BRANCH   2   4
HETATM    4  C   UNL     1     -11.483  12.224  64.694  1.00  0.00    -0.336 C  
HETATM    5  C   UNL     1     -11.394  11.382  65.748  1.00  0.00    -0.008 C  
HETATM    6  O   UNL     1     -12.260  12.848  67.331  1.00  0.00    -0.330 OA 
HETATM    7  N   UNL     1     -11.824  11.716  67.084  1.00  0.00    -0.133 N  
HETATM    8  O   UNL     1     -11.711  10.807  67.920  1.00  0.00    -0.543 OA 
BRANCH   4   9
HETATM    9  N   UNL     1     -12.043  13.484  64.787  1.00  0.00    -0.385 NA 
HETATM   10  H   UNL     1     -13.060  13.502  64.850  1.00  0.00     0.000 HD 
BRANCH   9  11
HETATM   11  C   UNL     1     -11.402  14.783  64.809  1.00  0.00    -0.397 C  
BRANCH  11  12
HETATM   12  C   UNL     1      -9.976  14.652  65.358  1.00  0.00    -0.330 C  
BRANCH  12  13
HETATM   13  S   UNL     1      -9.340  16.212  66.059  1.00  0.00    -0.297 SA 
BRANCH  13  14
HETATM   14  C   UNL     1      -8.997  15.665  67.763  1.00  0.00    -0.176 C  
BRANCH  14  15
HETATM   15  C   UNL     1     -10.220  15.746  68.592  1.00  0.00    -0.221 A  
HETATM   16  C   UNL     1     -11.542  16.010  68.314  1.00  0.00    -0.232 A  
HETATM   17  C   UNL     1     -12.226  15.945  69.552  1.00  0.00    -0.107 A  
HETATM   18  C   UNL     1     -11.279  15.653  70.510  1.00  0.00    -0.362 A  
HETATM   19  O   UNL     1     -10.051  15.541  69.930  1.00  0.00    -0.286 OA 
BRANCH  18  20
HETATM   20  C   UNL     1     -11.332  15.464  71.990  1.00  0.00    -0.379 C  
BRANCH  20  21
HETATM   21  N   UNL     1     -12.688  15.618  72.554  1.00  0.00    -0.397 NA 
HETATM   22  C   UNL     1     -13.386  14.331  72.630  1.00  0.00    -0.525 C  
HETATM   23  C   UNL     1     -12.591  16.203  73.894  1.00  0.00    -0.590 C  
ENDBRANCH  20  21
ENDBRANCH  18  20
ENDBRANCH  14  15
ENDBRANCH  13  14
ENDBRANCH  12  13
ENDBRANCH  11  12
ENDBRANCH   9  11
ENDBRANCH   4   9
ENDBRANCH   2   4
TORSDOF 9
ENDMDL
MODEL       87
REMARK 921   NORMALIZED FREE ENERGY PREDICTED BY IDOCK:   -4.64 KCAL/MOL
REMARK 922        TOTAL FREE ENERGY PREDICTED BY IDOCK:   -7.46 KCAL/MOL
REMARK 923 INTER-LIGAND FREE ENERGY PREDICTED BY IDOCK:   -6.04 KCAL/MOL
REMARK 924 INTRA-LIGAND FREE ENERGY PREDICTED BY IDOCK:   -1.42 KCAL/MOL
REMARK 927      BINDING AFFINITY PREDICTED BY RF-SCORE:    0.00 PKD
ROOT
HETATM    1  C   UNL     1      -7.596  13.479  68.274  1.00  0.00    -0.135 C  
HETATM    2  N   UNL     1      -8.944  13.059  68.581  1.00  0.00    -0.383 NA 
HETATM    3  H   UNL     1      -9.034  12.414  69.366  1.00  0.00     0.000 HD 
ENDROOT
BRANCH   2   4
HETATM    4  C   UNL     1     -10.132  13.407  67.960  1.00  0.00    -0.241 C  
HETATM    5  C   UNL     1     -10.115  14.344  66.986  1.00  0.00    -0.256 C  
HETATM    6  O   UNL     1     -12.380  14.231  66.473  1.00  0.00    -0.445 OA 
HETATM    7  N   UNL     1     -11.286  14.768  66.257  1.00  0.00    -0.342 N  
HETATM    8  O   UNL     1     -11.096  15.671  65.429  1.00  0.00    -0.325 OA 
BRANCH   4   9
HETATM    9  N   UNL     1     -11.292  12.791  68.387  1.00  0.00    -0.272 NA 
HETATM   10  H   UNL     1     -11.988  12.625  67.660  1.00  0.00     0.000 HD 
BRANCH   9  11
HETATM   11  C   UNL     1     -11.670  12.345  69.713  1.00  0.00    -0.291 C  
BRANCH  11  12
HETATM   12  C   UNL     1     -12.088  10.871  69.667  1.00  0.00    -0.329 C  
BRANCH  12  13
HETATM   13  S   UNL     1     -11.174   9.838  70.862  1.00  0.00    -0.378 SA 
BRANCH  13  14
HETATM   14  C   UNL     1      -9.563   9.741  70.015  1.00  0.00    -0.241 C  
BRANCH  14  15
HETATM   15  C   UNL     1      -9.747   9.420  68.582  1.00  0.00    -0.152 A  
HETATM   16  C   UNL     1     -10.197   8.309  67.906  1.00  0.00    -0.276 A  
HETATM   17  C   UNL     1     -10.128   8.631  66.529  1.00  0.00    -0.339 A  
HETATM   18  C   UNL     1      -9.632   9.915  66.448  1.00  0.00    -0.200 A  
HETATM   19  O   UNL     1      -9.388  10.396  67.700  1.00  0.00    -0.147 OA 
BRANCH  18  20
HETATM   20  C   UNL     1      -9.308  10.828  65.312  1.00  0.00    -0.210 C  
BRANCH  20  21
HETATM   21  N   UNL     1     -10.231  10.691  64.168  1.00  0.00    -0.340 NA 
HETATM   22  C   UNL     1     -10.984  11.927  63.936  1.00  0.00    -0.406 C  
HETATM   23  C   UNL     1      -9.464  10.351  62.966  1.00  0.00    -0.330 C  
ENDBRANCH  20  21
ENDBRANCH  18  20
ENDBRANCH  14  15
ENDBRANCH  13  14
ENDBRANCH  12  13
ENDBRANCH  11  12
ENDBRANCH   9  11
ENDBRANCH   4   9
ENDBRANCH   2   4
TORSDOF 9
ENDMDL
MODEL       88
REMARK 921   NORMALIZED FREE ENERGY PREDICTED BY IDOCK:   -4.63 KCAL/MOL
REMARK 922        TOTAL FREE ENERGY PREDICTED BY IDOCK:   -7.46 KCAL/MOL
REMARK 923 INTER-LIGAND FREE ENERGY PREDICTED BY IDOCK:   -6.66 KCAL/MOL
REMARK 924 INTRA-LIGAND FREE ENERGY PREDICTED BY IDOCK:   -0.80 KCAL/MOL
REMARK 927      BINDING AFFINITY PREDICTED BY RF-SCORE:    0.00 PKD
ROOT
HETATM    1  C   UNL     1     -12.848  12.837  64.069  1.00  0.00    -0.092 C  
HETATM    2  N   UNL     1     -12.312  12.251  65.276  1.00  0.00    -0.553 NA 
HETATM    3  H   UNL     1     -12.575  11.281  65.446  1.00  0.00     0.000 HD 
ENDROOT
BRANCH   2   4
HETATM    4  C   UNL     1     -11.492  12.821  66.235  1.00  0.00    -0.354 C  
HETATM    5  C   UNL     1     -11.994  13.781  67.044  1.00  0.00    -0.413 C  
HETATM    6  O   UNL     1     -10.075  14.076  68.324  1.00  0.00    -0.232 OA 
HETATM    7  N   UNL     1     -11.239  14.428  68.090  1.00  0.00    -0.269 N  
HETATM    8  O   UNL     1     -11.842  15.320  68.705  1.00  0.00    -0.346 OA 
BRANCH   4   9
HETATM    9  N   UNL     1     -10.180  12.394  66.304  1.00  0.00    -0.234 NA 
HETATM   10  H   UNL     1      -9.480  13.133  66.244  1.00  0.00     0.000 HD 
BRANCH   9  11
HETATM   11  C   UNL     1      -9.648  11.054  66.449  1.00  0.00    -0.198 C  
BRANCH  11  12
HETATM   12  C   UNL     1     -10.517  10.251  67.424  1.00  0.00    -0.251 C  
BRANCH  12  13
HETATM   13  S   UNL     1      -9.978  10.419  69.159  1.00  0.00    -0.228 SA 
BRANCH  13  14
HETATM   14  C   UNL     1     -11.459  11.212  69.865  1.00  0.00    -0.306 C  
BRANCH  14  15
HETATM   15  C   UNL     1     -12.158  10.285  70.784  1.00  0.00    -0.353 A  
HETATM   16  C   UNL     1     -13.047  10.463  71.818  1.00  0.00    -0.567 A  
HETATM   17  C   UNL     1     -13.344   9.168  72.309  1.00  0.00    -0.540 A  
HETATM   18  C   UNL     1     -12.611   8.281  71.549  1.00  0.00    -0.309 A  
HETATM   19  O   UNL     1     -11.877   8.961  70.624  1.00  0.00    -0.241 OA 
BRANCH  18  20
HETATM   20  C   UNL     1     -12.459   6.796  71.556  1.00  0.00    -0.341 C  
BRANCH  20  21
HETATM   21  N   UNL     1     -11.080   6.349  71.836  1.00  0.00    -0.255 NA 
HETATM   22  C   UNL     1     -11.041   5.405  72.958  1.00  0.00    -0.313 C  
HETATM   23  C   UNL     1     -10.526   5.711  70.639  1.00  0.00    -0.270 C  
ENDBRANCH  20  21
ENDBRANCH  18  20
ENDBRANCH  14  15
ENDBRANCH  13  14
ENDBRANCH  12  13
ENDBRANCH  11  12
ENDBRANCH   9  11
ENDBRANCH   4   9
ENDBRANCH   2   4
TORSDOF 9
ENDMDL
MODEL       89
REMARK 921   NORMALIZED FREE ENERGY PREDICTED BY IDOCK:   -4.63 KCAL/MOL
REMARK 922        TOTAL FREE ENERGY PREDICTED BY IDOCK:   -7.45 KCAL/MOL
REMARK 923 INTER-LIGAND FREE ENERGY PREDICTED BY IDOCK:   -6.90 KCAL/MOL
REMARK 924 INTRA-LIGAND FREE ENERGY PREDICTED BY IDOCK:   -0.55 KCAL/MOL
REMARK 927      BINDING AFFINITY PREDICTED BY RF-SCORE:    0.00 PKD
ROOT
HETATM    1  C   UNL     1      -8.510  14.476  67.462  1.00  0.00    -0.190 C  
HETATM    2  N   UNL     1      -8.990  13.839  66.257  1.00  0.00    -0.465 NA 
HETATM    3  H   UNL     1      -8.296  13.301  65.740  1.00  0.00     0.000 HD 
ENDROOT
BRANCH   2   4
HETATM    4  C   UNL     1     -10.260  13.857  65.705  1.00  0.00    -0.328 C  
HETATM    5  C   UNL     1     -10.671  14.958  65.035  1.00  0.00    -0.431 C  
HETATM    6  O   UNL     1     -12.749  14.123  64.409  1.00  0.00    -0.667 OA 
HETATM    7  N   UNL     1     -11.962  15.078  64.403  1.00  0.00    -0.417 N  
HETATM    8  O   UNL     1     -12.191  16.176  63.872  1.00  0.00    -0.935 OA 
BRANCH   4   9
HETATM    9  N   UNL     1     -11.062  12.748  65.888  1.00  0.00    -0.280 NA 
HETATM   10  H   UNL     1     -11.700  12.543  65.119  1.00  0.00     0.000 HD 
BRANCH   9  11
HETATM   11  C   UNL     1     -11.136  11.832  67.008  1.00  0.00    -0.304 C  
BRANCH  11  12
HETATM   12  C   UNL     1     -10.374  10.544  66.679  1.00  0.00    -0.237 C  
BRANCH  12  13
HETATM   13  S   UNL     1      -8.934  10.273  67.767  1.00  0.00    -0.134 SA 
BRANCH  13  14
HETATM   14  C   UNL     1      -9.587  10.970  69.319  1.00  0.00     0.016 C  
BRANCH  14  15
HETATM   15  C   UNL     1     -10.524  10.022  69.962  1.00  0.00    -0.287 A  
HETATM   16  C   UNL     1     -11.525  10.160  70.897  1.00  0.00    -0.444 A  
HETATM   17  C   UNL     1     -12.053   8.862  71.103  1.00  0.00    -0.326 A  
HETATM   18  C   UNL     1     -11.336   8.011  70.289  1.00  0.00    -0.141 A  
HETATM   19  O   UNL     1     -10.395   8.714  69.598  1.00  0.00    -0.204 OA 
BRANCH  18  20
HETATM   20  C   UNL     1     -11.377   6.539  70.043  1.00  0.00    -0.410 C  
BRANCH  20  21
HETATM   21  N   UNL     1     -10.367   6.079  69.069  1.00  0.00    -0.201 NA 
HETATM   22  C   UNL     1      -9.903   4.723  69.379  1.00  0.00    -0.212 C  
HETATM   23  C   UNL     1     -10.947   6.102  67.723  1.00  0.00    -0.303 C  
ENDBRANCH  20  21
ENDBRANCH  18  20
ENDBRANCH  14  15
ENDBRANCH  13  14
ENDBRANCH  12  13
ENDBRANCH  11  12
ENDBRANCH   9  11
ENDBRANCH   4   9
ENDBRANCH   2   4
TORSDOF 9
ENDMDL
MODEL       90
REMARK 921   NORMALIZED FREE ENERGY PREDICTED BY IDOCK:   -4.62 KCAL/MOL
REMARK 922        TOTAL FREE ENERGY PREDICTED BY IDOCK:   -7.44 KCAL/MOL
REMARK 923 INTER-LIGAND FREE ENERGY PREDICTED BY IDOCK:   -6.88 KCAL/MOL
REMARK 924 INTRA-LIGAND FREE ENERGY PREDICTED BY IDOCK:   -0.56 KCAL/MOL
REMARK 927      BINDING AFFINITY PREDICTED BY RF-SCORE:    0.00 PKD
ROOT
HETATM    1  C   UNL     1     -10.527  16.832  68.885  1.00  0.00    -0.332 C  
HETATM    2  N   UNL     1     -11.853  16.479  69.340  1.00  0.00    -0.116 NA 
HETATM    3  H   UNL     1     -12.585  17.155  69.124  1.00  0.00     0.000 HD 
ENDROOT
BRANCH   2   4
HETATM    4  C   UNL     1     -12.269  15.352  70.029  1.00  0.00    -0.361 C  
HETATM    5  C   UNL     1     -12.488  15.437  71.360  1.00  0.00    -0.392 C  
HETATM    6  O   UNL     1     -13.207  13.245  71.648  1.00  0.00    -0.383 OA 
HETATM    7  N   UNL     1     -12.943  14.335  72.172  1.00  0.00    -0.354 N  
HETATM    8  O   UNL     1     -13.046  14.577  73.384  1.00  0.00    -0.587 OA 
BRANCH   4   9
HETATM    9  N   UNL     1     -12.418  14.177  69.318  1.00  0.00    -0.497 NA 
HETATM   10  H   UNL     1     -13.226  13.612  69.581  1.00  0.00     0.000 HD 
BRANCH   9  11
HETATM   11  C   UNL     1     -11.601  13.626  68.256  1.00  0.00    -0.339 C  
BRANCH  11  12
HETATM   12  C   UNL     1     -12.137  14.083  66.895  1.00  0.00    -0.430 C  
BRANCH  12  13
HETATM   13  S   UNL     1     -12.186  12.738  65.664  1.00  0.00    -0.379 SA 
BRANCH  13  14
HETATM   14  C   UNL     1     -10.416  12.308  65.607  1.00  0.00    -0.261 C  
BRANCH  14  15
HETATM   15  C   UNL     1     -10.207  10.903  66.023  1.00  0.00    -0.254 A  
HETATM   16  C   UNL     1      -9.767   9.774  65.372  1.00  0.00    -0.383 A  
HETATM   17  C   UNL     1      -9.799   8.730  66.328  1.00  0.00    -0.342 A  
HETATM   18  C   UNL     1     -10.265   9.284  67.501  1.00  0.00    -0.242 A  
HETATM   19  O   UNL     1     -10.526  10.609  67.316  1.00  0.00    -0.217 OA 
BRANCH  18  20
HETATM   20  C   UNL     1     -10.543   8.737  68.862  1.00  0.00    -0.155 C  
BRANCH  20  21
HETATM   21  N   UNL     1     -10.252   9.693  69.949  1.00  0.00    -0.228 NA 
HETATM   22  C   UNL     1     -11.272   9.633  71.002  1.00  0.00    -0.375 C  
HETATM   23  C   UNL     1      -8.938   9.389  70.521  1.00  0.00    -0.253 C  
ENDBRANCH  20  21
ENDBRANCH  18  20
ENDBRANCH  14  15
ENDBRANCH  13  14
ENDBRANCH  12  13
ENDBRANCH  11  12
ENDBRANCH   9  11
ENDBRANCH   4   9
ENDBRANCH   2   4
TORSDOF 9
ENDMDL
MODEL       91
REMARK 921   NORMALIZED FREE ENERGY PREDICTED BY IDOCK:   -4.62 KCAL/MOL
REMARK 922        TOTAL FREE ENERGY PREDICTED BY IDOCK:   -7.43 KCAL/MOL
REMARK 923 INTER-LIGAND FREE ENERGY PREDICTED BY IDOCK:   -7.15 KCAL/MOL
REMARK 924 INTRA-LIGAND FREE ENERGY PREDICTED BY IDOCK:   -0.29 KCAL/MOL
REMARK 927      BINDING AFFINITY PREDICTED BY RF-SCORE:    0.00 PKD
ROOT
HETATM    1  C   UNL     1     -11.463  10.218  69.909  1.00  0.00    -0.273 C  
HETATM    2  N   UNL     1     -12.058  10.960  68.821  1.00  0.00    -0.763 NA 
HETATM    3  H   UNL     1     -12.927  11.443  69.044  1.00  0.00     0.000 HD 
ENDROOT
BRANCH   2   4
HETATM    4  C   UNL     1     -11.614  11.107  67.518  1.00  0.00    -0.135 C  
HETATM    5  C   UNL     1     -10.673  10.260  67.043  1.00  0.00    -0.216 C  
HETATM    6  O   UNL     1     -10.607  11.124  64.885  1.00  0.00    -0.309 OA 
HETATM    7  N   UNL     1     -10.155  10.307  65.697  1.00  0.00    -0.281 N  
HETATM    8  O   UNL     1      -9.262   9.484  65.445  1.00  0.00    -0.213 OA 
BRANCH   4   9
HETATM    9  N   UNL     1     -12.142  12.138  66.766  1.00  0.00    -0.565 NA 
HETATM   10  H   UNL     1     -12.718  11.848  65.976  1.00  0.00     0.000 HD 
BRANCH   9  11
HETATM   11  C   UNL     1     -12.001  13.571  66.929  1.00  0.00    -0.399 C  
BRANCH  11  12
HETATM   12  C   UNL     1     -12.276  14.277  65.597  1.00  0.00    -0.400 C  
BRANCH  12  13
HETATM   13  S   UNL     1     -10.930  15.404  65.101  1.00  0.00    -0.418 SA 
BRANCH  13  14
HETATM   14  C   UNL     1      -9.569  14.715  66.100  1.00  0.00    -0.307 C  
BRANCH  14  15
HETATM   15  C   UNL     1      -8.587  15.769  66.438  1.00  0.00    -0.311 A  
HETATM   16  C   UNL     1      -7.418  15.782  67.165  1.00  0.00    -0.259 A  
HETATM   17  C   UNL     1      -6.942  17.115  67.122  1.00  0.00    -0.211 A  
HETATM   18  C   UNL     1      -7.853  17.835  66.379  1.00  0.00    -0.277 A  
HETATM   19  O   UNL     1      -8.865  17.019  65.969  1.00  0.00    -0.477 OA 
BRANCH  18  20
HETATM   20  C   UNL     1      -7.953  19.268  65.974  1.00  0.00    -0.243 C  
BRANCH  20  21
HETATM   21  N   UNL     1      -8.767  20.085  66.896  1.00  0.00    -0.330 NA 
HETATM   22  C   UNL     1     -10.200  19.844  66.701  1.00  0.00    -0.485 C  
HETATM   23  C   UNL     1      -8.399  19.765  68.278  1.00  0.00    -0.274 C  
ENDBRANCH  20  21
ENDBRANCH  18  20
ENDBRANCH  14  15
ENDBRANCH  13  14
ENDBRANCH  12  13
ENDBRANCH  11  12
ENDBRANCH   9  11
ENDBRANCH   4   9
ENDBRANCH   2   4
TORSDOF 9
ENDMDL
MODEL       92
REMARK 921   NORMALIZED FREE ENERGY PREDICTED BY IDOCK:   -4.62 KCAL/MOL
REMARK 922        TOTAL FREE ENERGY PREDICTED BY IDOCK:   -7.43 KCAL/MOL
REMARK 923 INTER-LIGAND FREE ENERGY PREDICTED BY IDOCK:   -7.17 KCAL/MOL
REMARK 924 INTRA-LIGAND FREE ENERGY PREDICTED BY IDOCK:   -0.27 KCAL/MOL
REMARK 927      BINDING AFFINITY PREDICTED BY RF-SCORE:    0.00 PKD
ROOT
HETATM    1  C   UNL     1     -10.659   5.585  66.667  1.00  0.00    -0.299 C  
HETATM    2  N   UNL     1     -11.232   6.544  67.584  1.00  0.00    -0.647 NA 
HETATM    3  H   UNL     1     -12.021   7.079  67.223  1.00  0.00     0.000 HD 
ENDROOT
BRANCH   2   4
HETATM    4  C   UNL     1     -10.859   6.840  68.884  1.00  0.00    -0.243 C  
HETATM    5  C   UNL     1     -11.154   5.963  69.870  1.00  0.00    -0.347 C  
HETATM    6  O   UNL     1     -10.136   7.150  71.591  1.00  0.00    -0.185 OA 
HETATM    7  N   UNL     1     -10.796   6.158  71.254  1.00  0.00    -0.255 N  
HETATM    8  O   UNL     1     -11.186   5.275  72.032  1.00  0.00    -0.153 OA 
BRANCH   4   9
HETATM    9  N   UNL     1     -10.219   8.042  69.118  1.00  0.00    -0.213 NA 
HETATM   10  H   UNL     1      -9.243   7.965  69.403  1.00  0.00     0.000 HD 
BRANCH   9  11
HETATM   11  C   UNL     1     -10.725   9.396  69.017  1.00  0.00    -0.187 C  
BRANCH  11  12
HETATM   12  C   UNL     1     -11.009   9.951  70.417  1.00  0.00    -0.318 C  
BRANCH  12  13
HETATM   13  S   UNL     1     -12.303  11.238  70.421  1.00  0.00    -0.312 SA 
BRANCH  13  14
HETATM   14  C   UNL     1     -11.902  12.081  68.856  1.00  0.00    -0.299 C  
BRANCH  14  15
HETATM   15  C   UNL     1     -11.848  13.547  69.054  1.00  0.00    -0.343 A  
HETATM   16  C   UNL     1     -11.781  14.621  68.195  1.00  0.00    -0.360 A  
HETATM   17  C   UNL     1     -11.750  15.777  69.012  1.00  0.00    -0.405 A  
HETATM   18  C   UNL     1     -11.791  15.338  70.318  1.00  0.00    -0.318 A  
HETATM   19  O   UNL     1     -11.840  13.976  70.348  1.00  0.00    -0.302 OA 
BRANCH  18  20
HETATM   20  C   UNL     1     -11.774  16.029  71.641  1.00  0.00    -0.506 C  
BRANCH  20  21
HETATM   21  N   UNL     1     -12.701  15.436  72.626  1.00  0.00    -0.356 NA 
HETATM   22  C   UNL     1     -12.620  16.122  73.919  1.00  0.00    -0.590 C  
HETATM   23  C   UNL     1     -14.071  15.520  72.112  1.00  0.00    -0.526 C  
ENDBRANCH  20  21
ENDBRANCH  18  20
ENDBRANCH  14  15
ENDBRANCH  13  14
ENDBRANCH  12  13
ENDBRANCH  11  12
ENDBRANCH   9  11
ENDBRANCH   4   9
ENDBRANCH   2   4
TORSDOF 9
ENDMDL
MODEL       93
REMARK 921   NORMALIZED FREE ENERGY PREDICTED BY IDOCK:   -4.62 KCAL/MOL
REMARK 922        TOTAL FREE ENERGY PREDICTED BY IDOCK:   -7.43 KCAL/MOL
REMARK 923 INTER-LIGAND FREE ENERGY PREDICTED BY IDOCK:   -6.41 KCAL/MOL
REMARK 924 INTRA-LIGAND FREE ENERGY PREDICTED BY IDOCK:   -1.02 KCAL/MOL
REMARK 927      BINDING AFFINITY PREDICTED BY RF-SCORE:    0.00 PKD
ROOT
HETATM    1  C   UNL     1     -11.670  15.201  68.028  1.00  0.00    -0.285 C  
HETATM    2  N   UNL     1     -11.273  14.711  69.328  1.00  0.00    -0.269 NA 
HETATM    3  H   UNL     1     -10.493  15.205  69.762  1.00  0.00     0.000 HD 
ENDROOT
BRANCH   2   4
HETATM    4  C   UNL     1     -11.801  13.667  70.068  1.00  0.00    -0.308 C  
HETATM    5  C   UNL     1     -12.760  13.928  70.985  1.00  0.00    -0.357 C  
HETATM    6  O   UNL     1     -13.107  11.723  71.636  1.00  0.00    -0.441 OA 
HETATM    7  N   UNL     1     -13.395  12.917  71.795  1.00  0.00    -0.408 N  
HETATM    8  O   UNL     1     -14.221  13.339  72.617  1.00  0.00    -0.724 OA 
BRANCH   4   9
HETATM    9  N   UNL     1     -11.299  12.399  69.849  1.00  0.00    -0.513 NA 
HETATM   10  H   UNL     1     -10.849  11.965  70.655  1.00  0.00     0.000 HD 
BRANCH   9  11
HETATM   11  C   UNL     1     -11.315  11.590  68.646  1.00  0.00    -0.269 C  
BRANCH  11  12
HETATM   12  C   UNL     1      -9.881  11.247  68.230  1.00  0.00    -0.197 C  
BRANCH  12  13
HETATM   13  S   UNL     1      -9.189  12.430  67.026  1.00  0.00    -0.213 SA 
BRANCH  13  14
HETATM   14  C   UNL     1      -7.768  13.049  67.986  1.00  0.00    -0.145 C  
BRANCH  14  15
HETATM   15  C   UNL     1      -7.896  14.504  68.225  1.00  0.00    -0.131 A  
HETATM   16  C   UNL     1      -7.681  15.310  69.319  1.00  0.00    -0.214 A  
HETATM   17  C   UNL     1      -7.991  16.628  68.904  1.00  0.00    -0.236 A  
HETATM   18  C   UNL     1      -8.384  16.544  67.586  1.00  0.00    -0.165 A  
HETATM   19  O   UNL     1      -8.337  15.247  67.170  1.00  0.00    -0.183 OA 
BRANCH  18  20
HETATM   20  C   UNL     1      -8.846  17.546  66.580  1.00  0.00    -0.266 C  
BRANCH  20  21
HETATM   21  N   UNL     1      -9.189  18.855  67.170  1.00  0.00    -0.285 NA 
HETATM   22  C   UNL     1      -8.710  19.961  66.335  1.00  0.00    -0.345 C  
HETATM   23  C   UNL     1     -10.643  18.951  67.323  1.00  0.00    -0.456 C  
ENDBRANCH  20  21
ENDBRANCH  18  20
ENDBRANCH  14  15
ENDBRANCH  13  14
ENDBRANCH  12  13
ENDBRANCH  11  12
ENDBRANCH   9  11
ENDBRANCH   4   9
ENDBRANCH   2   4
TORSDOF 9
ENDMDL
MODEL       94
REMARK 921   NORMALIZED FREE ENERGY PREDICTED BY IDOCK:   -4.62 KCAL/MOL
REMARK 922        TOTAL FREE ENERGY PREDICTED BY IDOCK:   -7.43 KCAL/MOL
REMARK 923 INTER-LIGAND FREE ENERGY PREDICTED BY IDOCK:   -6.96 KCAL/MOL
REMARK 924 INTRA-LIGAND FREE ENERGY PREDICTED BY IDOCK:   -0.47 KCAL/MOL
REMARK 927      BINDING AFFINITY PREDICTED BY RF-SCORE:    0.00 PKD
ROOT
HETATM    1  C   UNL     1     -11.217  10.578  69.328  1.00  0.00    -0.262 C  
HETATM    2  N   UNL     1     -11.976  11.057  68.195  1.00  0.00    -0.763 NA 
HETATM    3  H   UNL     1     -12.956  10.778  68.175  1.00  0.00     0.000 HD 
ENDROOT
BRANCH   2   4
HETATM    4  C   UNL     1     -11.559  11.841  67.133  1.00  0.00    -0.266 C  
HETATM    5  C   UNL     1     -10.782  11.290  66.173  1.00  0.00    -0.250 C  
HETATM    6  O   UNL     1     -10.653  13.179  64.824  1.00  0.00    -0.330 OA 
HETATM    7  N   UNL     1     -10.309  12.005  65.013  1.00  0.00    -0.272 N  
HETATM    8  O   UNL     1      -9.568  11.358  64.257  1.00  0.00    -0.229 OA 
BRANCH   4   9
HETATM    9  N   UNL     1     -11.941  13.168  67.117  1.00  0.00    -0.365 NA 
HETATM   10  H   UNL     1     -12.540  13.438  66.337  1.00  0.00     0.000 HD 
BRANCH   9  11
HETATM   11  C   UNL     1     -11.618  14.236  68.043  1.00  0.00    -0.332 C  
BRANCH  11  12
HETATM   12  C   UNL     1     -10.117  14.223  68.351  1.00  0.00    -0.243 C  
BRANCH  12  13
HETATM   13  S   UNL     1      -9.562  15.719  69.235  1.00  0.00    -0.279 SA 
BRANCH  13  14
HETATM   14  C   UNL     1     -10.876  16.879  68.732  1.00  0.00    -0.289 C  
BRANCH  14  15
HETATM   15  C   UNL     1     -10.295  18.075  68.085  1.00  0.00    -0.388 A  
HETATM   16  C   UNL     1     -10.819  19.094  67.322  1.00  0.00    -0.529 A  
HETATM   17  C   UNL     1      -9.733  19.941  66.996  1.00  0.00    -0.529 A  
HETATM   18  C   UNL     1      -8.611  19.385  67.572  1.00  0.00    -0.300 A  
HETATM   19  O   UNL     1      -8.949  18.239  68.229  1.00  0.00    -0.289 OA 
BRANCH  18  20
HETATM   20  C   UNL     1      -7.168  19.764  67.600  1.00  0.00    -0.260 C  
BRANCH  20  21
HETATM   21  N   UNL     1      -6.423  19.324  66.404  1.00  0.00    -0.185 NA 
HETATM   22  C   UNL     1      -6.804  17.966  66.004  1.00  0.00    -0.301 C  
HETATM   23  C   UNL     1      -6.687  20.252  65.301  1.00  0.00    -0.304 C  
ENDBRANCH  20  21
ENDBRANCH  18  20
ENDBRANCH  14  15
ENDBRANCH  13  14
ENDBRANCH  12  13
ENDBRANCH  11  12
ENDBRANCH   9  11
ENDBRANCH   4   9
ENDBRANCH   2   4
TORSDOF 9
ENDMDL
MODEL       95
REMARK 921   NORMALIZED FREE ENERGY PREDICTED BY IDOCK:   -4.60 KCAL/MOL
REMARK 922        TOTAL FREE ENERGY PREDICTED BY IDOCK:   -7.41 KCAL/MOL
REMARK 923 INTER-LIGAND FREE ENERGY PREDICTED BY IDOCK:   -6.95 KCAL/MOL
REMARK 924 INTRA-LIGAND FREE ENERGY PREDICTED BY IDOCK:   -0.47 KCAL/MOL
REMARK 927      BINDING AFFINITY PREDICTED BY RF-SCORE:    0.00 PKD
ROOT
HETATM    1  C   UNL     1     -10.845  15.576  64.777  1.00  0.00    -0.363 C  
HETATM    2  N   UNL     1     -11.217  14.320  64.168  1.00  0.00    -0.585 NA 
HETATM    3  H   UNL     1     -11.848  14.390  63.370  1.00  0.00     0.000 HD 
ENDROOT
BRANCH   2   4
HETATM    4  C   UNL     1     -10.839  13.034  64.515  1.00  0.00    -0.372 C  
HETATM    5  C   UNL     1     -10.457  12.175  63.544  1.00  0.00    -0.454 C  
HETATM    6  O   UNL     1      -9.935  10.400  64.954  1.00  0.00    -0.306 OA 
HETATM    7  N   UNL     1     -10.023  10.821  63.793  1.00  0.00    -0.334 N  
HETATM    8  O   UNL     1      -9.753  10.157  62.781  1.00  0.00    -0.260 OA 
BRANCH   4   9
HETATM    9  N   UNL     1     -10.895  12.680  65.850  1.00  0.00    -0.265 NA 
HETATM   10  H   UNL     1      -9.999  12.436  66.271  1.00  0.00     0.000 HD 
BRANCH   9  11
HETATM   11  C   UNL     1     -12.035  12.602  66.741  1.00  0.00    -0.292 C  
BRANCH  11  12
HETATM   12  C   UNL     1     -11.556  12.554  68.196  1.00  0.00    -0.340 C  
BRANCH  12  13
HETATM   13  S   UNL     1     -11.327  10.852  68.811  1.00  0.00    -0.315 SA 
BRANCH  13  14
HETATM   14  C   UNL     1     -12.138  11.000  70.437  1.00  0.00    -0.373 C  
BRANCH  14  15
HETATM   15  C   UNL     1     -11.811   9.836  71.290  1.00  0.00    -0.399 A  
HETATM   16  C   UNL     1     -12.530   9.090  72.196  1.00  0.00    -0.450 A  
HETATM   17  C   UNL     1     -11.639   8.105  72.689  1.00  0.00    -0.441 A  
HETATM   18  C   UNL     1     -10.431   8.315  72.059  1.00  0.00    -0.280 A  
HETATM   19  O   UNL     1     -10.529   9.378  71.212  1.00  0.00    -0.318 OA 
BRANCH  18  20
HETATM   20  C   UNL     1      -9.097   7.650  72.136  1.00  0.00    -0.140 C  
BRANCH  20  21
HETATM   21  N   UNL     1      -8.084   8.446  72.857  1.00  0.00    -0.332 NA 
HETATM   22  C   UNL     1      -7.990   8.045  74.264  1.00  0.00    -0.245 C  
HETATM   23  C   UNL     1      -6.781   8.271  72.209  1.00  0.00    -0.082 C  
ENDBRANCH  20  21
ENDBRANCH  18  20
ENDBRANCH  14  15
ENDBRANCH  13  14
ENDBRANCH  12  13
ENDBRANCH  11  12
ENDBRANCH   9  11
ENDBRANCH   4   9
ENDBRANCH   2   4
TORSDOF 9
ENDMDL
MODEL       96
REMARK 921   NORMALIZED FREE ENERGY PREDICTED BY IDOCK:   -4.60 KCAL/MOL
REMARK 922        TOTAL FREE ENERGY PREDICTED BY IDOCK:   -7.41 KCAL/MOL
REMARK 923 INTER-LIGAND FREE ENERGY PREDICTED BY IDOCK:   -6.79 KCAL/MOL
REMARK 924 INTRA-LIGAND FREE ENERGY PREDICTED BY IDOCK:   -0.62 KCAL/MOL
REMARK 927      BINDING AFFINITY PREDICTED BY RF-SCORE:    0.00 PKD
ROOT
HETATM    1  C   UNL     1     -14.359   8.349  71.876  1.00  0.00    -0.473 C  
HETATM    2  N   UNL     1     -13.491   7.759  70.883  1.00  0.00    -0.507 NA 
HETATM    3  H   UNL     1     -13.799   7.859  69.917  1.00  0.00     0.000 HD 
ENDROOT
BRANCH   2   4
HETATM    4  C   UNL     1     -12.299   7.076  71.059  1.00  0.00    -0.356 C  
HETATM    5  C   UNL     1     -11.909   6.744  72.310  1.00  0.00    -0.242 C  
HETATM    6  O   UNL     1      -9.976   5.610  71.690  1.00  0.00    -0.166 OA 
HETATM    7  N   UNL     1     -10.700   6.015  72.609  1.00  0.00    -0.219 N  
HETATM    8  O   UNL     1     -10.473   5.837  73.815  1.00  0.00    -0.235 OA 
BRANCH   4   9
HETATM    9  N   UNL     1     -11.547   6.785  69.938  1.00  0.00    -0.585 NA 
HETATM   10  H   UNL     1     -11.431   5.791  69.739  1.00  0.00     0.000 HD 
BRANCH   9  11
HETATM   11  C   UNL     1     -10.897   7.679  69.000  1.00  0.00    -0.040 C  
BRANCH  11  12
HETATM   12  C   UNL     1     -10.395   8.928  69.733  1.00  0.00    -0.207 C  
BRANCH  12  13
HETATM   13  S   UNL     1     -11.134  10.469  69.096  1.00  0.00    -0.265 SA 
BRANCH  13  14
HETATM   14  C   UNL     1     -12.005  11.035  70.594  1.00  0.00    -0.365 C  
BRANCH  14  15
HETATM   15  C   UNL     1     -12.223  12.498  70.548  1.00  0.00    -0.297 A  
HETATM   16  C   UNL     1     -12.865  13.391  71.376  1.00  0.00    -0.420 A  
HETATM   17  C   UNL     1     -12.726  14.662  70.768  1.00  0.00    -0.422 A  
HETATM   18  C   UNL     1     -12.015  14.467  69.604  1.00  0.00    -0.336 A  
HETATM   19  O   UNL     1     -11.715  13.145  69.460  1.00  0.00    -0.296 OA 
BRANCH  18  20
HETATM   20  C   UNL     1     -11.548  15.374  68.514  1.00  0.00    -0.359 C  
BRANCH  20  21
HETATM   21  N   UNL     1     -11.129  14.658  67.293  1.00  0.00    -0.317 NA 
HETATM   22  C   UNL     1     -12.278  14.330  66.442  1.00  0.00    -0.401 C  
HETATM   23  C   UNL     1     -10.186  15.491  66.543  1.00  0.00    -0.283 C  
ENDBRANCH  20  21
ENDBRANCH  18  20
ENDBRANCH  14  15
ENDBRANCH  13  14
ENDBRANCH  12  13
ENDBRANCH  11  12
ENDBRANCH   9  11
ENDBRANCH   4   9
ENDBRANCH   2   4
TORSDOF 9
ENDMDL
MODEL       97
REMARK 921   NORMALIZED FREE ENERGY PREDICTED BY IDOCK:   -4.60 KCAL/MOL
REMARK 922        TOTAL FREE ENERGY PREDICTED BY IDOCK:   -7.40 KCAL/MOL
REMARK 923 INTER-LIGAND FREE ENERGY PREDICTED BY IDOCK:   -7.13 KCAL/MOL
REMARK 924 INTRA-LIGAND FREE ENERGY PREDICTED BY IDOCK:   -0.27 KCAL/MOL
REMARK 927      BINDING AFFINITY PREDICTED BY RF-SCORE:    0.00 PKD
ROOT
HETATM    1  C   UNL     1     -11.018   6.314  69.418  1.00  0.00    -0.375 C  
HETATM    2  N   UNL     1     -10.780   7.520  70.178  1.00  0.00    -0.236 NA 
HETATM    3  H   UNL     1      -9.833   7.631  70.539  1.00  0.00     0.000 HD 
ENDROOT
BRANCH   2   4
HETATM    4  C   UNL     1     -11.657   8.547  70.485  1.00  0.00    -0.132 C  
HETATM    5  C   UNL     1     -12.566   8.365  71.468  1.00  0.00    -0.308 C  
HETATM    6  O   UNL     1     -13.489  10.497  71.371  1.00  0.00    -0.276 OA 
HETATM    7  N   UNL     1     -13.512   9.371  71.886  1.00  0.00    -0.406 N  
HETATM    8  O   UNL     1     -14.305   9.018  72.771  1.00  0.00    -0.596 OA 
BRANCH   4   9
HETATM    9  N   UNL     1     -11.575   9.712  69.746  1.00  0.00    -0.443 NA 
HETATM   10  H   UNL     1     -12.433  10.261  69.707  1.00  0.00     0.000 HD 
BRANCH   9  11
HETATM   11  C   UNL     1     -10.453  10.272  69.019  1.00  0.00    -0.217 C  
BRANCH  11  12
HETATM   12  C   UNL     1     -10.819  10.433  67.540  1.00  0.00    -0.301 C  
BRANCH  12  13
HETATM   13  S   UNL     1      -9.378  10.824  66.491  1.00  0.00    -0.172 SA 
BRANCH  13  14
HETATM   14  C   UNL     1     -10.222  11.098  64.899  1.00  0.00    -0.303 C  
BRANCH  14  15
HETATM   15  C   UNL     1     -11.026  12.339  64.943  1.00  0.00    -0.302 A  
HETATM   16  C   UNL     1     -12.377  12.600  64.906  1.00  0.00    -0.563 A  
HETATM   17  C   UNL     1     -12.509  14.008  64.979  1.00  0.00    -0.446 A  
HETATM   18  C   UNL     1     -11.232  14.520  65.048  1.00  0.00    -0.382 A  
HETATM   19  O   UNL     1     -10.323  13.505  65.015  1.00  0.00    -0.343 OA 
BRANCH  18  20
HETATM   20  C   UNL     1     -10.677  15.904  65.129  1.00  0.00    -0.429 C  
BRANCH  20  21
HETATM   21  N   UNL     1     -10.153  16.249  66.465  1.00  0.00    -0.278 NA 
HETATM   22  C   UNL     1     -10.875  15.538  67.525  1.00  0.00    -0.306 C  
HETATM   23  C   UNL     1      -8.729  15.909  66.529  1.00  0.00    -0.315 C  
ENDBRANCH  20  21
ENDBRANCH  18  20
ENDBRANCH  14  15
ENDBRANCH  13  14
ENDBRANCH  12  13
ENDBRANCH  11  12
ENDBRANCH   9  11
ENDBRANCH   4   9
ENDBRANCH   2   4
TORSDOF 9
ENDMDL
MODEL       98
REMARK 921   NORMALIZED FREE ENERGY PREDICTED BY IDOCK:   -4.59 KCAL/MOL
REMARK 922        TOTAL FREE ENERGY PREDICTED BY IDOCK:   -7.40 KCAL/MOL
REMARK 923 INTER-LIGAND FREE ENERGY PREDICTED BY IDOCK:   -6.30 KCAL/MOL
REMARK 924 INTRA-LIGAND FREE ENERGY PREDICTED BY IDOCK:   -1.10 KCAL/MOL
REMARK 927      BINDING AFFINITY PREDICTED BY RF-SCORE:    0.00 PKD
ROOT
HETATM    1  C   UNL     1     -10.731   4.757  65.731  1.00  0.00    -0.170 C  
HETATM    2  N   UNL     1     -11.241   5.924  66.414  1.00  0.00    -0.739 NA 
HETATM    3  H   UNL     1     -12.257   6.006  66.442  1.00  0.00     0.000 HD 
ENDROOT
BRANCH   2   4
HETATM    4  C   UNL     1     -10.545   6.946  67.037  1.00  0.00    -0.333 C  
HETATM    5  C   UNL     1      -9.593   7.611  66.345  1.00  0.00    -0.153 C  
HETATM    6  O   UNL     1      -9.051   9.121  68.028  1.00  0.00    -0.132 OA 
HETATM    7  N   UNL     1      -8.822   8.705  66.885  1.00  0.00    -0.130 N  
HETATM    8  O   UNL     1      -7.958   9.169  66.126  1.00  0.00    -0.101 OA 
BRANCH   4   9
HETATM    9  N   UNL     1     -10.843   7.224  68.357  1.00  0.00    -0.417 NA 
HETATM   10  H   UNL     1     -10.667   8.185  68.648  1.00  0.00     0.000 HD 
BRANCH   9  11
HETATM   11  C   UNL     1     -11.370   6.355  69.390  1.00  0.00    -0.377 C  
BRANCH  11  12
HETATM   12  C   UNL     1     -10.341   6.201  70.516  1.00  0.00    -0.215 C  
BRANCH  12  13
HETATM   13  S   UNL     1     -11.019   6.615  72.158  1.00  0.00    -0.256 SA 
BRANCH  13  14
HETATM   14  C   UNL     1     -10.469   8.348  72.290  1.00  0.00    -0.337 C  
BRANCH  14  15
HETATM   15  C   UNL     1     -11.426   9.250  71.613  1.00  0.00    -0.398 A  
HETATM   16  C   UNL     1     -12.694   9.692  71.916  1.00  0.00    -0.499 A  
HETATM   17  C   UNL     1     -13.079  10.544  70.852  1.00  0.00    -0.390 A  
HETATM   18  C   UNL     1     -12.027  10.563  69.962  1.00  0.00    -0.288 A  
HETATM   19  O   UNL     1     -11.020   9.766  70.418  1.00  0.00    -0.263 OA 
BRANCH  18  20
HETATM   20  C   UNL     1     -11.795  11.239  68.651  1.00  0.00    -0.300 C  
BRANCH  20  21
HETATM   21  N   UNL     1     -10.974  12.460  68.757  1.00  0.00    -0.240 NA 
HETATM   22  C   UNL     1      -9.986  12.538  67.676  1.00  0.00    -0.201 C  
HETATM   23  C   UNL     1     -11.847  13.636  68.708  1.00  0.00    -0.360 C  
ENDBRANCH  20  21
ENDBRANCH  18  20
ENDBRANCH  14  15
ENDBRANCH  13  14
ENDBRANCH  12  13
ENDBRANCH  11  12
ENDBRANCH   9  11
ENDBRANCH   4   9
ENDBRANCH   2   4
TORSDOF 9
ENDMDL
MODEL       99
REMARK 921   NORMALIZED FREE ENERGY PREDICTED BY IDOCK:   -4.59 KCAL/MOL
REMARK 922        TOTAL FREE ENERGY PREDICTED BY IDOCK:   -7.40 KCAL/MOL
REMARK 923 INTER-LIGAND FREE ENERGY PREDICTED BY IDOCK:   -6.72 KCAL/MOL
REMARK 924 INTRA-LIGAND FREE ENERGY PREDICTED BY IDOCK:   -0.68 KCAL/MOL
REMARK 927      BINDING AFFINITY PREDICTED BY RF-SCORE:    0.00 PKD
ROOT
HETATM    1  C   UNL     1     -12.150  15.571  71.091  1.00  0.00    -0.380 C  
HETATM    2  N   UNL     1     -12.751  14.589  70.218  1.00  0.00    -0.497 NA 
HETATM    3  H   UNL     1     -13.759  14.673  70.092  1.00  0.00     0.000 HD 
ENDROOT
BRANCH   2   4
HETATM    4  C   UNL     1     -12.151  13.548  69.529  1.00  0.00    -0.297 C  
HETATM    5  C   UNL     1     -11.851  13.711  68.221  1.00  0.00    -0.369 C  
HETATM    6  O   UNL     1     -10.848  11.635  67.921  1.00  0.00    -0.191 OA 
HETATM    7  N   UNL     1     -11.207  12.705  67.412  1.00  0.00    -0.274 N  
HETATM    8  O   UNL     1     -11.049  13.005  66.219  1.00  0.00    -0.281 OA 
BRANCH   4   9
HETATM    9  N   UNL     1     -11.908  12.373  70.213  1.00  0.00    -0.534 NA 
HETATM   10  H   UNL     1     -11.061  11.877  69.936  1.00  0.00     0.000 HD 
BRANCH   9  11
HETATM   11  C   UNL     1     -12.676  11.737  71.265  1.00  0.00    -0.316 C  
BRANCH  11  12
HETATM   12  C   UNL     1     -12.946  10.273  70.901  1.00  0.00    -0.371 C  
BRANCH  12  13
HETATM   13  S   UNL     1     -13.530   9.286  72.320  1.00  0.00    -0.467 SA 
BRANCH  13  14
HETATM   14  C   UNL     1     -13.830   7.694  71.483  1.00  0.00    -0.375 C  
BRANCH  14  15
HETATM   15  C   UNL     1     -12.568   6.936  71.338  1.00  0.00    -0.353 A  
HETATM   16  C   UNL     1     -11.792   6.205  72.209  1.00  0.00    -0.326 A  
HETATM   17  C   UNL     1     -10.694   5.728  71.452  1.00  0.00    -0.319 A  
HETATM   18  C   UNL     1     -10.863   6.203  70.169  1.00  0.00    -0.329 A  
HETATM   19  O   UNL     1     -12.001   6.950  70.098  1.00  0.00    -0.271 OA 
BRANCH  18  20
HETATM   20  C   UNL     1     -10.071   6.080  68.910  1.00  0.00    -0.176 C  
BRANCH  20  21
HETATM   21  N   UNL     1     -10.461   7.056  67.873  1.00  0.00    -0.198 NA 
HETATM   22  C   UNL     1      -9.326   7.892  67.470  1.00  0.00    -0.143 C  
HETATM   23  C   UNL     1     -10.982   6.340  66.706  1.00  0.00    -0.255 C  
ENDBRANCH  20  21
ENDBRANCH  18  20
ENDBRANCH  14  15
ENDBRANCH  13  14
ENDBRANCH  12  13
ENDBRANCH  11  12
ENDBRANCH   9  11
ENDBRANCH   4   9
ENDBRANCH   2   4
TORSDOF 9
ENDMDL
MODEL      100
REMARK 921   NORMALIZED FREE ENERGY PREDICTED BY IDOCK:   -4.58 KCAL/MOL
REMARK 922        TOTAL FREE ENERGY PREDICTED BY IDOCK:   -7.39 KCAL/MOL
REMARK 923 INTER-LIGAND FREE ENERGY PREDICTED BY IDOCK:   -6.59 KCAL/MOL
REMARK 924 INTRA-LIGAND FREE ENERGY PREDICTED BY IDOCK:   -0.80 KCAL/MOL
REMARK 927      BINDING AFFINITY PREDICTED BY RF-SCORE:    0.00 PKD
ROOT
HETATM    1  C   UNL     1      -8.523  15.200  67.496  1.00  0.00    -0.170 C  
HETATM    2  N   UNL     1      -9.591  14.264  67.228  1.00  0.00    -0.226 NA 
HETATM    3  H   UNL     1     -10.076  13.905  68.051  1.00  0.00     0.000 HD 
ENDROOT
BRANCH   2   4
HETATM    4  C   UNL     1     -10.049  13.784  66.013  1.00  0.00    -0.311 C  
HETATM    5  C   UNL     1     -11.127  14.364  65.440  1.00  0.00    -0.331 C  
HETATM    6  O   UNL     1     -11.126  13.069  63.508  1.00  0.00    -0.338 OA 
HETATM    7  N   UNL     1     -11.675  13.962  64.167  1.00  0.00    -0.373 N  
HETATM    8  O   UNL     1     -12.695  14.573  63.813  1.00  0.00    -0.780 OA 
BRANCH   4   9
HETATM    9  N   UNL     1      -9.389  12.708  65.451  1.00  0.00    -0.430 NA 
HETATM   10  H   UNL     1      -8.988  12.879  64.529  1.00  0.00     0.000 HD 
BRANCH   9  11
HETATM   11  C   UNL     1      -9.181  11.373  65.973  1.00  0.00    -0.214 C  
BRANCH  11  12
HETATM   12  C   UNL     1     -10.529  10.663  66.142  1.00  0.00    -0.194 C  
BRANCH  12  13
HETATM   13  S   UNL     1     -11.057  10.549  67.885  1.00  0.00    -0.284 SA 
BRANCH  13  14
HETATM   14  C   UNL     1      -9.445  10.758  68.708  1.00  0.00    -0.182 C  
BRANCH  14  15
HETATM   15  C   UNL     1      -9.380   9.941  69.940  1.00  0.00    -0.216 A  
HETATM   16  C   UNL     1      -8.347   9.372  70.651  1.00  0.00    -0.217 A  
HETATM   17  C   UNL     1      -8.945   8.701  71.745  1.00  0.00    -0.307 A  
HETATM   18  C   UNL     1     -10.305   8.894  71.631  1.00  0.00    -0.345 A  
HETATM   19  O   UNL     1     -10.575   9.642  70.523  1.00  0.00    -0.262 OA 
BRANCH  18  20
HETATM   20  C   UNL     1     -11.483   8.450  72.434  1.00  0.00    -0.380 C  
BRANCH  20  21
HETATM   21  N   UNL     1     -12.760   8.535  71.698  1.00  0.00    -0.322 NA 
HETATM   22  C   UNL     1     -13.198   7.215  71.232  1.00  0.00    -0.272 C  
HETATM   23  C   UNL     1     -13.785   9.110  72.574  1.00  0.00    -0.435 C  
ENDBRANCH  20  21
ENDBRANCH  18  20
ENDBRANCH  14  15
ENDBRANCH  13  14
ENDBRANCH  12  13
ENDBRANCH  11  12
ENDBRANCH   9  11
ENDBRANCH   4   9
ENDBRANCH   2   4
TORSDOF 9
ENDMDL
MODEL      101
REMARK 921   NORMALIZED FREE ENERGY PREDICTED BY IDOCK:   -4.57 KCAL/MOL
REMARK 922        TOTAL FREE ENERGY PREDICTED BY IDOCK:   -7.37 KCAL/MOL
REMARK 923 INTER-LIGAND FREE ENERGY PREDICTED BY IDOCK:   -6.69 KCAL/MOL
REMARK 924 INTRA-LIGAND FREE ENERGY PREDICTED BY IDOCK:   -0.68 KCAL/MOL
REMARK 927      BINDING AFFINITY PREDICTED BY RF-SCORE:    0.00 PKD
ROOT
HETATM    1  C   UNL     1     -10.608  19.770  65.724  1.00  0.00    -0.419 C  
HETATM    2  N   UNL     1     -10.628  18.961  66.921  1.00  0.00    -0.421 NA 
HETATM    3  H   UNL     1     -11.499  18.985  67.451  1.00  0.00     0.000 HD 
ENDROOT
BRANCH   2   4
HETATM    4  C   UNL     1      -9.632  18.160  67.452  1.00  0.00    -0.275 C  
HETATM    5  C   UNL     1      -8.638  18.732  68.167  1.00  0.00    -0.309 C  
HETATM    6  O   UNL     1      -7.539  16.757  68.716  1.00  0.00    -0.217 OA 
HETATM    7  N   UNL     1      -7.562  17.993  68.783  1.00  0.00    -0.289 N  
HETATM    8  O   UNL     1      -6.710  18.682  69.363  1.00  0.00    -0.264 OA 
BRANCH   4   9
HETATM    9  N   UNL     1      -9.688  16.803  67.200  1.00  0.00    -0.246 NA 
HETATM   10  H   UNL     1      -9.933  16.223  68.003  1.00  0.00     0.000 HD 
BRANCH   9  11
HETATM   11  C   UNL     1      -9.454  16.078  65.967  1.00  0.00    -0.349 C  
BRANCH  11  12
HETATM   12  C   UNL     1     -10.754  15.989  65.159  1.00  0.00    -0.409 C  
BRANCH  12  13
HETATM   13  S   UNL     1     -11.180  14.279  64.688  1.00  0.00    -0.340 SA 
BRANCH  13  14
HETATM   14  C   UNL     1     -12.638  14.021  65.752  1.00  0.00    -0.479 C  
BRANCH  14  15
HETATM   15  C   UNL     1     -12.226  13.565  67.098  1.00  0.00    -0.281 A  
HETATM   16  C   UNL     1     -11.974  14.213  68.286  1.00  0.00    -0.367 A  
HETATM   17  C   UNL     1     -11.609  13.207  69.214  1.00  0.00    -0.370 A  
HETATM   18  C   UNL     1     -11.652  12.009  68.533  1.00  0.00    -0.309 A  
HETATM   19  O   UNL     1     -12.017  12.225  67.238  1.00  0.00    -0.546 OA 
BRANCH  18  20
HETATM   20  C   UNL     1     -11.371  10.593  68.915  1.00  0.00    -0.274 C  
BRANCH  20  21
HETATM   21  N   UNL     1      -9.940  10.325  69.161  1.00  0.00    -0.211 NA 
HETATM   22  C   UNL     1      -9.736   8.989  69.732  1.00  0.00    -0.175 C  
HETATM   23  C   UNL     1      -9.203  10.436  67.899  1.00  0.00    -0.139 C  
ENDBRANCH  20  21
ENDBRANCH  18  20
ENDBRANCH  14  15
ENDBRANCH  13  14
ENDBRANCH  12  13
ENDBRANCH  11  12
ENDBRANCH   9  11
ENDBRANCH   4   9
ENDBRANCH   2   4
TORSDOF 9
ENDMDL
MODEL      102
REMARK 921   NORMALIZED FREE ENERGY PREDICTED BY IDOCK:   -4.57 KCAL/MOL
REMARK 922        TOTAL FREE ENERGY PREDICTED BY IDOCK:   -7.36 KCAL/MOL
REMARK 923 INTER-LIGAND FREE ENERGY PREDICTED BY IDOCK:   -7.03 KCAL/MOL
REMARK 924 INTRA-LIGAND FREE ENERGY PREDICTED BY IDOCK:   -0.34 KCAL/MOL
REMARK 927      BINDING AFFINITY PREDICTED BY RF-SCORE:    0.00 PKD
ROOT
HETATM    1  C   UNL     1     -13.831   8.561  71.351  1.00  0.00    -0.252 C  
HETATM    2  N   UNL     1     -12.756   9.454  71.718  1.00  0.00    -0.361 NA 
HETATM    3  H   UNL     1     -12.006   9.033  72.267  1.00  0.00     0.000 HD 
ENDROOT
BRANCH   2   4
HETATM    4  C   UNL     1     -12.600  10.799  71.431  1.00  0.00    -0.410 C  
HETATM    5  C   UNL     1     -13.404  11.700  72.039  1.00  0.00    -0.300 C  
HETATM    6  O   UNL     1     -12.434  13.593  71.101  1.00  0.00    -0.354 OA 
HETATM    7  N   UNL     1     -13.316  13.125  71.832  1.00  0.00    -0.458 N  
HETATM    8  O   UNL     1     -14.164  13.801  72.435  1.00  0.00    -0.648 OA 
BRANCH   4   9
HETATM    9  N   UNL     1     -11.635  11.158  70.509  1.00  0.00    -0.446 NA 
HETATM   10  H   UNL     1     -11.102  11.995  70.744  1.00  0.00     0.000 HD 
BRANCH   9  11
HETATM   11  C   UNL     1     -11.267  10.524  69.259  1.00  0.00    -0.262 C  
BRANCH  11  12
HETATM   12  C   UNL     1      -9.759  10.250  69.239  1.00  0.00    -0.225 C  
BRANCH  12  13
HETATM   13  S   UNL     1      -9.072  10.195  67.549  1.00  0.00    -0.133 SA 
BRANCH  13  14
HETATM   14  C   UNL     1      -8.159  11.773  67.537  1.00  0.00    -0.152 C  
BRANCH  14  15
HETATM   15  C   UNL     1      -9.049  12.886  67.139  1.00  0.00    -0.220 A  
HETATM   16  C   UNL     1      -8.895  14.253  67.077  1.00  0.00    -0.243 A  
HETATM   17  C   UNL     1     -10.131  14.769  66.618  1.00  0.00    -0.269 A  
HETATM   18  C   UNL     1     -10.966  13.687  66.436  1.00  0.00    -0.297 A  
HETATM   19  O   UNL     1     -10.312  12.537  66.763  1.00  0.00    -0.224 OA 
BRANCH  18  20
HETATM   20  C   UNL     1     -12.383  13.541  65.989  1.00  0.00    -0.433 C  
BRANCH  20  21
HETATM   21  N   UNL     1     -12.588  13.878  64.567  1.00  0.00    -0.663 NA 
HETATM   22  C   UNL     1     -12.222  15.271  64.288  1.00  0.00    -0.189 C  
HETATM   23  C   UNL     1     -11.779  12.983  63.735  1.00  0.00    -0.485 C  
ENDBRANCH  20  21
ENDBRANCH  18  20
ENDBRANCH  14  15
ENDBRANCH  13  14
ENDBRANCH  12  13
ENDBRANCH  11  12
ENDBRANCH   9  11
ENDBRANCH   4   9
ENDBRANCH   2   4
TORSDOF 9
ENDMDL
MODEL      103
REMARK 921   NORMALIZED FREE ENERGY PREDICTED BY IDOCK:   -4.56 KCAL/MOL
REMARK 922        TOTAL FREE ENERGY PREDICTED BY IDOCK:   -7.35 KCAL/MOL
REMARK 923 INTER-LIGAND FREE ENERGY PREDICTED BY IDOCK:   -7.21 KCAL/MOL
REMARK 924 INTRA-LIGAND FREE ENERGY PREDICTED BY IDOCK:   -0.14 KCAL/MOL
REMARK 927      BINDING AFFINITY PREDICTED BY RF-SCORE:    0.00 PKD
ROOT
HETATM    1  C   UNL     1     -12.807  11.928  63.376  1.00  0.00    -0.256 C  
HETATM    2  N   UNL     1     -13.007  12.610  64.634  1.00  0.00    -0.844 NA 
HETATM    3  H   UNL     1     -13.787  12.271  65.197  1.00  0.00     0.000 HD 
ENDROOT
BRANCH   2   4
HETATM    4  C   UNL     1     -12.289  13.659  65.183  1.00  0.00    -0.452 C  
HETATM    5  C   UNL     1     -12.098  14.780  64.453  1.00  0.00    -0.440 C  
HETATM    6  O   UNL     1     -10.953  15.968  66.090  1.00  0.00    -0.225 OA 
HETATM    7  N   UNL     1     -11.386  15.940  64.931  1.00  0.00    -0.304 N  
HETATM    8  O   UNL     1     -11.265  16.863  64.111  1.00  0.00    -1.176 OA 
BRANCH   4   9
HETATM    9  N   UNL     1     -11.776  13.497  66.456  1.00  0.00    -0.352 NA 
HETATM   10  H   UNL     1     -12.033  14.226  67.122  1.00  0.00     0.000 HD 
BRANCH   9  11
HETATM   11  C   UNL     1     -10.930  12.448  66.988  1.00  0.00    -0.260 C  
BRANCH  11  12
HETATM   12  C   UNL     1     -11.752  11.521  67.889  1.00  0.00    -0.247 C  
BRANCH  12  13
HETATM   13  S   UNL     1     -11.709  12.017  69.644  1.00  0.00    -0.316 SA 
BRANCH  13  14
HETATM   14  C   UNL     1     -12.379  10.503  70.408  1.00  0.00    -0.324 C  
BRANCH  14  15
HETATM   15  C   UNL     1     -11.295   9.533  70.678  1.00  0.00    -0.301 A  
HETATM   16  C   UNL     1     -10.763   8.996  71.828  1.00  0.00    -0.437 A  
HETATM   17  C   UNL     1      -9.730   8.121  71.414  1.00  0.00    -0.219 A  
HETATM   18  C   UNL     1      -9.689   8.183  70.037  1.00  0.00    -0.172 A  
HETATM   19  O   UNL     1     -10.636   9.053  69.585  1.00  0.00    -0.219 OA 
BRANCH  18  20
HETATM   20  C   UNL     1      -8.838   7.530  68.999  1.00  0.00    -0.132 C  
BRANCH  20  21
HETATM   21  N   UNL     1      -9.239   6.141  68.700  1.00  0.00    -0.124 NA 
HETATM   22  C   UNL     1     -10.668   5.929  68.954  1.00  0.00    -0.300 C  
HETATM   23  C   UNL     1      -8.941   5.843  67.297  1.00  0.00    -0.108 C  
ENDBRANCH  20  21
ENDBRANCH  18  20
ENDBRANCH  14  15
ENDBRANCH  13  14
ENDBRANCH  12  13
ENDBRANCH  11  12
ENDBRANCH   9  11
ENDBRANCH   4   9
ENDBRANCH   2   4
TORSDOF 9
ENDMDL
MODEL      104
REMARK 921   NORMALIZED FREE ENERGY PREDICTED BY IDOCK:   -4.55 KCAL/MOL
REMARK 922        TOTAL FREE ENERGY PREDICTED BY IDOCK:   -7.34 KCAL/MOL
REMARK 923 INTER-LIGAND FREE ENERGY PREDICTED BY IDOCK:   -6.47 KCAL/MOL
REMARK 924 INTRA-LIGAND FREE ENERGY PREDICTED BY IDOCK:   -0.87 KCAL/MOL
REMARK 927      BINDING AFFINITY PREDICTED BY RF-SCORE:    0.00 PKD
ROOT
HETATM    1  C   UNL     1     -10.931   6.230  68.503  1.00  0.00    -0.340 C  
HETATM    2  N   UNL     1     -11.853   6.504  69.582  1.00  0.00    -0.610 NA 
HETATM    3  H   UNL     1     -12.830   6.608  69.308  1.00  0.00     0.000 HD 
ENDROOT
BRANCH   2   4
HETATM    4  C   UNL     1     -11.597   6.646  70.935  1.00  0.00    -0.361 C  
HETATM    5  C   UNL     1     -10.325   6.540  71.379  1.00  0.00    -0.206 C  
HETATM    6  O   UNL     1     -10.790   6.983  73.614  1.00  0.00    -0.336 OA 
HETATM    7  N   UNL     1      -9.941   6.692  72.762  1.00  0.00    -0.170 N  
HETATM    8  O   UNL     1      -8.736   6.517  72.999  1.00  0.00    -0.126 OA 
BRANCH   4   9
HETATM    9  N   UNL     1     -12.670   6.865  71.778  1.00  0.00    -0.439 NA 
HETATM   10  H   UNL     1     -12.723   6.241  72.583  1.00  0.00     0.000 HD 
BRANCH   9  11
HETATM   11  C   UNL     1     -13.731   7.848  71.691  1.00  0.00    -0.360 C  
BRANCH  11  12
HETATM   12  C   UNL     1     -13.421   9.033  72.612  1.00  0.00    -0.342 C  
BRANCH  12  13
HETATM   13  S   UNL     1     -13.069  10.571  71.695  1.00  0.00    -0.431 SA 
BRANCH  13  14
HETATM   14  C   UNL     1     -11.421  10.163  71.033  1.00  0.00    -0.354 C  
BRANCH  14  15
HETATM   15  C   UNL     1     -11.328  10.534  69.603  1.00  0.00    -0.281 A  
HETATM   16  C   UNL     1     -11.892  11.531  68.841  1.00  0.00    -0.406 A  
HETATM   17  C   UNL     1     -11.408  11.341  67.523  1.00  0.00    -0.360 A  
HETATM   18  C   UNL     1     -10.586  10.235  67.561  1.00  0.00    -0.268 A  
HETATM   19  O   UNL     1     -10.543   9.733  68.828  1.00  0.00    -0.207 OA 
BRANCH  18  20
HETATM   20  C   UNL     1      -9.788   9.506  66.532  1.00  0.00    -0.240 C  
BRANCH  20  21
HETATM   21  N   UNL     1      -9.071  10.401  65.602  1.00  0.00    -0.167 NA 
HETATM   22  C   UNL     1      -7.684   9.967  65.403  1.00  0.00    -0.137 C  
HETATM   23  C   UNL     1      -9.768  10.420  64.314  1.00  0.00    -0.326 C  
ENDBRANCH  20  21
ENDBRANCH  18  20
ENDBRANCH  14  15
ENDBRANCH  13  14
ENDBRANCH  12  13
ENDBRANCH  11  12
ENDBRANCH   9  11
ENDBRANCH   4   9
ENDBRANCH   2   4
TORSDOF 9
ENDMDL
MODEL      105
REMARK 921   NORMALIZED FREE ENERGY PREDICTED BY IDOCK:   -4.54 KCAL/MOL
REMARK 922        TOTAL FREE ENERGY PREDICTED BY IDOCK:   -7.32 KCAL/MOL
REMARK 923 INTER-LIGAND FREE ENERGY PREDICTED BY IDOCK:   -7.46 KCAL/MOL
REMARK 924 INTRA-LIGAND FREE ENERGY PREDICTED BY IDOCK:    0.14 KCAL/MOL
REMARK 927      BINDING AFFINITY PREDICTED BY RF-SCORE:    0.00 PKD
ROOT
HETATM    1  C   UNL     1      -9.951   8.256  67.190  1.00  0.00    -0.239 C  
HETATM    2  N   UNL     1     -10.729   9.467  67.327  1.00  0.00    -0.307 NA 
HETATM    3  H   UNL     1     -10.930   9.958  66.456  1.00  0.00     0.000 HD 
ENDROOT
BRANCH   2   4
HETATM    4  C   UNL     1     -11.239  10.054  68.472  1.00  0.00    -0.123 C  
HETATM    5  C   UNL     1     -10.970   9.496  69.674  1.00  0.00    -0.212 C  
HETATM    6  O   UNL     1     -12.070  11.093  70.957  1.00  0.00    -0.335 OA 
HETATM    7  N   UNL     1     -11.430  10.033  70.931  1.00  0.00    -0.347 N  
HETATM    8  O   UNL     1     -11.130   9.368  71.933  1.00  0.00    -0.344 OA 
BRANCH   4   9
HETATM    9  N   UNL     1     -12.027  11.179  68.328  1.00  0.00    -0.692 NA 
HETATM   10  H   UNL     1     -13.014  11.048  68.550  1.00  0.00     0.000 HD 
BRANCH   9  11
HETATM   11  C   UNL     1     -11.663  12.518  67.910  1.00  0.00    -0.359 C  
BRANCH  11  12
HETATM   12  C   UNL     1     -11.727  12.622  66.382  1.00  0.00    -0.405 C  
BRANCH  12  13
HETATM   13  S   UNL     1     -10.119  13.049  65.633  1.00  0.00    -0.238 SA 
BRANCH  13  14
HETATM   14  C   UNL     1     -10.577  14.596  64.784  1.00  0.00    -0.353 C  
BRANCH  14  15
HETATM   15  C   UNL     1     -10.494  15.744  65.714  1.00  0.00    -0.367 A  
HETATM   16  C   UNL     1     -10.330  15.855  67.076  1.00  0.00    -0.297 A  
HETATM   17  C   UNL     1     -10.338  17.242  67.363  1.00  0.00    -0.338 A  
HETATM   18  C   UNL     1     -10.515  17.892  66.160  1.00  0.00    -0.321 A  
HETATM   19  O   UNL     1     -10.621  16.980  65.152  1.00  0.00    -0.688 OA 
BRANCH  18  20
HETATM   20  C   UNL     1     -10.626  19.328  65.769  1.00  0.00    -0.366 C  
BRANCH  20  21
HETATM   21  N   UNL     1      -9.700  20.210  66.505  1.00  0.00    -0.423 NA 
HETATM   22  C   UNL     1     -10.036  20.270  67.931  1.00  0.00    -0.352 C  
HETATM   23  C   UNL     1      -8.330  19.715  66.345  1.00  0.00    -0.353 C  
ENDBRANCH  20  21
ENDBRANCH  18  20
ENDBRANCH  14  15
ENDBRANCH  13  14
ENDBRANCH  12  13
ENDBRANCH  11  12
ENDBRANCH   9  11
ENDBRANCH   4   9
ENDBRANCH   2   4
TORSDOF 9
ENDMDL
MODEL      106
REMARK 921   NORMALIZED FREE ENERGY PREDICTED BY IDOCK:   -4.53 KCAL/MOL
REMARK 922        TOTAL FREE ENERGY PREDICTED BY IDOCK:   -7.31 KCAL/MOL
REMARK 923 INTER-LIGAND FREE ENERGY PREDICTED BY IDOCK:   -6.67 KCAL/MOL
REMARK 924 INTRA-LIGAND FREE ENERGY PREDICTED BY IDOCK:   -0.64 KCAL/MOL
REMARK 927      BINDING AFFINITY PREDICTED BY RF-SCORE:    0.00 PKD
ROOT
HETATM    1  C   UNL     1     -14.328  15.170  72.036  1.00  0.00    -0.586 C  
HETATM    2  N   UNL     1     -13.042  14.719  71.554  1.00  0.00    -0.331 NA 
HETATM    3  H   UNL     1     -12.316  15.433  71.510  1.00  0.00     0.000 HD 
ENDROOT
BRANCH   2   4
HETATM    4  C   UNL     1     -12.657  13.453  71.144  1.00  0.00    -0.345 C  
HETATM    5  C   UNL     1     -13.087  12.376  71.838  1.00  0.00    -0.366 C  
HETATM    6  O   UNL     1     -12.102  10.773  70.472  1.00  0.00    -0.303 OA 
HETATM    7  N   UNL     1     -12.767  11.014  71.488  1.00  0.00    -0.421 N  
HETATM    8  O   UNL     1     -13.208  10.151  72.262  1.00  0.00    -0.415 OA 
BRANCH   4   9
HETATM    9  N   UNL     1     -11.822  13.354  70.047  1.00  0.00    -0.431 NA 
HETATM   10  H   UNL     1     -10.944  12.864  70.215  1.00  0.00     0.000 HD 
BRANCH   9  11
HETATM   11  C   UNL     1     -12.007  13.841  68.695  1.00  0.00    -0.366 C  
BRANCH  11  12
HETATM   12  C   UNL     1     -11.597  12.757  67.691  1.00  0.00    -0.358 C  
BRANCH  12  13
HETATM   13  S   UNL     1     -10.225  13.278  66.607  1.00  0.00    -0.270 SA 
BRANCH  13  14
HETATM   14  C   UNL     1      -8.911  13.486  67.853  1.00  0.00    -0.190 C  
BRANCH  14  15
HETATM   15  C   UNL     1      -8.063  14.653  67.526  1.00  0.00    -0.184 A  
HETATM   16  C   UNL     1      -6.719  14.919  67.657  1.00  0.00    -0.200 A  
HETATM   17  C   UNL     1      -6.527  16.232  67.161  1.00  0.00    -0.214 A  
HETATM   18  C   UNL     1      -7.766  16.689  66.765  1.00  0.00    -0.257 A  
HETATM   19  O   UNL     1      -8.708  15.732  66.997  1.00  0.00    -0.192 OA 
BRANCH  18  20
HETATM   20  C   UNL     1      -8.254  17.972  66.179  1.00  0.00    -0.144 C  
BRANCH  20  21
HETATM   21  N   UNL     1      -9.346  18.594  66.955  1.00  0.00    -0.294 NA 
HETATM   22  C   UNL     1      -8.829  19.320  68.119  1.00  0.00    -0.330 C  
HETATM   23  C   UNL     1     -10.088  19.516  66.091  1.00  0.00    -0.469 C  
ENDBRANCH  20  21
ENDBRANCH  18  20
ENDBRANCH  14  15
ENDBRANCH  13  14
ENDBRANCH  12  13
ENDBRANCH  11  12
ENDBRANCH   9  11
ENDBRANCH   4   9
ENDBRANCH   2   4
TORSDOF 9
ENDMDL
MODEL      107
REMARK 921   NORMALIZED FREE ENERGY PREDICTED BY IDOCK:   -4.53 KCAL/MOL
REMARK 922        TOTAL FREE ENERGY PREDICTED BY IDOCK:   -7.31 KCAL/MOL
REMARK 923 INTER-LIGAND FREE ENERGY PREDICTED BY IDOCK:   -6.92 KCAL/MOL
REMARK 924 INTRA-LIGAND FREE ENERGY PREDICTED BY IDOCK:   -0.39 KCAL/MOL
REMARK 927      BINDING AFFINITY PREDICTED BY RF-SCORE:    0.00 PKD
ROOT
HETATM    1  C   UNL     1     -11.034   6.413  68.497  1.00  0.00    -0.319 C  
HETATM    2  N   UNL     1     -11.765   6.552  69.736  1.00  0.00    -0.632 NA 
HETATM    3  H   UNL     1     -12.773   6.408  69.668  1.00  0.00     0.000 HD 
ENDROOT
BRANCH   2   4
HETATM    4  C   UNL     1     -11.292   6.854  71.001  1.00  0.00    -0.299 C  
HETATM    5  C   UNL     1     -11.318   5.899  71.959  1.00  0.00    -0.267 C  
HETATM    6  O   UNL     1     -10.308   7.171  73.624  1.00  0.00    -0.330 OA 
HETATM    7  N   UNL     1     -10.832   6.095  73.303  1.00  0.00    -0.258 N  
HETATM    8  O   UNL     1     -10.975   5.127  74.065  1.00  0.00    -0.270 OA 
BRANCH   4   9
HETATM    9  N   UNL     1     -10.835   8.136  71.234  1.00  0.00    -0.232 NA 
HETATM   10  H   UNL     1      -9.926   8.196  71.693  1.00  0.00     0.000 HD 
BRANCH   9  11
HETATM   11  C   UNL     1     -11.451   9.411  70.924  1.00  0.00    -0.316 C  
BRANCH  11  12
HETATM   12  C   UNL     1     -10.661  10.115  69.815  1.00  0.00    -0.279 C  
BRANCH  12  13
HETATM   13  S   UNL     1     -11.638  11.391  68.950  1.00  0.00    -0.352 SA 
BRANCH  13  14
HETATM   14  C   UNL     1     -10.295  12.515  68.444  1.00  0.00    -0.230 C  
BRANCH  14  15
HETATM   15  C   UNL     1     -10.744  13.924  68.509  1.00  0.00    -0.257 A  
HETATM   16  C   UNL     1     -11.716  14.580  69.229  1.00  0.00    -0.350 A  
HETATM   17  C   UNL     1     -11.651  15.938  68.832  1.00  0.00    -0.392 A  
HETATM   18  C   UNL     1     -10.649  16.025  67.889  1.00  0.00    -0.301 A  
HETATM   19  O   UNL     1     -10.100  14.795  67.681  1.00  0.00    -0.226 OA 
BRANCH  18  20
HETATM   20  C   UNL     1     -10.089  17.147  67.078  1.00  0.00    -0.297 C  
BRANCH  20  21
HETATM   21  N   UNL     1     -10.631  18.468  67.451  1.00  0.00    -0.424 NA 
HETATM   22  C   UNL     1      -9.858  19.077  68.538  1.00  0.00    -0.411 C  
HETATM   23  C   UNL     1     -10.607  19.349  66.280  1.00  0.00    -0.475 C  
ENDBRANCH  20  21
ENDBRANCH  18  20
ENDBRANCH  14  15
ENDBRANCH  13  14
ENDBRANCH  12  13
ENDBRANCH  11  12
ENDBRANCH   9  11
ENDBRANCH   4   9
ENDBRANCH   2   4
TORSDOF 9
ENDMDL
MODEL      108
REMARK 921   NORMALIZED FREE ENERGY PREDICTED BY IDOCK:   -4.53 KCAL/MOL
REMARK 922        TOTAL FREE ENERGY PREDICTED BY IDOCK:   -7.30 KCAL/MOL
REMARK 923 INTER-LIGAND FREE ENERGY PREDICTED BY IDOCK:   -6.76 KCAL/MOL
REMARK 924 INTRA-LIGAND FREE ENERGY PREDICTED BY IDOCK:   -0.55 KCAL/MOL
REMARK 927      BINDING AFFINITY PREDICTED BY RF-SCORE:    0.00 PKD
ROOT
HETATM    1  C   UNL     1      -6.164  20.902  64.511  1.00  0.00    -0.282 C  
HETATM    2  N   UNL     1      -7.310  20.188  65.027  1.00  0.00    -0.389 NA 
HETATM    3  H   UNL     1      -7.924  19.779  64.323  1.00  0.00     0.000 HD 
ENDROOT
BRANCH   2   4
HETATM    4  C   UNL     1      -7.691  19.981  66.342  1.00  0.00    -0.299 C  
HETATM    5  C   UNL     1      -6.778  19.529  67.229  1.00  0.00    -0.196 C  
HETATM    6  O   UNL     1      -8.175  19.566  69.087  1.00  0.00    -0.308 OA 
HETATM    7  N   UNL     1      -7.058  19.299  68.626  1.00  0.00    -0.307 N  
HETATM    8  O   UNL     1      -6.115  18.839  69.287  1.00  0.00    -0.235 OA 
BRANCH   4   9
HETATM    9  N   UNL     1      -9.008  20.226  66.681  1.00  0.00    -0.522 NA 
HETATM   10  H   UNL     1      -9.144  20.921  67.415  1.00  0.00     0.000 HD 
BRANCH   9  11
HETATM   11  C   UNL     1     -10.225  19.645  66.151  1.00  0.00    -0.508 C  
BRANCH  11  12
HETATM   12  C   UNL     1     -10.756  18.578  67.114  1.00  0.00    -0.351 C  
BRANCH  12  13
HETATM   13  S   UNL     1     -10.030  16.931  66.817  1.00  0.00    -0.300 SA 
BRANCH  13  14
HETATM   14  C   UNL     1     -11.105  15.923  67.891  1.00  0.00    -0.317 C  
BRANCH  14  15
HETATM   15  C   UNL     1     -11.342  14.593  67.289  1.00  0.00    -0.353 A  
HETATM   16  C   UNL     1     -11.687  14.168  66.026  1.00  0.00    -0.389 A  
HETATM   17  C   UNL     1     -11.768  12.756  66.094  1.00  0.00    -0.458 A  
HETATM   18  C   UNL     1     -11.475  12.406  67.395  1.00  0.00    -0.352 A  
HETATM   19  O   UNL     1     -11.225  13.526  68.130  1.00  0.00    -0.249 OA 
BRANCH  18  20
HETATM   20  C   UNL     1     -11.402  11.105  68.123  1.00  0.00    -0.309 C  
BRANCH  20  21
HETATM   21  N   UNL     1     -10.165  10.347  67.847  1.00  0.00    -0.170 NA 
HETATM   22  C   UNL     1      -9.435  10.044  69.082  1.00  0.00    -0.207 C  
HETATM   23  C   UNL     1     -10.507   9.098  67.161  1.00  0.00    -0.255 C  
ENDBRANCH  20  21
ENDBRANCH  18  20
ENDBRANCH  14  15
ENDBRANCH  13  14
ENDBRANCH  12  13
ENDBRANCH  11  12
ENDBRANCH   9  11
ENDBRANCH   4   9
ENDBRANCH   2   4
TORSDOF 9
ENDMDL
MODEL      109
REMARK 921   NORMALIZED FREE ENERGY PREDICTED BY IDOCK:   -4.53 KCAL/MOL
REMARK 922        TOTAL FREE ENERGY PREDICTED BY IDOCK:   -7.30 KCAL/MOL
REMARK 923 INTER-LIGAND FREE ENERGY PREDICTED BY IDOCK:   -6.75 KCAL/MOL
REMARK 924 INTRA-LIGAND FREE ENERGY PREDICTED BY IDOCK:   -0.55 KCAL/MOL
REMARK 927      BINDING AFFINITY PREDICTED BY RF-SCORE:    0.00 PKD
ROOT
HETATM    1  C   UNL     1     -10.420  20.090  65.993  1.00  0.00    -0.416 C  
HETATM    2  N   UNL     1     -10.627  18.671  66.175  1.00  0.00    -0.418 NA 
HETATM    3  H   UNL     1     -11.591  18.352  66.073  1.00  0.00     0.000 HD 
ENDROOT
BRANCH   2   4
HETATM    4  C   UNL     1      -9.703  17.683  66.468  1.00  0.00    -0.304 C  
HETATM    5  C   UNL     1      -8.903  17.829  67.548  1.00  0.00    -0.243 C  
HETATM    6  O   UNL     1      -7.808  15.788  67.342  1.00  0.00    -0.145 OA 
HETATM    7  N   UNL     1      -7.922  16.855  67.960  1.00  0.00    -0.180 N  
HETATM    8  O   UNL     1      -7.243  17.172  68.948  1.00  0.00    -0.225 OA 
BRANCH   4   9
HETATM    9  N   UNL     1      -9.624  16.596  65.619  1.00  0.00    -0.519 NA 
HETATM   10  H   UNL     1      -8.693  16.401  65.250  1.00  0.00     0.000 HD 
BRANCH   9  11
HETATM   11  C   UNL     1     -10.664  15.691  65.173  1.00  0.00    -0.443 C  
BRANCH  11  12
HETATM   12  C   UNL     1     -11.152  14.838  66.348  1.00  0.00    -0.340 C  
BRANCH  12  13
HETATM   13  S   UNL     1     -10.455  13.152  66.338  1.00  0.00    -0.287 SA 
BRANCH  13  14
HETATM   14  C   UNL     1     -11.886  12.224  66.983  1.00  0.00    -0.259 C  
BRANCH  14  15
HETATM   15  C   UNL     1     -11.440  11.144  67.891  1.00  0.00    -0.284 A  
HETATM   16  C   UNL     1     -10.621  10.049  67.736  1.00  0.00    -0.311 A  
HETATM   17  C   UNL     1     -10.598   9.393  68.991  1.00  0.00    -0.233 A  
HETATM   18  C   UNL     1     -11.410  10.123  69.832  1.00  0.00    -0.275 A  
HETATM   19  O   UNL     1     -11.935  11.187  69.161  1.00  0.00    -0.330 OA 
BRANCH  18  20
HETATM   20  C   UNL     1     -11.822   9.971  71.259  1.00  0.00    -0.385 C  
BRANCH  20  21
HETATM   21  N   UNL     1     -12.506   8.693  71.539  1.00  0.00    -0.314 NA 
HETATM   22  C   UNL     1     -11.729   7.861  72.464  1.00  0.00    -0.367 C  
HETATM   23  C   UNL     1     -13.825   8.967  72.117  1.00  0.00    -0.473 C  
ENDBRANCH  20  21
ENDBRANCH  18  20
ENDBRANCH  14  15
ENDBRANCH  13  14
ENDBRANCH  12  13
ENDBRANCH  11  12
ENDBRANCH   9  11
ENDBRANCH   4   9
ENDBRANCH   2   4
TORSDOF 9
ENDMDL
MODEL      110
REMARK 921   NORMALIZED FREE ENERGY PREDICTED BY IDOCK:   -4.52 KCAL/MOL
REMARK 922        TOTAL FREE ENERGY PREDICTED BY IDOCK:   -7.29 KCAL/MOL
REMARK 923 INTER-LIGAND FREE ENERGY PREDICTED BY IDOCK:   -6.75 KCAL/MOL
REMARK 924 INTRA-LIGAND FREE ENERGY PREDICTED BY IDOCK:   -0.54 KCAL/MOL
REMARK 927      BINDING AFFINITY PREDICTED BY RF-SCORE:    0.00 PKD
ROOT
HETATM    1  C   UNL     1      -8.746  13.868  67.329  1.00  0.00    -0.217 C  
HETATM    2  N   UNL     1      -9.302  13.294  66.125  1.00  0.00    -0.468 NA 
HETATM    3  H   UNL     1      -8.621  12.971  65.438  1.00  0.00     0.000 HD 
ENDROOT
BRANCH   2   4
HETATM    4  C   UNL     1     -10.630  13.120  65.772  1.00  0.00    -0.282 C  
HETATM    5  C   UNL     1     -11.029  13.457  64.525  1.00  0.00    -0.390 C  
HETATM    6  O   UNL     1     -13.241  12.784  64.767  1.00  0.00    -0.812 OA 
HETATM    7  N   UNL     1     -12.379  13.299  64.042  1.00  0.00    -0.374 N  
HETATM    8  O   UNL     1     -12.580  13.703  62.887  1.00  0.00    -0.621 OA 
BRANCH   4   9
HETATM    9  N   UNL     1     -11.496  12.630  66.729  1.00  0.00    -0.330 NA 
HETATM   10  H   UNL     1     -12.327  13.199  66.894  1.00  0.00     0.000 HD 
BRANCH   9  11
HETATM   11  C   UNL     1     -11.404  11.429  67.535  1.00  0.00    -0.292 C  
BRANCH  11  12
HETATM   12  C   UNL     1     -11.164  11.803  69.002  1.00  0.00    -0.265 C  
BRANCH  12  13
HETATM   13  S   UNL     1     -12.311  10.962  70.145  1.00  0.00    -0.294 SA 
BRANCH  13  14
HETATM   14  C   UNL     1     -11.114   9.998  71.126  1.00  0.00    -0.200 C  
BRANCH  14  15
HETATM   15  C   UNL     1     -11.339   8.547  70.941  1.00  0.00    -0.268 A  
HETATM   16  C   UNL     1     -12.156   7.625  71.554  1.00  0.00    -0.338 A  
HETATM   17  C   UNL     1     -11.897   6.386  70.919  1.00  0.00    -0.317 A  
HETATM   18  C   UNL     1     -10.933   6.626  69.964  1.00  0.00    -0.311 A  
HETATM   19  O   UNL     1     -10.581   7.943  69.982  1.00  0.00    -0.233 OA 
BRANCH  18  20
HETATM   20  C   UNL     1     -10.220   5.763  68.977  1.00  0.00    -0.217 C  
BRANCH  20  21
HETATM   21  N   UNL     1      -9.924   6.449  67.704  1.00  0.00    -0.119 NA 
HETATM   22  C   UNL     1      -8.479   6.525  67.459  1.00  0.00    -0.120 C  
HETATM   23  C   UNL     1     -10.569   5.729  66.603  1.00  0.00    -0.280 C  
ENDBRANCH  20  21
ENDBRANCH  18  20
ENDBRANCH  14  15
ENDBRANCH  13  14
ENDBRANCH  12  13
ENDBRANCH  11  12
ENDBRANCH   9  11
ENDBRANCH   4   9
ENDBRANCH   2   4
TORSDOF 9
ENDMDL
MODEL      111
REMARK 921   NORMALIZED FREE ENERGY PREDICTED BY IDOCK:   -4.52 KCAL/MOL
REMARK 922        TOTAL FREE ENERGY PREDICTED BY IDOCK:   -7.29 KCAL/MOL
REMARK 923 INTER-LIGAND FREE ENERGY PREDICTED BY IDOCK:   -6.02 KCAL/MOL
REMARK 924 INTRA-LIGAND FREE ENERGY PREDICTED BY IDOCK:   -1.27 KCAL/MOL
REMARK 927      BINDING AFFINITY PREDICTED BY RF-SCORE:    0.00 PKD
ROOT
HETATM    1  C   UNL     1     -10.650   5.586  66.468  1.00  0.00    -0.279 C  
HETATM    2  N   UNL     1     -11.061   6.943  66.750  1.00  0.00    -0.597 NA 
HETATM    3  H   UNL     1     -11.970   7.212  66.375  1.00  0.00     0.000 HD 
ENDROOT
BRANCH   2   4
HETATM    4  C   UNL     1     -10.395   7.929  67.457  1.00  0.00    -0.259 C  
HETATM    5  C   UNL     1      -9.699   7.589  68.565  1.00  0.00    -0.156 C  
HETATM    6  O   UNL     1      -8.877   9.716  69.022  1.00  0.00    -0.135 OA 
HETATM    7  N   UNL     1      -8.951   8.529  69.365  1.00  0.00    -0.148 N  
HETATM    8  O   UNL     1      -8.410   8.052  70.374  1.00  0.00    -0.116 OA 
BRANCH   4   9
HETATM    9  N   UNL     1     -10.495   9.231  67.005  1.00  0.00    -0.250 NA 
HETATM   10  H   UNL     1     -11.008   9.864  67.618  1.00  0.00     0.000 HD 
BRANCH   9  11
HETATM   11  C   UNL     1      -9.980   9.833  65.792  1.00  0.00    -0.279 C  
BRANCH  11  12
HETATM   12  C   UNL     1     -10.556  11.243  65.624  1.00  0.00    -0.244 C  
BRANCH  12  13
HETATM   13  S   UNL     1      -9.803  12.455  66.761  1.00  0.00    -0.227 SA 
BRANCH  13  14
HETATM   14  C   UNL     1     -11.308  13.298  67.352  1.00  0.00    -0.303 C  
BRANCH  14  15
HETATM   15  C   UNL     1     -11.703  12.786  68.683  1.00  0.00    -0.324 A  
HETATM   16  C   UNL     1     -11.988  13.388  69.887  1.00  0.00    -0.408 A  
HETATM   17  C   UNL     1     -12.296  12.339  70.788  1.00  0.00    -0.383 A  
HETATM   18  C   UNL     1     -12.171  11.163  70.081  1.00  0.00    -0.337 A  
HETATM   19  O   UNL     1     -11.798  11.431  68.798  1.00  0.00    -0.310 OA 
BRANCH  18  20
HETATM   20  C   UNL     1     -12.338   9.722  70.435  1.00  0.00    -0.011 C  
BRANCH  20  21
HETATM   21  N   UNL     1     -12.459   9.485  71.888  1.00  0.00    -0.384 NA 
HETATM   22  C   UNL     1     -13.813   9.053  72.249  1.00  0.00    -0.484 C  
HETATM   23  C   UNL     1     -11.494   8.460  72.293  1.00  0.00    -0.384 C  
ENDBRANCH  20  21
ENDBRANCH  18  20
ENDBRANCH  14  15
ENDBRANCH  13  14
ENDBRANCH  12  13
ENDBRANCH  11  12
ENDBRANCH   9  11
ENDBRANCH   4   9
ENDBRANCH   2   4
TORSDOF 9
ENDMDL
MODEL      112
REMARK 921   NORMALIZED FREE ENERGY PREDICTED BY IDOCK:   -4.51 KCAL/MOL
REMARK 922        TOTAL FREE ENERGY PREDICTED BY IDOCK:   -7.27 KCAL/MOL
REMARK 923 INTER-LIGAND FREE ENERGY PREDICTED BY IDOCK:   -6.78 KCAL/MOL
REMARK 924 INTRA-LIGAND FREE ENERGY PREDICTED BY IDOCK:   -0.49 KCAL/MOL
REMARK 927      BINDING AFFINITY PREDICTED BY RF-SCORE:    0.00 PKD
ROOT
HETATM    1  C   UNL     1      -6.094  20.629  64.447  1.00  0.00    -0.298 C  
HETATM    2  N   UNL     1      -7.386  20.231  64.959  1.00  0.00    -0.422 NA 
HETATM    3  H   UNL     1      -8.120  20.124  64.259  1.00  0.00     0.000 HD 
ENDROOT
BRANCH   2   4
HETATM    4  C   UNL     1      -7.768  19.975  66.265  1.00  0.00    -0.300 C  
HETATM    5  C   UNL     1      -6.884  19.397  67.108  1.00  0.00    -0.193 C  
HETATM    6  O   UNL     1      -8.253  19.433  68.988  1.00  0.00    -0.346 OA 
HETATM    7  N   UNL     1      -7.167  19.105  68.493  1.00  0.00    -0.292 N  
HETATM    8  O   UNL     1      -6.257  18.530  69.109  1.00  0.00    -0.228 OA 
BRANCH   4   9
HETATM    9  N   UNL     1      -9.056  20.305  66.639  1.00  0.00    -0.534 NA 
HETATM   10  H   UNL     1      -9.128  21.022  67.361  1.00  0.00     0.000 HD 
BRANCH   9  11
HETATM   11  C   UNL     1     -10.322  19.786  66.161  1.00  0.00    -0.524 C  
BRANCH  11  12
HETATM   12  C   UNL     1     -10.934  18.854  67.213  1.00  0.00    -0.235 C  
BRANCH  12  13
HETATM   13  S   UNL     1     -10.327  17.139  67.079  1.00  0.00    -0.286 SA 
BRANCH  13  14
HETATM   14  C   UNL     1     -11.145  16.409  68.536  1.00  0.00    -0.357 C  
BRANCH  14  15
HETATM   15  C   UNL     1     -11.455  14.982  68.298  1.00  0.00    -0.332 A  
HETATM   16  C   UNL     1     -11.868  14.269  67.195  1.00  0.00    -0.454 A  
HETATM   17  C   UNL     1     -11.997  12.924  67.620  1.00  0.00    -0.344 A  
HETATM   18  C   UNL     1     -11.664  12.901  68.958  1.00  0.00    -0.327 A  
HETATM   19  O   UNL     1     -11.343  14.157  69.378  1.00  0.00    -0.254 OA 
BRANCH  18  20
HETATM   20  C   UNL     1     -11.607  11.823  69.989  1.00  0.00    -0.236 C  
BRANCH  20  21
HETATM   21  N   UNL     1     -12.901  11.584  70.660  1.00  0.00    -0.136 NA 
HETATM   22  C   UNL     1     -13.053  10.177  71.044  1.00  0.00    -0.375 C  
HETATM   23  C   UNL     1     -12.991  12.430  71.852  1.00  0.00    -0.302 C  
ENDBRANCH  20  21
ENDBRANCH  18  20
ENDBRANCH  14  15
ENDBRANCH  13  14
ENDBRANCH  12  13
ENDBRANCH  11  12
ENDBRANCH   9  11
ENDBRANCH   4   9
ENDBRANCH   2   4
TORSDOF 9
ENDMDL
MODEL      113
REMARK 921   NORMALIZED FREE ENERGY PREDICTED BY IDOCK:   -4.50 KCAL/MOL
REMARK 922        TOTAL FREE ENERGY PREDICTED BY IDOCK:   -7.25 KCAL/MOL
REMARK 923 INTER-LIGAND FREE ENERGY PREDICTED BY IDOCK:   -6.68 KCAL/MOL
REMARK 924 INTRA-LIGAND FREE ENERGY PREDICTED BY IDOCK:   -0.57 KCAL/MOL
REMARK 927      BINDING AFFINITY PREDICTED BY RF-SCORE:    0.00 PKD
ROOT
HETATM    1  C   UNL     1     -13.205  11.444  71.805  1.00  0.00    -0.367 C  
HETATM    2  N   UNL     1     -12.785  10.226  71.151  1.00  0.00    -0.370 NA 
HETATM    3  H   UNL     1     -13.491   9.493  71.096  1.00  0.00     0.000 HD 
ENDROOT
BRANCH   2   4
HETATM    4  C   UNL     1     -11.559   9.914  70.589  1.00  0.00    -0.335 C  
HETATM    5  C   UNL     1     -10.536   9.554  71.397  1.00  0.00    -0.237 C  
HETATM    6  O   UNL     1      -8.996   9.140  69.705  1.00  0.00    -0.141 OA 
HETATM    7  N   UNL     1      -9.225   9.188  70.921  1.00  0.00    -0.255 N  
HETATM    8  O   UNL     1      -8.393   8.931  71.804  1.00  0.00    -0.321 OA 
BRANCH   4   9
HETATM    9  N   UNL     1     -11.431  10.010  69.217  1.00  0.00    -0.445 NA 
HETATM   10  H   UNL     1     -11.113   9.160  68.751  1.00  0.00     0.000 HD 
BRANCH   9  11
HETATM   11  C   UNL     1     -11.680  11.136  68.339  1.00  0.00    -0.279 C  
BRANCH  11  12
HETATM   12  C   UNL     1     -10.760  11.056  67.116  1.00  0.00    -0.265 C  
BRANCH  12  13
HETATM   13  S   UNL     1     -10.744  12.598  66.140  1.00  0.00    -0.274 SA 
BRANCH  13  14
HETATM   14  C   UNL     1     -12.026  13.539  67.031  1.00  0.00    -0.394 C  
BRANCH  14  15
HETATM   15  C   UNL     1     -11.507  14.861  67.446  1.00  0.00    -0.343 A  
HETATM   16  C   UNL     1     -11.710  15.659  68.549  1.00  0.00    -0.339 A  
HETATM   17  C   UNL     1     -10.921  16.818  68.348  1.00  0.00    -0.325 A  
HETATM   18  C   UNL     1     -10.292  16.660  67.131  1.00  0.00    -0.300 A  
HETATM   19  O   UNL     1     -10.656  15.471  66.573  1.00  0.00    -0.299 OA 
BRANCH  18  20
HETATM   20  C   UNL     1      -9.351  17.505  66.338  1.00  0.00    -0.246 C  
BRANCH  20  21
HETATM   21  N   UNL     1      -9.459  18.946  66.640  1.00  0.00    -0.322 NA 
HETATM   22  C   UNL     1      -8.221  19.657  66.305  1.00  0.00    -0.347 C  
HETATM   23  C   UNL     1     -10.574  19.517  65.880  1.00  0.00    -0.476 C  
ENDBRANCH  20  21
ENDBRANCH  18  20
ENDBRANCH  14  15
ENDBRANCH  13  14
ENDBRANCH  12  13
ENDBRANCH  11  12
ENDBRANCH   9  11
ENDBRANCH   4   9
ENDBRANCH   2   4
TORSDOF 9
ENDMDL
MODEL      114
REMARK 921   NORMALIZED FREE ENERGY PREDICTED BY IDOCK:   -4.49 KCAL/MOL
REMARK 922        TOTAL FREE ENERGY PREDICTED BY IDOCK:   -7.25 KCAL/MOL
REMARK 923 INTER-LIGAND FREE ENERGY PREDICTED BY IDOCK:   -6.40 KCAL/MOL
REMARK 924 INTRA-LIGAND FREE ENERGY PREDICTED BY IDOCK:   -0.85 KCAL/MOL
REMARK 927      BINDING AFFINITY PREDICTED BY RF-SCORE:    0.00 PKD
ROOT
HETATM    1  C   UNL     1     -12.112  12.963  63.413  1.00  0.00    -0.530 C  
HETATM    2  N   UNL     1     -12.745  12.807  64.703  1.00  0.00    -0.707 NA 
HETATM    3  H   UNL     1     -13.729  12.541  64.679  1.00  0.00     0.000 HD 
ENDROOT
BRANCH   2   4
HETATM    4  C   UNL     1     -12.204  12.968  65.968  1.00  0.00    -0.399 C  
HETATM    5  C   UNL     1     -12.130  14.208  66.499  1.00  0.00    -0.454 C  
HETATM    6  O   UNL     1     -11.238  13.563  68.548  1.00  0.00    -0.248 OA 
HETATM    7  N   UNL     1     -11.606  14.490  67.814  1.00  0.00    -0.348 N  
HETATM    8  O   UNL     1     -11.570  15.690  68.124  1.00  0.00    -0.353 OA 
BRANCH   4   9
HETATM    9  N   UNL     1     -11.738  11.843  66.621  1.00  0.00    -0.579 NA 
HETATM   10  H   UNL     1     -12.157  11.668  67.534  1.00  0.00     0.000 HD 
BRANCH   9  11
HETATM   11  C   UNL     1     -10.743  10.875  66.205  1.00  0.00    -0.176 C  
BRANCH  11  12
HETATM   12  C   UNL     1      -9.405  11.579  65.952  1.00  0.00    -0.226 C  
BRANCH  12  13
HETATM   13  S   UNL     1      -8.239  11.406  67.345  1.00  0.00    -0.151 SA 
BRANCH  13  14
HETATM   14  C   UNL     1      -8.287   9.596  67.563  1.00  0.00    -0.118 C  
BRANCH  14  15
HETATM   15  C   UNL     1      -8.455   9.249  68.992  1.00  0.00    -0.132 A  
HETATM   16  C   UNL     1      -7.723   9.512  70.127  1.00  0.00    -0.161 A  
HETATM   17  C   UNL     1      -8.415   8.891  71.195  1.00  0.00    -0.250 A  
HETATM   18  C   UNL     1      -9.522   8.281  70.646  1.00  0.00    -0.164 A  
HETATM   19  O   UNL     1      -9.544   8.488  69.299  1.00  0.00    -0.167 OA 
BRANCH  18  20
HETATM   20  C   UNL     1     -10.636   7.462  71.208  1.00  0.00    -0.216 C  
BRANCH  20  21
HETATM   21  N   UNL     1     -11.971   8.048  70.977  1.00  0.00    -0.280 NA 
HETATM   22  C   UNL     1     -13.038   7.136  71.403  1.00  0.00    -0.352 C  
HETATM   23  C   UNL     1     -12.080   9.309  71.715  1.00  0.00    -0.387 C  
ENDBRANCH  20  21
ENDBRANCH  18  20
ENDBRANCH  14  15
ENDBRANCH  13  14
ENDBRANCH  12  13
ENDBRANCH  11  12
ENDBRANCH   9  11
ENDBRANCH   4   9
ENDBRANCH   2   4
TORSDOF 9
ENDMDL
MODEL      115
REMARK 921   NORMALIZED FREE ENERGY PREDICTED BY IDOCK:   -4.49 KCAL/MOL
REMARK 922        TOTAL FREE ENERGY PREDICTED BY IDOCK:   -7.24 KCAL/MOL
REMARK 923 INTER-LIGAND FREE ENERGY PREDICTED BY IDOCK:   -6.09 KCAL/MOL
REMARK 924 INTRA-LIGAND FREE ENERGY PREDICTED BY IDOCK:   -1.15 KCAL/MOL
REMARK 927      BINDING AFFINITY PREDICTED BY RF-SCORE:    0.00 PKD
ROOT
HETATM    1  C   UNL     1     -11.891  10.743  70.415  1.00  0.00    -0.358 C  
HETATM    2  N   UNL     1     -11.466   9.430  69.984  1.00  0.00    -0.422 NA 
HETATM    3  H   UNL     1     -11.191   9.359  69.005  1.00  0.00     0.000 HD 
ENDROOT
BRANCH   2   4
HETATM    4  C   UNL     1     -11.379   8.256  70.713  1.00  0.00    -0.266 C  
HETATM    5  C   UNL     1     -10.872   8.295  71.966  1.00  0.00    -0.301 C  
HETATM    6  O   UNL     1     -11.178   6.039  72.442  1.00  0.00    -0.262 OA 
HETATM    7  N   UNL     1     -10.755   7.139  72.822  1.00  0.00    -0.264 N  
HETATM    8  O   UNL     1     -10.224   7.347  73.923  1.00  0.00    -0.317 OA 
BRANCH   4   9
HETATM    9  N   UNL     1     -11.797   7.086  70.110  1.00  0.00    -0.592 NA 
HETATM   10  H   UNL     1     -12.575   6.614  70.572  1.00  0.00     0.000 HD 
BRANCH   9  11
HETATM   11  C   UNL     1     -11.299   6.428  68.919  1.00  0.00    -0.209 C  
BRANCH  11  12
HETATM   12  C   UNL     1      -9.771   6.321  68.983  1.00  0.00    -0.130 C  
BRANCH  12  13
HETATM   13  S   UNL     1      -8.931   7.481  67.854  1.00  0.00    -0.131 SA 
BRANCH  13  14
HETATM   14  C   UNL     1     -10.358   8.036  66.865  1.00  0.00    -0.338 C  
BRANCH  14  15
HETATM   15  C   UNL     1     -10.180   9.441  66.436  1.00  0.00    -0.230 A  
HETATM   16  C   UNL     1      -9.873  10.037  65.234  1.00  0.00    -0.388 A  
HETATM   17  C   UNL     1      -9.841  11.431  65.482  1.00  0.00    -0.271 A  
HETATM   18  C   UNL     1     -10.123  11.599  66.821  1.00  0.00    -0.213 A  
HETATM   19  O   UNL     1     -10.319  10.386  67.409  1.00  0.00    -0.201 OA 
BRANCH  18  20
HETATM   20  C   UNL     1     -10.230  12.793  67.711  1.00  0.00    -0.223 C  
BRANCH  20  21
HETATM   21  N   UNL     1     -10.666  14.014  67.006  1.00  0.00    -0.283 NA 
HETATM   22  C   UNL     1     -12.111  14.002  66.757  1.00  0.00    -0.447 C  
HETATM   23  C   UNL     1     -10.318  15.188  67.811  1.00  0.00    -0.243 C  
ENDBRANCH  20  21
ENDBRANCH  18  20
ENDBRANCH  14  15
ENDBRANCH  13  14
ENDBRANCH  12  13
ENDBRANCH  11  12
ENDBRANCH   9  11
ENDBRANCH   4   9
ENDBRANCH   2   4
TORSDOF 9
ENDMDL
MODEL      116
REMARK 921   NORMALIZED FREE ENERGY PREDICTED BY IDOCK:   -4.48 KCAL/MOL
REMARK 922        TOTAL FREE ENERGY PREDICTED BY IDOCK:   -7.23 KCAL/MOL
REMARK 923 INTER-LIGAND FREE ENERGY PREDICTED BY IDOCK:   -6.84 KCAL/MOL
REMARK 924 INTRA-LIGAND FREE ENERGY PREDICTED BY IDOCK:   -0.39 KCAL/MOL
REMARK 927      BINDING AFFINITY PREDICTED BY RF-SCORE:    0.00 PKD
ROOT
HETATM    1  C   UNL     1     -10.962   6.360  67.454  1.00  0.00    -0.376 C  
HETATM    2  N   UNL     1     -11.435   6.666  68.785  1.00  0.00    -0.591 NA 
HETATM    3  H   UNL     1     -12.258   6.146  69.088  1.00  0.00     0.000 HD 
ENDROOT
BRANCH   2   4
HETATM    4  C   UNL     1     -10.929   7.567  69.706  1.00  0.00    -0.184 C  
HETATM    5  C   UNL     1     -11.068   7.308  71.026  1.00  0.00    -0.258 C  
HETATM    6  O   UNL     1      -9.914   9.179  71.784  1.00  0.00    -0.320 OA 
HETATM    7  N   UNL     1     -10.561   8.163  72.071  1.00  0.00    -0.247 N  
HETATM    8  O   UNL     1     -10.818   7.796  73.228  1.00  0.00    -0.383 OA 
BRANCH   4   9
HETATM    9  N   UNL     1     -10.323   8.713  69.228  1.00  0.00    -0.219 NA 
HETATM   10  H   UNL     1      -9.374   8.874  69.565  1.00  0.00     0.000 HD 
BRANCH   9  11
HETATM   11  C   UNL     1     -10.831   9.720  68.318  1.00  0.00    -0.210 C  
BRANCH  11  12
HETATM   12  C   UNL     1     -10.506  11.118  68.855  1.00  0.00    -0.207 C  
BRANCH  12  13
HETATM   13  S   UNL     1     -11.716  12.378  68.327  1.00  0.00    -0.329 SA 
BRANCH  13  14
HETATM   14  C   UNL     1     -11.534  12.240  66.519  1.00  0.00    -0.381 C  
BRANCH  14  15
HETATM   15  C   UNL     1     -11.336  13.575  65.912  1.00  0.00    -0.308 A  
HETATM   16  C   UNL     1     -11.557  14.090  64.655  1.00  0.00    -0.400 A  
HETATM   17  C   UNL     1     -11.153  15.447  64.709  1.00  0.00    -0.416 A  
HETATM   18  C   UNL     1     -10.704  15.673  65.992  1.00  0.00    -0.317 A  
HETATM   19  O   UNL     1     -10.804  14.529  66.727  1.00  0.00    -0.294 OA 
BRANCH  18  20
HETATM   20  C   UNL     1     -10.139  16.864  66.694  1.00  0.00    -0.304 C  
BRANCH  20  21
HETATM   21  N   UNL     1      -9.000  17.478  65.983  1.00  0.00    -0.523 NA 
HETATM   22  C   UNL     1      -8.928  18.921  66.233  1.00  0.00    -0.259 C  
HETATM   23  C   UNL     1      -7.756  16.842  66.424  1.00  0.00    -0.310 C  
ENDBRANCH  20  21
ENDBRANCH  18  20
ENDBRANCH  14  15
ENDBRANCH  13  14
ENDBRANCH  12  13
ENDBRANCH  11  12
ENDBRANCH   9  11
ENDBRANCH   4   9
ENDBRANCH   2   4
TORSDOF 9
ENDMDL
MODEL      117
REMARK 921   NORMALIZED FREE ENERGY PREDICTED BY IDOCK:   -4.48 KCAL/MOL
REMARK 922        TOTAL FREE ENERGY PREDICTED BY IDOCK:   -7.22 KCAL/MOL
REMARK 923 INTER-LIGAND FREE ENERGY PREDICTED BY IDOCK:   -6.48 KCAL/MOL
REMARK 924 INTRA-LIGAND FREE ENERGY PREDICTED BY IDOCK:   -0.74 KCAL/MOL
REMARK 927      BINDING AFFINITY PREDICTED BY RF-SCORE:    0.00 PKD
ROOT
HETATM    1  C   UNL     1     -11.281   6.223  69.568  1.00  0.00    -0.430 C  
HETATM    2  N   UNL     1     -11.502   6.476  68.162  1.00  0.00    -0.579 NA 
HETATM    3  H   UNL     1     -12.453   6.741  67.909  1.00  0.00     0.000 HD 
ENDROOT
BRANCH   2   4
HETATM    4  C   UNL     1     -10.604   6.408  67.110  1.00  0.00    -0.321 C  
HETATM    5  C   UNL     1      -9.950   5.248  66.876  1.00  0.00    -0.194 C  
HETATM    6  O   UNL     1      -8.802   5.970  64.987  1.00  0.00    -0.043 OA 
HETATM    7  N   UNL     1      -9.011   5.057  65.797  1.00  0.00    -0.141 N  
HETATM    8  O   UNL     1      -8.468   3.943  65.758  1.00  0.00    -0.108 OA 
BRANCH   4   9
HETATM    9  N   UNL     1     -10.400   7.548  66.357  1.00  0.00    -0.473 NA 
HETATM   10  H   UNL     1     -10.398   7.406  65.347  1.00  0.00     0.000 HD 
BRANCH   9  11
HETATM   11  C   UNL     1     -10.189   8.916  66.786  1.00  0.00    -0.278 C  
BRANCH  11  12
HETATM   12  C   UNL     1      -9.929   9.810  65.568  1.00  0.00    -0.259 C  
BRANCH  12  13
HETATM   13  S   UNL     1      -9.661  11.558  66.016  1.00  0.00    -0.233 SA 
BRANCH  13  14
HETATM   14  C   UNL     1     -11.392  12.091  66.222  1.00  0.00    -0.357 C  
BRANCH  14  15
HETATM   15  C   UNL     1     -11.637  12.541  67.610  1.00  0.00    -0.355 A  
HETATM   16  C   UNL     1     -11.691  13.776  68.215  1.00  0.00    -0.394 A  
HETATM   17  C   UNL     1     -11.959  13.534  69.584  1.00  0.00    -0.397 A  
HETATM   18  C   UNL     1     -12.045  12.166  69.733  1.00  0.00    -0.237 A  
HETATM   19  O   UNL     1     -11.838  11.556  68.532  1.00  0.00    -0.388 OA 
BRANCH  18  20
HETATM   20  C   UNL     1     -12.290  11.268  70.899  1.00  0.00    -0.388 C  
BRANCH  20  21
HETATM   21  N   UNL     1     -11.971   9.852  70.627  1.00  0.00    -0.280 NA 
HETATM   22  C   UNL     1     -10.567   9.552  70.925  1.00  0.00    -0.325 C  
HETATM   23  C   UNL     1     -12.838   8.996  71.441  1.00  0.00    -0.300 C  
ENDBRANCH  20  21
ENDBRANCH  18  20
ENDBRANCH  14  15
ENDBRANCH  13  14
ENDBRANCH  12  13
ENDBRANCH  11  12
ENDBRANCH   9  11
ENDBRANCH   4   9
ENDBRANCH   2   4
TORSDOF 9
ENDMDL
MODEL      118
REMARK 921   NORMALIZED FREE ENERGY PREDICTED BY IDOCK:   -4.47 KCAL/MOL
REMARK 922        TOTAL FREE ENERGY PREDICTED BY IDOCK:   -7.21 KCAL/MOL
REMARK 923 INTER-LIGAND FREE ENERGY PREDICTED BY IDOCK:   -6.31 KCAL/MOL
REMARK 924 INTRA-LIGAND FREE ENERGY PREDICTED BY IDOCK:   -0.89 KCAL/MOL
REMARK 927      BINDING AFFINITY PREDICTED BY RF-SCORE:    0.00 PKD
ROOT
HETATM    1  C   UNL     1     -13.430   9.391  71.730  1.00  0.00    -0.412 C  
HETATM    2  N   UNL     1     -12.763   8.306  71.047  1.00  0.00    -0.507 NA 
HETATM    3  H   UNL     1     -13.296   7.867  70.298  1.00  0.00     0.000 HD 
ENDROOT
BRANCH   2   4
HETATM    4  C   UNL     1     -11.501   7.780  71.267  1.00  0.00    -0.269 C  
HETATM    5  C   UNL     1     -10.610   8.487  71.996  1.00  0.00    -0.338 C  
HETATM    6  O   UNL     1      -8.909   6.903  71.941  1.00  0.00    -0.127 OA 
HETATM    7  N   UNL     1      -9.278   8.027  72.306  1.00  0.00    -0.161 N  
HETATM    8  O   UNL     1      -8.578   8.824  72.947  1.00  0.00    -0.398 OA 
BRANCH   4   9
HETATM    9  N   UNL     1     -11.203   6.554  70.702  1.00  0.00    -0.305 NA 
HETATM   10  H   UNL     1     -10.886   5.841  71.358  1.00  0.00     0.000 HD 
BRANCH   9  11
HETATM   11  C   UNL     1     -11.273   6.130  69.318  1.00  0.00    -0.367 C  
BRANCH  11  12
HETATM   12  C   UNL     1      -9.944   6.427  68.614  1.00  0.00    -0.146 C  
BRANCH  12  13
HETATM   13  S   UNL     1     -10.070   7.792  67.410  1.00  0.00    -0.249 SA 
BRANCH  13  14
HETATM   14  C   UNL     1      -9.565   9.185  68.472  1.00  0.00    -0.148 C  
BRANCH  14  15
HETATM   15  C   UNL     1     -10.390  10.380  68.189  1.00  0.00    -0.172 A  
HETATM   16  C   UNL     1     -11.472  10.959  68.814  1.00  0.00    -0.376 A  
HETATM   17  C   UNL     1     -11.813  12.094  68.039  1.00  0.00    -0.351 A  
HETATM   18  C   UNL     1     -10.925  12.134  66.986  1.00  0.00    -0.271 A  
HETATM   19  O   UNL     1     -10.061  11.083  67.068  1.00  0.00    -0.186 OA 
BRANCH  18  20
HETATM   20  C   UNL     1     -10.746  13.049  65.820  1.00  0.00    -0.274 C  
BRANCH  20  21
HETATM   21  N   UNL     1     -11.885  13.032  64.881  1.00  0.00    -0.342 NA 
HETATM   22  C   UNL     1     -12.131  14.362  64.313  1.00  0.00    -0.436 C  
HETATM   23  C   UNL     1     -11.606  12.082  63.801  1.00  0.00    -0.476 C  
ENDBRANCH  20  21
ENDBRANCH  18  20
ENDBRANCH  14  15
ENDBRANCH  13  14
ENDBRANCH  12  13
ENDBRANCH  11  12
ENDBRANCH   9  11
ENDBRANCH   4   9
ENDBRANCH   2   4
TORSDOF 9
ENDMDL
MODEL      119
REMARK 921   NORMALIZED FREE ENERGY PREDICTED BY IDOCK:   -4.47 KCAL/MOL
REMARK 922        TOTAL FREE ENERGY PREDICTED BY IDOCK:   -7.21 KCAL/MOL
REMARK 923 INTER-LIGAND FREE ENERGY PREDICTED BY IDOCK:   -6.66 KCAL/MOL
REMARK 924 INTRA-LIGAND FREE ENERGY PREDICTED BY IDOCK:   -0.55 KCAL/MOL
REMARK 927      BINDING AFFINITY PREDICTED BY RF-SCORE:    0.00 PKD
ROOT
HETATM    1  C   UNL     1     -10.284  17.080  67.081  1.00  0.00    -0.306 C  
HETATM    2  N   UNL     1     -10.290  15.685  66.702  1.00  0.00    -0.282 NA 
HETATM    3  H   UNL     1      -9.394  15.205  66.782  1.00  0.00     0.000 HD 
ENDROOT
BRANCH   2   4
HETATM    4  C   UNL     1     -11.342  14.909  66.244  1.00  0.00    -0.306 C  
HETATM    5  C   UNL     1     -11.475  14.697  64.916  1.00  0.00    -0.401 C  
HETATM    6  O   UNL     1     -13.327  13.299  65.057  1.00  0.00    -0.587 OA 
HETATM    7  N   UNL     1     -12.517  13.889  64.331  1.00  0.00    -0.330 N  
HETATM    8  O   UNL     1     -12.517  13.841  63.091  1.00  0.00    -0.786 OA 
BRANCH   4   9
HETATM    9  N   UNL     1     -12.228  14.403  67.176  1.00  0.00    -0.584 NA 
HETATM   10  H   UNL     1     -13.213  14.490  66.929  1.00  0.00     0.000 HD 
BRANCH   9  11
HETATM   11  C   UNL     1     -11.968  13.769  68.453  1.00  0.00    -0.360 C  
BRANCH  11  12
HETATM   12  C   UNL     1     -11.905  12.248  68.275  1.00  0.00    -0.310 C  
BRANCH  12  13
HETATM   13  S   UNL     1     -10.221  11.578  68.486  1.00  0.00    -0.213 SA 
BRANCH  13  14
HETATM   14  C   UNL     1     -10.578  10.202  69.628  1.00  0.00    -0.257 C  
BRANCH  14  15
HETATM   15  C   UNL     1     -10.534   8.908  68.913  1.00  0.00    -0.205 A  
HETATM   16  C   UNL     1     -10.451   8.557  67.584  1.00  0.00    -0.308 A  
HETATM   17  C   UNL     1     -10.456   7.141  67.550  1.00  0.00    -0.331 A  
HETATM   18  C   UNL     1     -10.551   6.715  68.857  1.00  0.00    -0.230 A  
HETATM   19  O   UNL     1     -10.610   7.791  69.692  1.00  0.00    -0.239 OA 
BRANCH  18  20
HETATM   20  C   UNL     1     -10.618   5.371  69.503  1.00  0.00    -0.246 C  
BRANCH  20  21
HETATM   21  N   UNL     1      -9.325   4.658  69.511  1.00  0.00    -0.126 NA 
HETATM   22  C   UNL     1      -8.949   4.245  70.866  1.00  0.00    -0.109 C  
HETATM   23  C   UNL     1      -9.418   3.479  68.646  1.00  0.00    -0.141 C  
ENDBRANCH  20  21
ENDBRANCH  18  20
ENDBRANCH  14  15
ENDBRANCH  13  14
ENDBRANCH  12  13
ENDBRANCH  11  12
ENDBRANCH   9  11
ENDBRANCH   4   9
ENDBRANCH   2   4
TORSDOF 9
ENDMDL
MODEL      120
REMARK 921   NORMALIZED FREE ENERGY PREDICTED BY IDOCK:   -4.47 KCAL/MOL
REMARK 922        TOTAL FREE ENERGY PREDICTED BY IDOCK:   -7.20 KCAL/MOL
REMARK 923 INTER-LIGAND FREE ENERGY PREDICTED BY IDOCK:   -6.36 KCAL/MOL
REMARK 924 INTRA-LIGAND FREE ENERGY PREDICTED BY IDOCK:   -0.85 KCAL/MOL
REMARK 927      BINDING AFFINITY PREDICTED BY RF-SCORE:    0.00 PKD
ROOT
HETATM    1  C   UNL     1     -13.028  10.220  71.532  1.00  0.00    -0.453 C  
HETATM    2  N   UNL     1     -12.604   9.051  70.794  1.00  0.00    -0.494 NA 
HETATM    3  H   UNL     1     -12.758   9.090  69.787  1.00  0.00     0.000 HD 
ENDROOT
BRANCH   2   4
HETATM    4  C   UNL     1     -12.019   7.887  71.263  1.00  0.00    -0.298 C  
HETATM    5  C   UNL     1     -11.433   7.888  72.480  1.00  0.00    -0.398 C  
HETATM    6  O   UNL     1     -10.843   5.638  72.490  1.00  0.00    -0.224 OA 
HETATM    7  N   UNL     1     -10.813   6.729  73.076  1.00  0.00    -0.275 N  
HETATM    8  O   UNL     1     -10.282   6.920  74.180  1.00  0.00    -0.353 OA 
BRANCH   4   9
HETATM    9  N   UNL     1     -12.043   6.775  70.443  1.00  0.00    -0.589 NA 
HETATM   10  H   UNL     1     -12.594   5.991  70.792  1.00  0.00     0.000 HD 
BRANCH   9  11
HETATM   11  C   UNL     1     -11.402   6.554  69.162  1.00  0.00    -0.261 C  
BRANCH  11  12
HETATM   12  C   UNL     1      -9.891   6.779  69.290  1.00  0.00    -0.155 C  
BRANCH  12  13
HETATM   13  S   UNL     1      -9.250   7.987  68.083  1.00  0.00    -0.132 SA 
BRANCH  13  14
HETATM   14  C   UNL     1     -10.784   8.901  67.718  1.00  0.00    -0.137 C  
BRANCH  14  15
HETATM   15  C   UNL     1     -10.491  10.329  67.463  1.00  0.00    -0.244 A  
HETATM   16  C   UNL     1      -9.447  10.993  66.861  1.00  0.00    -0.197 A  
HETATM   17  C   UNL     1      -9.759  12.372  66.939  1.00  0.00    -0.217 A  
HETATM   18  C   UNL     1     -10.971  12.465  67.590  1.00  0.00    -0.236 A  
HETATM   19  O   UNL     1     -11.416  11.220  67.921  1.00  0.00    -0.340 OA 
BRANCH  18  20
HETATM   20  C   UNL     1     -11.837  13.610  67.999  1.00  0.00    -0.362 C  
BRANCH  20  21
HETATM   21  N   UNL     1     -11.424  14.234  69.271  1.00  0.00    -0.272 NA 
HETATM   22  C   UNL     1     -11.507  15.696  69.202  1.00  0.00    -0.359 C  
HETATM   23  C   UNL     1     -12.284  13.745  70.352  1.00  0.00    -0.363 C  
ENDBRANCH  20  21
ENDBRANCH  18  20
ENDBRANCH  14  15
ENDBRANCH  13  14
ENDBRANCH  12  13
ENDBRANCH  11  12
ENDBRANCH   9  11
ENDBRANCH   4   9
ENDBRANCH   2   4
TORSDOF 9
ENDMDL
MODEL      121
REMARK 921   NORMALIZED FREE ENERGY PREDICTED BY IDOCK:   -4.45 KCAL/MOL
REMARK 922        TOTAL FREE ENERGY PREDICTED BY IDOCK:   -7.19 KCAL/MOL
REMARK 923 INTER-LIGAND FREE ENERGY PREDICTED BY IDOCK:   -6.88 KCAL/MOL
REMARK 924 INTRA-LIGAND FREE ENERGY PREDICTED BY IDOCK:   -0.31 KCAL/MOL
REMARK 927      BINDING AFFINITY PREDICTED BY RF-SCORE:    0.00 PKD
ROOT
HETATM    1  C   UNL     1      -6.551  19.546  65.341  1.00  0.00    -0.280 C  
HETATM    2  N   UNL     1      -7.399  18.392  65.538  1.00  0.00    -0.531 NA 
HETATM    3  H   UNL     1      -7.059  17.524  65.125  1.00  0.00     0.000 HD 
ENDROOT
BRANCH   2   4
HETATM    4  C   UNL     1      -8.607  18.299  66.207  1.00  0.00    -0.184 C  
HETATM    5  C   UNL     1      -8.840  19.111  67.262  1.00  0.00    -0.289 C  
HETATM    6  O   UNL     1     -11.008  18.383  67.681  1.00  0.00    -0.346 OA 
HETATM    7  N   UNL     1     -10.069  19.116  68.018  1.00  0.00    -0.374 N  
HETATM    8  O   UNL     1     -10.094  19.894  68.984  1.00  0.00    -0.434 OA 
BRANCH   4   9
HETATM    9  N   UNL     1      -9.517  17.353  65.774  1.00  0.00    -0.519 NA 
HETATM   10  H   UNL     1     -10.353  17.729  65.328  1.00  0.00     0.000 HD 
BRANCH   9  11
HETATM   11  C   UNL     1      -9.461  15.908  65.859  1.00  0.00    -0.337 C  
BRANCH  11  12
HETATM   12  C   UNL     1      -8.324  15.483  66.794  1.00  0.00    -0.265 C  
BRANCH  12  13
HETATM   13  S   UNL     1      -8.577  13.824  67.510  1.00  0.00    -0.206 SA 
BRANCH  13  14
HETATM   14  C   UNL     1     -10.392  13.708  67.384  1.00  0.00    -0.244 C  
BRANCH  14  15
HETATM   15  C   UNL     1     -10.871  12.420  67.933  1.00  0.00    -0.222 A  
HETATM   16  C   UNL     1     -10.975  11.148  67.419  1.00  0.00    -0.347 A  
HETATM   17  C   UNL     1     -11.522  10.349  68.453  1.00  0.00    -0.227 A  
HETATM   18  C   UNL     1     -11.726  11.185  69.531  1.00  0.00    -0.335 A  
HETATM   19  O   UNL     1     -11.340  12.453  69.213  1.00  0.00    -0.259 OA 
BRANCH  18  20
HETATM   20  C   UNL     1     -12.278  10.984  70.903  1.00  0.00    -0.367 C  
BRANCH  20  21
HETATM   21  N   UNL     1     -12.320   9.568  71.318  1.00  0.00    -0.326 NA 
HETATM   22  C   UNL     1     -11.020   9.119  71.826  1.00  0.00    -0.359 C  
HETATM   23  C   UNL     1     -13.338   9.399  72.358  1.00  0.00    -0.424 C  
ENDBRANCH  20  21
ENDBRANCH  18  20
ENDBRANCH  14  15
ENDBRANCH  13  14
ENDBRANCH  12  13
ENDBRANCH  11  12
ENDBRANCH   9  11
ENDBRANCH   4   9
ENDBRANCH   2   4
TORSDOF 9
ENDMDL
MODEL      122
REMARK 921   NORMALIZED FREE ENERGY PREDICTED BY IDOCK:   -4.45 KCAL/MOL
REMARK 922        TOTAL FREE ENERGY PREDICTED BY IDOCK:   -7.18 KCAL/MOL
REMARK 923 INTER-LIGAND FREE ENERGY PREDICTED BY IDOCK:   -6.63 KCAL/MOL
REMARK 924 INTRA-LIGAND FREE ENERGY PREDICTED BY IDOCK:   -0.55 KCAL/MOL
REMARK 927      BINDING AFFINITY PREDICTED BY RF-SCORE:    0.00 PKD
ROOT
HETATM    1  C   UNL     1     -10.152  16.593  69.203  1.00  0.00    -0.285 C  
HETATM    2  N   UNL     1     -11.557  16.419  69.492  1.00  0.00    -0.278 NA 
HETATM    3  H   UNL     1     -12.181  17.094  69.052  1.00  0.00     0.000 HD 
ENDROOT
BRANCH   2   4
HETATM    4  C   UNL     1     -12.176  15.465  70.282  1.00  0.00    -0.380 C  
HETATM    5  C   UNL     1     -12.399  15.735  71.587  1.00  0.00    -0.457 C  
HETATM    6  O   UNL     1     -13.495  13.746  72.084  1.00  0.00    -0.412 OA 
HETATM    7  N   UNL     1     -13.054  14.826  72.497  1.00  0.00    -0.369 N  
HETATM    8  O   UNL     1     -13.134  15.217  73.671  1.00  0.00    -0.485 OA 
BRANCH   4   9
HETATM    9  N   UNL     1     -12.516  14.260  69.697  1.00  0.00    -0.500 NA 
HETATM   10  H   UNL     1     -13.497  14.169  69.432  1.00  0.00     0.000 HD 
BRANCH   9  11
HETATM   11  C   UNL     1     -11.690  13.106  69.404  1.00  0.00    -0.327 C  
BRANCH  11  12
HETATM   12  C   UNL     1     -11.001  13.290  68.047  1.00  0.00    -0.244 C  
BRANCH  12  13
HETATM   13  S   UNL     1     -11.549  12.073  66.803  1.00  0.00    -0.262 SA 
BRANCH  13  14
HETATM   14  C   UNL     1     -10.037  11.063  66.676  1.00  0.00    -0.220 C  
BRANCH  14  15
HETATM   15  C   UNL     1     -10.219   9.765  67.363  1.00  0.00    -0.230 A  
HETATM   16  C   UNL     1     -10.337   8.465  66.926  1.00  0.00    -0.378 A  
HETATM   17  C   UNL     1     -10.497   7.672  68.087  1.00  0.00    -0.233 A  
HETATM   18  C   UNL     1     -10.476   8.536  69.161  1.00  0.00    -0.205 A  
HETATM   19  O   UNL     1     -10.317   9.816  68.722  1.00  0.00    -0.192 OA 
BRANCH  18  20
HETATM   20  C   UNL     1     -10.606   8.352  70.637  1.00  0.00    -0.208 C  
BRANCH  20  21
HETATM   21  N   UNL     1     -11.895   7.756  71.043  1.00  0.00    -0.288 NA 
HETATM   22  C   UNL     1     -11.695   6.538  71.835  1.00  0.00    -0.324 C  
HETATM   23  C   UNL     1     -12.653   8.733  71.828  1.00  0.00    -0.356 C  
ENDBRANCH  20  21
ENDBRANCH  18  20
ENDBRANCH  14  15
ENDBRANCH  13  14
ENDBRANCH  12  13
ENDBRANCH  11  12
ENDBRANCH   9  11
ENDBRANCH   4   9
ENDBRANCH   2   4
TORSDOF 9
ENDMDL
MODEL      123
REMARK 921   NORMALIZED FREE ENERGY PREDICTED BY IDOCK:   -4.45 KCAL/MOL
REMARK 922        TOTAL FREE ENERGY PREDICTED BY IDOCK:   -7.18 KCAL/MOL
REMARK 923 INTER-LIGAND FREE ENERGY PREDICTED BY IDOCK:   -6.82 KCAL/MOL
REMARK 924 INTRA-LIGAND FREE ENERGY PREDICTED BY IDOCK:   -0.36 KCAL/MOL
REMARK 927      BINDING AFFINITY PREDICTED BY RF-SCORE:    0.00 PKD
ROOT
HETATM    1  C   UNL     1     -14.263   8.464  71.666  1.00  0.00    -0.440 C  
HETATM    2  N   UNL     1     -12.940   8.459  71.083  1.00  0.00    -0.502 NA 
HETATM    3  H   UNL     1     -12.910   8.387  70.067  1.00  0.00     0.000 HD 
ENDROOT
BRANCH   2   4
HETATM    4  C   UNL     1     -11.709   8.537  71.711  1.00  0.00    -0.327 C  
HETATM    5  C   UNL     1     -11.438   7.699  72.736  1.00  0.00    -0.332 C  
HETATM    6  O   UNL     1      -9.257   8.420  73.096  1.00  0.00    -0.245 OA 
HETATM    7  N   UNL     1     -10.183   7.677  73.448  1.00  0.00    -0.332 N  
HETATM    8  O   UNL     1     -10.122   6.876  74.392  1.00  0.00    -0.320 OA 
BRANCH   4   9
HETATM    9  N   UNL     1     -10.816   9.495  71.270  1.00  0.00    -0.353 NA 
HETATM   10  H   UNL     1     -10.781  10.346  71.832  1.00  0.00     0.000 HD 
BRANCH   9  11
HETATM   11  C   UNL     1      -9.922   9.474  70.130  1.00  0.00    -0.241 C  
BRANCH  11  12
HETATM   12  C   UNL     1     -10.056  10.779  69.338  1.00  0.00    -0.139 C  
BRANCH  12  13
HETATM   13  S   UNL     1     -11.375  10.712  68.079  1.00  0.00    -0.203 SA 
BRANCH  13  14
HETATM   14  C   UNL     1     -10.438  11.279  66.622  1.00  0.00    -0.247 C  
BRANCH  14  15
HETATM   15  C   UNL     1     -11.065  12.485  66.037  1.00  0.00    -0.294 A  
HETATM   16  C   UNL     1     -12.270  12.725  65.418  1.00  0.00    -0.532 A  
HETATM   17  C   UNL     1     -12.271  14.099  65.076  1.00  0.00    -0.450 A  
HETATM   18  C   UNL     1     -11.063  14.611  65.500  1.00  0.00    -0.345 A  
HETATM   19  O   UNL     1     -10.319  13.626  66.078  1.00  0.00    -0.290 OA 
BRANCH  18  20
HETATM   20  C   UNL     1     -10.435  15.964  65.435  1.00  0.00    -0.405 C  
BRANCH  20  21
HETATM   21  N   UNL     1      -9.662  16.311  66.644  1.00  0.00    -0.238 NA 
HETATM   22  C   UNL     1      -8.614  17.293  66.347  1.00  0.00    -0.259 C  
HETATM   23  C   UNL     1     -10.568  16.853  67.659  1.00  0.00    -0.325 C  
ENDBRANCH  20  21
ENDBRANCH  18  20
ENDBRANCH  14  15
ENDBRANCH  13  14
ENDBRANCH  12  13
ENDBRANCH  11  12
ENDBRANCH   9  11
ENDBRANCH   4   9
ENDBRANCH   2   4
TORSDOF 9
ENDMDL
MODEL      124
REMARK 921   NORMALIZED FREE ENERGY PREDICTED BY IDOCK:   -4.42 KCAL/MOL
REMARK 922        TOTAL FREE ENERGY PREDICTED BY IDOCK:   -7.13 KCAL/MOL
REMARK 923 INTER-LIGAND FREE ENERGY PREDICTED BY IDOCK:   -5.92 KCAL/MOL
REMARK 924 INTRA-LIGAND FREE ENERGY PREDICTED BY IDOCK:   -1.21 KCAL/MOL
REMARK 927      BINDING AFFINITY PREDICTED BY RF-SCORE:    0.00 PKD
ROOT
HETATM    1  C   UNL     1     -13.078   9.486  71.595  1.00  0.00    -0.401 C  
HETATM    2  N   UNL     1     -13.033   9.977  70.237  1.00  0.00    -0.571 NA 
HETATM    3  H   UNL     1     -13.828   9.720  69.652  1.00  0.00     0.000 HD 
ENDROOT
BRANCH   2   4
HETATM    4  C   UNL     1     -12.063  10.746  69.617  1.00  0.00    -0.289 C  
HETATM    5  C   UNL     1     -12.276  12.071  69.457  1.00  0.00    -0.117 C  
HETATM    6  O   UNL     1     -10.222  12.550  68.478  1.00  0.00    -0.228 OA 
HETATM    7  N   UNL     1     -11.327  12.970  68.846  1.00  0.00    -0.270 N  
HETATM    8  O   UNL     1     -11.705  14.146  68.738  1.00  0.00    -0.303 OA 
BRANCH   4   9
HETATM    9  N   UNL     1     -10.923  10.110  69.164  1.00  0.00    -0.226 NA 
HETATM   10  H   UNL     1     -10.829  10.058  68.150  1.00  0.00     0.000 HD 
BRANCH   9  11
HETATM   11  C   UNL     1      -9.840   9.505  69.913  1.00  0.00    -0.226 C  
BRANCH  11  12
HETATM   12  C   UNL     1      -9.686   8.034  69.510  1.00  0.00    -0.170 C  
BRANCH  12  13
HETATM   13  S   UNL     1     -10.576   7.623  67.971  1.00  0.00    -0.104 SA 
BRANCH  13  14
HETATM   14  C   UNL     1      -9.176   7.602  66.804  1.00  0.00    -0.160 C  
BRANCH  14  15
HETATM   15  C   UNL     1      -9.232   8.774  65.902  1.00  0.00    -0.220 A  
HETATM   16  C   UNL     1      -8.474   9.186  64.830  1.00  0.00    -0.191 A  
HETATM   17  C   UNL     1      -9.040  10.409  64.394  1.00  0.00    -0.267 A  
HETATM   18  C   UNL     1     -10.103  10.671  65.231  1.00  0.00    -0.297 A  
HETATM   19  O   UNL     1     -10.217   9.680  66.160  1.00  0.00    -0.266 OA 
BRANCH  18  20
HETATM   20  C   UNL     1     -11.094  11.784  65.325  1.00  0.00    -0.276 C  
BRANCH  20  21
HETATM   21  N   UNL     1     -10.906  12.825  64.295  1.00  0.00    -0.364 NA 
HETATM   22  C   UNL     1     -12.102  12.976  63.461  1.00  0.00    -0.542 C  
HETATM   23  C   UNL     1     -10.599  14.101  64.947  1.00  0.00    -0.430 C  
ENDBRANCH  20  21
ENDBRANCH  18  20
ENDBRANCH  14  15
ENDBRANCH  13  14
ENDBRANCH  12  13
ENDBRANCH  11  12
ENDBRANCH   9  11
ENDBRANCH   4   9
ENDBRANCH   2   4
TORSDOF 9
ENDMDL
MODEL      125
REMARK 921   NORMALIZED FREE ENERGY PREDICTED BY IDOCK:   -4.41 KCAL/MOL
REMARK 922        TOTAL FREE ENERGY PREDICTED BY IDOCK:   -7.12 KCAL/MOL
REMARK 923 INTER-LIGAND FREE ENERGY PREDICTED BY IDOCK:   -6.35 KCAL/MOL
REMARK 924 INTRA-LIGAND FREE ENERGY PREDICTED BY IDOCK:   -0.77 KCAL/MOL
REMARK 927      BINDING AFFINITY PREDICTED BY RF-SCORE:    0.00 PKD
ROOT
HETATM    1  C   UNL     1     -10.818  18.930  67.449  1.00  0.00    -0.374 C  
HETATM    2  N   UNL     1     -10.311  17.967  68.401  1.00  0.00    -0.380 NA 
HETATM    3  H   UNL     1      -9.808  18.361  69.196  1.00  0.00     0.000 HD 
ENDROOT
BRANCH   2   4
HETATM    4  C   UNL     1     -10.411  16.587  68.386  1.00  0.00    -0.307 C  
HETATM    5  C   UNL     1     -11.391  15.989  69.101  1.00  0.00    -0.352 C  
HETATM    6  O   UNL     1     -10.897  13.811  68.454  1.00  0.00    -0.237 OA 
HETATM    7  N   UNL     1     -11.602  14.563  69.140  1.00  0.00    -0.280 N  
HETATM    8  O   UNL     1     -12.519  14.183  69.885  1.00  0.00    -0.341 OA 
BRANCH   4   9
HETATM    9  N   UNL     1      -9.480  15.877  67.652  1.00  0.00    -0.218 NA 
HETATM   10  H   UNL     1      -8.937  15.197  68.184  1.00  0.00     0.000 HD 
BRANCH   9  11
HETATM   11  C   UNL     1      -9.158  15.953  66.241  1.00  0.00    -0.344 C  
BRANCH  11  12
HETATM   12  C   UNL     1      -9.818  14.791  65.492  1.00  0.00    -0.301 C  
BRANCH  12  13
HETATM   13  S   UNL     1     -11.533  15.156  64.986  1.00  0.00    -0.303 SA 
BRANCH  13  14
HETATM   14  C   UNL     1     -12.289  13.520  65.257  1.00  0.00    -0.467 C  
BRANCH  14  15
HETATM   15  C   UNL     1     -11.449  12.455  64.666  1.00  0.00    -0.331 A  
HETATM   16  C   UNL     1     -11.045  12.164  63.383  1.00  0.00    -0.495 A  
HETATM   17  C   UNL     1     -10.249  10.997  63.475  1.00  0.00    -0.424 A  
HETATM   18  C   UNL     1     -10.223  10.641  64.807  1.00  0.00    -0.331 A  
HETATM   19  O   UNL     1     -10.964  11.523  65.535  1.00  0.00    -0.284 OA 
BRANCH  18  20
HETATM   20  C   UNL     1      -9.588   9.523  65.565  1.00  0.00    -0.279 C  
BRANCH  20  21
HETATM   21  N   UNL     1      -8.118   9.628  65.645  1.00  0.00    -0.114 NA 
HETATM   22  C   UNL     1      -7.643   9.460  67.022  1.00  0.00    -0.091 C  
HETATM   23  C   UNL     1      -7.513   8.604  64.789  1.00  0.00    -0.097 C  
ENDBRANCH  20  21
ENDBRANCH  18  20
ENDBRANCH  14  15
ENDBRANCH  13  14
ENDBRANCH  12  13
ENDBRANCH  11  12
ENDBRANCH   9  11
ENDBRANCH   4   9
ENDBRANCH   2   4
TORSDOF 9
ENDMDL
MODEL      126
REMARK 921   NORMALIZED FREE ENERGY PREDICTED BY IDOCK:   -4.41 KCAL/MOL
REMARK 922        TOTAL FREE ENERGY PREDICTED BY IDOCK:   -7.11 KCAL/MOL
REMARK 923 INTER-LIGAND FREE ENERGY PREDICTED BY IDOCK:   -6.35 KCAL/MOL
REMARK 924 INTRA-LIGAND FREE ENERGY PREDICTED BY IDOCK:   -0.76 KCAL/MOL
REMARK 927      BINDING AFFINITY PREDICTED BY RF-SCORE:    0.00 PKD
ROOT
HETATM    1  C   UNL     1     -10.180   4.512  65.779  1.00  0.00    -0.265 C  
HETATM    2  N   UNL     1     -10.438   5.104  67.072  1.00  0.00    -0.223 NA 
HETATM    3  H   UNL     1     -10.491   4.449  67.851  1.00  0.00     0.000 HD 
ENDROOT
BRANCH   2   4
HETATM    4  C   UNL     1     -10.624   6.436  67.402  1.00  0.00    -0.295 C  
HETATM    5  C   UNL     1     -10.082   7.392  66.614  1.00  0.00    -0.183 C  
HETATM    6  O   UNL     1     -10.928   9.211  67.789  1.00  0.00    -0.160 OA 
HETATM    7  N   UNL     1     -10.230   8.808  66.850  1.00  0.00    -0.275 N  
HETATM    8  O   UNL     1      -9.628   9.543  66.053  1.00  0.00    -0.209 OA 
BRANCH   4   9
HETATM    9  N   UNL     1     -11.342   6.726  68.546  1.00  0.00    -0.560 NA 
HETATM   10  H   UNL     1     -11.997   7.503  68.461  1.00  0.00     0.000 HD 
BRANCH   9  11
HETATM   11  C   UNL     1     -11.304   6.094  69.850  1.00  0.00    -0.384 C  
BRANCH  11  12
HETATM   12  C   UNL     1      -9.862   6.051  70.367  1.00  0.00    -0.179 C  
BRANCH  12  13
HETATM   13  S   UNL     1      -9.205   7.704  70.771  1.00  0.00    -0.157 SA 
BRANCH  13  14
HETATM   14  C   UNL     1     -10.144   8.043  72.297  1.00  0.00    -0.246 C  
BRANCH  14  15
HETATM   15  C   UNL     1     -11.344   8.856  72.000  1.00  0.00    -0.357 A  
HETATM   16  C   UNL     1     -12.660   8.789  72.398  1.00  0.00    -0.430 A  
HETATM   17  C   UNL     1     -13.321   9.862  71.753  1.00  0.00    -0.501 A  
HETATM   18  C   UNL     1     -12.371  10.512  70.995  1.00  0.00    -0.399 A  
HETATM   19  O   UNL     1     -11.164   9.894  71.135  1.00  0.00    -0.354 OA 
BRANCH  18  20
HETATM   20  C   UNL     1     -12.409  11.692  70.081  1.00  0.00    -0.219 C  
BRANCH  20  21
HETATM   21  N   UNL     1     -12.064  12.963  70.748  1.00  0.00    -0.266 NA 
HETATM   22  C   UNL     1     -11.787  14.022  69.772  1.00  0.00    -0.324 C  
HETATM   23  C   UNL     1     -13.173  13.372  71.614  1.00  0.00    -0.364 C  
ENDBRANCH  20  21
ENDBRANCH  18  20
ENDBRANCH  14  15
ENDBRANCH  13  14
ENDBRANCH  12  13
ENDBRANCH  11  12
ENDBRANCH   9  11
ENDBRANCH   4   9
ENDBRANCH   2   4
TORSDOF 9
ENDMDL
MODEL      127
REMARK 921   NORMALIZED FREE ENERGY PREDICTED BY IDOCK:   -4.40 KCAL/MOL
REMARK 922        TOTAL FREE ENERGY PREDICTED BY IDOCK:   -7.11 KCAL/MOL
REMARK 923 INTER-LIGAND FREE ENERGY PREDICTED BY IDOCK:   -6.34 KCAL/MOL
REMARK 924 INTRA-LIGAND FREE ENERGY PREDICTED BY IDOCK:   -0.77 KCAL/MOL
REMARK 927      BINDING AFFINITY PREDICTED BY RF-SCORE:    0.00 PKD
ROOT
HETATM    1  C   UNL     1      -9.296   7.153  70.102  1.00  0.00    -0.158 C  
HETATM    2  N   UNL     1      -9.257   8.489  70.653  1.00  0.00    -0.155 NA 
HETATM    3  H   UNL     1      -8.371   8.761  71.079  1.00  0.00     0.000 HD 
ENDROOT
BRANCH   2   4
HETATM    4  C   UNL     1     -10.252   9.451  70.686  1.00  0.00    -0.288 C  
HETATM    5  C   UNL     1     -11.424   9.165  71.295  1.00  0.00    -0.335 C  
HETATM    6  O   UNL     1     -12.401  11.251  70.976  1.00  0.00    -0.374 OA 
HETATM    7  N   UNL     1     -12.520  10.097  71.408  1.00  0.00    -0.388 N  
HETATM    8  O   UNL     1     -13.539   9.653  71.958  1.00  0.00    -0.408 OA 
BRANCH   4   9
HETATM    9  N   UNL     1     -10.005  10.660  70.065  1.00  0.00    -0.362 NA 
HETATM   10  H   UNL     1     -10.408  11.475  70.528  1.00  0.00     0.000 HD 
BRANCH   9  11
HETATM   11  C   UNL     1      -9.260  10.946  68.855  1.00  0.00    -0.160 C  
BRANCH  11  12
HETATM   12  C   UNL     1     -10.228  11.159  67.686  1.00  0.00    -0.181 C  
BRANCH  12  13
HETATM   13  S   UNL     1      -9.611  12.368  66.467  1.00  0.00    -0.242 SA 
BRANCH  13  14
HETATM   14  C   UNL     1      -8.852  13.582  67.595  1.00  0.00    -0.202 C  
BRANCH  14  15
HETATM   15  C   UNL     1      -9.860  14.558  68.064  1.00  0.00    -0.222 A  
HETATM   16  C   UNL     1     -10.121  15.875  67.763  1.00  0.00    -0.244 A  
HETATM   17  C   UNL     1     -11.227  16.251  68.564  1.00  0.00    -0.359 A  
HETATM   18  C   UNL     1     -11.568  15.143  69.310  1.00  0.00    -0.324 A  
HETATM   19  O   UNL     1     -10.729  14.110  69.016  1.00  0.00    -0.245 OA 
BRANCH  18  20
HETATM   20  C   UNL     1     -12.614  14.874  70.340  1.00  0.00    -0.343 C  
BRANCH  20  21
HETATM   21  N   UNL     1     -12.083  14.824  71.717  1.00  0.00    -0.350 NA 
HETATM   22  C   UNL     1     -11.838  16.170  72.245  1.00  0.00    -0.536 C  
HETATM   23  C   UNL     1     -13.040  14.126  72.579  1.00  0.00    -0.463 C  
ENDBRANCH  20  21
ENDBRANCH  18  20
ENDBRANCH  14  15
ENDBRANCH  13  14
ENDBRANCH  12  13
ENDBRANCH  11  12
ENDBRANCH   9  11
ENDBRANCH   4   9
ENDBRANCH   2   4
TORSDOF 9
ENDMDL
MODEL      128
REMARK 921   NORMALIZED FREE ENERGY PREDICTED BY IDOCK:   -4.40 KCAL/MOL
REMARK 922        TOTAL FREE ENERGY PREDICTED BY IDOCK:   -7.10 KCAL/MOL
REMARK 923 INTER-LIGAND FREE ENERGY PREDICTED BY IDOCK:   -6.43 KCAL/MOL
REMARK 924 INTRA-LIGAND FREE ENERGY PREDICTED BY IDOCK:   -0.68 KCAL/MOL
REMARK 927      BINDING AFFINITY PREDICTED BY RF-SCORE:    0.00 PKD
ROOT
HETATM    1  C   UNL     1     -10.670   6.083  66.867  1.00  0.00    -0.334 C  
HETATM    2  N   UNL     1     -11.230   6.883  67.933  1.00  0.00    -0.558 NA 
HETATM    3  H   UNL     1     -12.055   7.427  67.685  1.00  0.00     0.000 HD 
ENDROOT
BRANCH   2   4
HETATM    4  C   UNL     1     -10.803   7.013  69.244  1.00  0.00    -0.214 C  
HETATM    5  C   UNL     1     -11.512   6.419  70.230  1.00  0.00    -0.402 C  
HETATM    6  O   UNL     1     -10.108   7.042  71.975  1.00  0.00    -0.185 OA 
HETATM    7  N   UNL     1     -11.149   6.470  71.625  1.00  0.00    -0.248 N  
HETATM    8  O   UNL     1     -11.938   5.908  72.399  1.00  0.00    -0.298 OA 
BRANCH   4   9
HETATM    9  N   UNL     1      -9.676   7.774  69.486  1.00  0.00    -0.164 NA 
HETATM   10  H   UNL     1      -9.070   7.427  70.229  1.00  0.00     0.000 HD 
BRANCH   9  11
HETATM   11  C   UNL     1      -9.224   8.992  68.843  1.00  0.00    -0.140 C  
BRANCH  11  12
HETATM   12  C   UNL     1      -9.511  10.196  69.748  1.00  0.00    -0.167 C  
BRANCH  12  13
HETATM   13  S   UNL     1     -11.221  10.812  69.589  1.00  0.00    -0.309 SA 
BRANCH  13  14
HETATM   14  C   UNL     1     -11.352  10.887  67.772  1.00  0.00    -0.292 C  
BRANCH  14  15
HETATM   15  C   UNL     1     -11.643  12.268  67.328  1.00  0.00    -0.357 A  
HETATM   16  C   UNL     1     -12.118  12.810  66.156  1.00  0.00    -0.429 A  
HETATM   17  C   UNL     1     -12.169  14.210  66.361  1.00  0.00    -0.473 A  
HETATM   18  C   UNL     1     -11.715  14.438  67.642  1.00  0.00    -0.391 A  
HETATM   19  O   UNL     1     -11.382  13.255  68.232  1.00  0.00    -0.264 OA 
BRANCH  18  20
HETATM   20  C   UNL     1     -11.508  15.668  68.462  1.00  0.00    -0.375 C  
BRANCH  20  21
HETATM   21  N   UNL     1     -10.316  16.443  68.067  1.00  0.00    -0.277 NA 
HETATM   22  C   UNL     1     -10.469  17.865  68.392  1.00  0.00    -0.330 C  
HETATM   23  C   UNL     1      -9.140  15.907  68.757  1.00  0.00    -0.219 C  
ENDBRANCH  20  21
ENDBRANCH  18  20
ENDBRANCH  14  15
ENDBRANCH  13  14
ENDBRANCH  12  13
ENDBRANCH  11  12
ENDBRANCH   9  11
ENDBRANCH   4   9
ENDBRANCH   2   4
TORSDOF 9
ENDMDL
MODEL      129
REMARK 921   NORMALIZED FREE ENERGY PREDICTED BY IDOCK:   -4.38 KCAL/MOL
REMARK 922        TOTAL FREE ENERGY PREDICTED BY IDOCK:   -7.08 KCAL/MOL
REMARK 923 INTER-LIGAND FREE ENERGY PREDICTED BY IDOCK:   -6.50 KCAL/MOL
REMARK 924 INTRA-LIGAND FREE ENERGY PREDICTED BY IDOCK:   -0.57 KCAL/MOL
REMARK 927      BINDING AFFINITY PREDICTED BY RF-SCORE:    0.00 PKD
ROOT
HETATM    1  C   UNL     1     -10.845   6.215  69.302  1.00  0.00    -0.351 C  
HETATM    2  N   UNL     1     -11.023   6.933  70.543  1.00  0.00    -0.259 NA 
HETATM    3  H   UNL     1     -10.469   6.593  71.329  1.00  0.00     0.000 HD 
ENDROOT
BRANCH   2   4
HETATM    4  C   UNL     1     -11.840   8.017  70.817  1.00  0.00    -0.162 C  
HETATM    5  C   UNL     1     -12.703   7.945  71.855  1.00  0.00    -0.316 C  
HETATM    6  O   UNL     1     -13.543  10.104  71.648  1.00  0.00    -0.292 OA 
HETATM    7  N   UNL     1     -13.585   9.020  72.244  1.00  0.00    -0.456 N  
HETATM    8  O   UNL     1     -14.344   8.766  73.191  1.00  0.00    -0.324 OA 
BRANCH   4   9
HETATM    9  N   UNL     1     -11.750   9.121  69.992  1.00  0.00    -0.451 NA 
HETATM   10  H   UNL     1     -12.641   9.473  69.640  1.00  0.00     0.000 HD 
BRANCH   9  11
HETATM   11  C   UNL     1     -10.582   9.856  69.550  1.00  0.00    -0.242 C  
BRANCH  11  12
HETATM   12  C   UNL     1     -10.754  10.278  68.087  1.00  0.00    -0.246 C  
BRANCH  12  13
HETATM   13  S   UNL     1     -10.714  12.088  67.862  1.00  0.00    -0.220 SA 
BRANCH  13  14
HETATM   14  C   UNL     1     -11.904  12.584  69.151  1.00  0.00    -0.296 C  
BRANCH  14  15
HETATM   15  C   UNL     1     -11.602  13.947  69.642  1.00  0.00    -0.286 A  
HETATM   16  C   UNL     1     -12.100  14.721  70.665  1.00  0.00    -0.374 A  
HETATM   17  C   UNL     1     -11.393  15.947  70.611  1.00  0.00    -0.421 A  
HETATM   18  C   UNL     1     -10.513  15.848  69.555  1.00  0.00    -0.281 A  
HETATM   19  O   UNL     1     -10.646  14.633  68.953  1.00  0.00    -0.240 OA 
BRANCH  18  20
HETATM   20  C   UNL     1      -9.507  16.776  68.959  1.00  0.00    -0.217 C  
BRANCH  20  21
HETATM   21  N   UNL     1     -10.018  18.147  68.758  1.00  0.00    -0.380 NA 
HETATM   22  C   UNL     1      -8.930  19.129  68.754  1.00  0.00    -0.346 C  
HETATM   23  C   UNL     1     -10.742  18.211  67.486  1.00  0.00    -0.345 C  
ENDBRANCH  20  21
ENDBRANCH  18  20
ENDBRANCH  14  15
ENDBRANCH  13  14
ENDBRANCH  12  13
ENDBRANCH  11  12
ENDBRANCH   9  11
ENDBRANCH   4   9
ENDBRANCH   2   4
TORSDOF 9
ENDMDL
MODEL      130
REMARK 921   NORMALIZED FREE ENERGY PREDICTED BY IDOCK:   -4.36 KCAL/MOL
REMARK 922        TOTAL FREE ENERGY PREDICTED BY IDOCK:   -7.05 KCAL/MOL
REMARK 923 INTER-LIGAND FREE ENERGY PREDICTED BY IDOCK:   -6.64 KCAL/MOL
REMARK 924 INTRA-LIGAND FREE ENERGY PREDICTED BY IDOCK:   -0.41 KCAL/MOL
REMARK 927      BINDING AFFINITY PREDICTED BY RF-SCORE:    0.00 PKD
ROOT
HETATM    1  C   UNL     1     -12.183  12.816  63.364  1.00  0.00    -0.504 C  
HETATM    2  N   UNL     1     -11.435  11.582  63.303  1.00  0.00    -0.852 NA 
HETATM    3  H   UNL     1     -11.802  10.878  62.663  1.00  0.00     0.000 HD 
ENDROOT
BRANCH   2   4
HETATM    4  C   UNL     1     -10.290  11.219  63.992  1.00  0.00    -0.371 C  
HETATM    5  C   UNL     1      -9.398  10.395  63.398  1.00  0.00    -0.300 C  
HETATM    6  O   UNL     1      -7.843  10.402  65.127  1.00  0.00    -0.148 OA 
HETATM    7  N   UNL     1      -8.163   9.969  64.012  1.00  0.00    -0.149 N  
HETATM    8  O   UNL     1      -7.485   9.175  63.344  1.00  0.00    -0.096 OA 
BRANCH   4   9
HETATM    9  N   UNL     1     -10.125  11.702  65.275  1.00  0.00    -0.254 NA 
HETATM   10  H   UNL     1      -9.235  12.168  65.452  1.00  0.00     0.000 HD 
BRANCH   9  11
HETATM   11  C   UNL     1     -11.025  11.647  66.409  1.00  0.00    -0.295 C  
BRANCH  11  12
HETATM   12  C   UNL     1     -10.705  10.419  67.269  1.00  0.00    -0.273 C  
BRANCH  12  13
HETATM   13  S   UNL     1     -10.166  10.856  68.957  1.00  0.00    -0.183 SA 
BRANCH  13  14
HETATM   14  C   UNL     1     -11.786  11.213  69.714  1.00  0.00    -0.345 C  
BRANCH  14  15
HETATM   15  C   UNL     1     -12.113  10.201  70.742  1.00  0.00    -0.343 A  
HETATM   16  C   UNL     1     -13.283   9.809  71.353  1.00  0.00    -0.482 A  
HETATM   17  C   UNL     1     -12.928   8.785  72.264  1.00  0.00    -0.462 A  
HETATM   18  C   UNL     1     -11.564   8.620  72.160  1.00  0.00    -0.370 A  
HETATM   19  O   UNL     1     -11.061   9.490  71.240  1.00  0.00    -0.334 OA 
BRANCH  18  20
HETATM   20  C   UNL     1     -10.576   7.730  72.840  1.00  0.00    -0.366 C  
BRANCH  20  21
HETATM   21  N   UNL     1     -10.561   6.354  72.306  1.00  0.00    -0.208 NA 
HETATM   22  C   UNL     1      -9.207   5.790  72.318  1.00  0.00    -0.145 C  
HETATM   23  C   UNL     1     -11.450   5.513  73.111  1.00  0.00    -0.158 C  
ENDBRANCH  20  21
ENDBRANCH  18  20
ENDBRANCH  14  15
ENDBRANCH  13  14
ENDBRANCH  12  13
ENDBRANCH  11  12
ENDBRANCH   9  11
ENDBRANCH   4   9
ENDBRANCH   2   4
TORSDOF 9
ENDMDL
MODEL      131
REMARK 921   NORMALIZED FREE ENERGY PREDICTED BY IDOCK:   -4.36 KCAL/MOL
REMARK 922        TOTAL FREE ENERGY PREDICTED BY IDOCK:   -7.04 KCAL/MOL
REMARK 923 INTER-LIGAND FREE ENERGY PREDICTED BY IDOCK:   -6.59 KCAL/MOL
REMARK 924 INTRA-LIGAND FREE ENERGY PREDICTED BY IDOCK:   -0.46 KCAL/MOL
REMARK 927      BINDING AFFINITY PREDICTED BY RF-SCORE:    0.00 PKD
ROOT
HETATM    1  C   UNL     1     -12.072  15.430  70.906  1.00  0.00    -0.364 C  
HETATM    2  N   UNL     1     -11.143  14.646  70.124  1.00  0.00    -0.436 NA 
HETATM    3  H   UNL     1     -10.166  14.931  70.190  1.00  0.00     0.000 HD 
ENDROOT
BRANCH   2   4
HETATM    4  C   UNL     1     -11.392  13.564  69.297  1.00  0.00    -0.262 C  
HETATM    5  C   UNL     1     -11.742  13.786  68.010  1.00  0.00    -0.355 C  
HETATM    6  O   UNL     1     -11.862  11.551  67.381  1.00  0.00    -0.607 OA 
HETATM    7  N   UNL     1     -12.004  12.737  67.055  1.00  0.00    -0.355 N  
HETATM    8  O   UNL     1     -12.359  13.120  65.930  1.00  0.00    -0.434 OA 
BRANCH   4   9
HETATM    9  N   UNL     1     -11.294  12.298  69.839  1.00  0.00    -0.507 NA 
HETATM   10  H   UNL     1     -10.454  11.780  69.582  1.00  0.00     0.000 HD 
BRANCH   9  11
HETATM   11  C   UNL     1     -12.205  11.593  70.718  1.00  0.00    -0.344 C  
BRANCH  11  12
HETATM   12  C   UNL     1     -11.712  10.159  70.939  1.00  0.00    -0.378 C  
BRANCH  12  13
HETATM   13  S   UNL     1     -12.717   9.242  72.155  1.00  0.00    -0.377 SA 
BRANCH  13  14
HETATM   14  C   UNL     1     -11.521   7.952  72.632  1.00  0.00    -0.395 C  
BRANCH  14  15
HETATM   15  C   UNL     1     -11.186   7.098  71.471  1.00  0.00    -0.245 A  
HETATM   16  C   UNL     1     -11.908   6.621  70.401  1.00  0.00    -0.407 A  
HETATM   17  C   UNL     1     -11.007   5.843  69.633  1.00  0.00    -0.447 A  
HETATM   18  C   UNL     1      -9.794   5.886  70.286  1.00  0.00    -0.185 A  
HETATM   19  O   UNL     1      -9.902   6.642  71.415  1.00  0.00    -0.179 OA 
BRANCH  18  20
HETATM   20  C   UNL     1      -8.456   5.278  70.021  1.00  0.00    -0.101 C  
BRANCH  20  21
HETATM   21  N   UNL     1      -8.407   4.489  68.774  1.00  0.00    -0.081 NA 
HETATM   22  C   UNL     1      -7.310   4.927  67.905  1.00  0.00    -0.071 C  
HETATM   23  C   UNL     1      -8.235   3.072  69.106  1.00  0.00    -0.059 C  
ENDBRANCH  20  21
ENDBRANCH  18  20
ENDBRANCH  14  15
ENDBRANCH  13  14
ENDBRANCH  12  13
ENDBRANCH  11  12
ENDBRANCH   9  11
ENDBRANCH   4   9
ENDBRANCH   2   4
TORSDOF 9
ENDMDL
MODEL      132
REMARK 921   NORMALIZED FREE ENERGY PREDICTED BY IDOCK:   -4.35 KCAL/MOL
REMARK 922        TOTAL FREE ENERGY PREDICTED BY IDOCK:   -7.03 KCAL/MOL
REMARK 923 INTER-LIGAND FREE ENERGY PREDICTED BY IDOCK:   -6.26 KCAL/MOL
REMARK 924 INTRA-LIGAND FREE ENERGY PREDICTED BY IDOCK:   -0.77 KCAL/MOL
REMARK 927      BINDING AFFINITY PREDICTED BY RF-SCORE:    0.00 PKD
ROOT
HETATM    1  C   UNL     1     -11.191  11.453  69.154  1.00  0.00    -0.272 C  
HETATM    2  N   UNL     1     -11.555  10.140  68.673  1.00  0.00    -0.532 NA 
HETATM    3  H   UNL     1     -12.433  10.092  68.156  1.00  0.00     0.000 HD 
ENDROOT
BRANCH   2   4
HETATM    4  C   UNL     1     -10.882   8.939  68.815  1.00  0.00    -0.002 C  
HETATM    5  C   UNL     1     -10.392   8.598  70.028  1.00  0.00    -0.207 C  
HETATM    6  O   UNL     1      -9.560   6.520  69.400  1.00  0.00    -0.144 OA 
HETATM    7  N   UNL     1      -9.695   7.364  70.296  1.00  0.00    -0.172 N  
HETATM    8  O   UNL     1      -9.273   7.234  71.455  1.00  0.00    -0.143 OA 
BRANCH   4   9
HETATM    9  N   UNL     1     -10.720   8.150  67.692  1.00  0.00    -0.480 NA 
HETATM   10  H   UNL     1     -11.208   7.255  67.718  1.00  0.00     0.000 HD 
BRANCH   9  11
HETATM   11  C   UNL     1      -9.961   8.402  66.484  1.00  0.00    -0.265 C  
BRANCH  11  12
HETATM   12  C   UNL     1      -8.708   9.219  66.816  1.00  0.00    -0.127 C  
BRANCH  12  13
HETATM   13  S   UNL     1      -8.724  10.881  66.063  1.00  0.00    -0.188 SA 
BRANCH  13  14
HETATM   14  C   UNL     1      -9.886  10.584  64.690  1.00  0.00    -0.340 C  
BRANCH  14  15
HETATM   15  C   UNL     1     -10.719  11.782  64.445  1.00  0.00    -0.327 A  
HETATM   16  C   UNL     1     -11.901  11.998  63.773  1.00  0.00    -0.581 A  
HETATM   17  C   UNL     1     -12.179  13.381  63.899  1.00  0.00    -0.478 A  
HETATM   18  C   UNL     1     -11.147  13.925  64.633  1.00  0.00    -0.385 A  
HETATM   19  O   UNL     1     -10.248  12.954  64.959  1.00  0.00    -0.292 OA 
BRANCH  18  20
HETATM   20  C   UNL     1     -10.829  15.307  65.101  1.00  0.00    -0.426 C  
BRANCH  20  21
HETATM   21  N   UNL     1     -10.344  15.358  66.494  1.00  0.00    -0.280 NA 
HETATM   22  C   UNL     1      -9.984  16.724  66.887  1.00  0.00    -0.273 C  
HETATM   23  C   UNL     1     -11.388  14.851  67.388  1.00  0.00    -0.347 C  
ENDBRANCH  20  21
ENDBRANCH  18  20
ENDBRANCH  14  15
ENDBRANCH  13  14
ENDBRANCH  12  13
ENDBRANCH  11  12
ENDBRANCH   9  11
ENDBRANCH   4   9
ENDBRANCH   2   4
TORSDOF 9
ENDMDL
MODEL      133
REMARK 921   NORMALIZED FREE ENERGY PREDICTED BY IDOCK:   -4.32 KCAL/MOL
REMARK 922        TOTAL FREE ENERGY PREDICTED BY IDOCK:   -6.99 KCAL/MOL
REMARK 923 INTER-LIGAND FREE ENERGY PREDICTED BY IDOCK:   -6.19 KCAL/MOL
REMARK 924 INTRA-LIGAND FREE ENERGY PREDICTED BY IDOCK:   -0.80 KCAL/MOL
REMARK 927      BINDING AFFINITY PREDICTED BY RF-SCORE:    0.00 PKD
ROOT
HETATM    1  C   UNL     1     -11.794  12.177  68.864  1.00  0.00    -0.304 C  
HETATM    2  N   UNL     1     -11.231  11.474  69.995  1.00  0.00    -0.489 NA 
HETATM    3  H   UNL     1     -10.568  12.008  70.556  1.00  0.00     0.000 HD 
ENDROOT
BRANCH   2   4
HETATM    4  C   UNL     1     -11.465  10.179  70.424  1.00  0.00    -0.322 C  
HETATM    5  C   UNL     1     -12.558   9.921  71.176  1.00  0.00    -0.367 C  
HETATM    6  O   UNL     1     -12.225   7.626  71.346  1.00  0.00    -0.307 OA 
HETATM    7  N   UNL     1     -12.912   8.608  71.658  1.00  0.00    -0.335 N  
HETATM    8  O   UNL     1     -13.923   8.561  72.373  1.00  0.00    -0.364 OA 
BRANCH   4   9
HETATM    9  N   UNL     1     -10.546   9.206  70.079  1.00  0.00    -0.218 NA 
HETATM   10  H   UNL     1     -10.102   8.732  70.865  1.00  0.00     0.000 HD 
BRANCH   9  11
HETATM   11  C   UNL     1     -10.118   8.758  68.769  1.00  0.00    -0.198 C  
BRANCH  11  12
HETATM   12  C   UNL     1      -8.718   9.302  68.464  1.00  0.00    -0.128 C  
BRANCH  12  13
HETATM   13  S   UNL     1      -8.730  10.625  67.209  1.00  0.00    -0.129 SA 
BRANCH  13  14
HETATM   14  C   UNL     1      -8.269  12.045  68.255  1.00  0.00    -0.161 C  
BRANCH  14  15
HETATM   15  C   UNL     1      -8.605  13.319  67.582  1.00  0.00    -0.196 A  
HETATM   16  C   UNL     1      -8.177  14.618  67.734  1.00  0.00    -0.169 A  
HETATM   17  C   UNL     1      -8.892  15.384  66.782  1.00  0.00    -0.300 A  
HETATM   18  C   UNL     1      -9.719  14.507  66.112  1.00  0.00    -0.316 A  
HETATM   19  O   UNL     1      -9.555  13.247  66.606  1.00  0.00    -0.250 OA 
BRANCH  18  20
HETATM   20  C   UNL     1     -10.724  14.665  65.020  1.00  0.00    -0.430 C  
BRANCH  20  21
HETATM   21  N   UNL     1     -11.639  13.514  64.892  1.00  0.00    -0.324 NA 
HETATM   22  C   UNL     1     -12.897  13.747  65.609  1.00  0.00    -0.408 C  
HETATM   23  C   UNL     1     -11.920  13.274  63.474  1.00  0.00    -0.474 C  
ENDBRANCH  20  21
ENDBRANCH  18  20
ENDBRANCH  14  15
ENDBRANCH  13  14
ENDBRANCH  12  13
ENDBRANCH  11  12
ENDBRANCH   9  11
ENDBRANCH   4   9
ENDBRANCH   2   4
TORSDOF 9
ENDMDL
MODEL      134
REMARK 921   NORMALIZED FREE ENERGY PREDICTED BY IDOCK:   -4.32 KCAL/MOL
REMARK 922        TOTAL FREE ENERGY PREDICTED BY IDOCK:   -6.98 KCAL/MOL
REMARK 923 INTER-LIGAND FREE ENERGY PREDICTED BY IDOCK:   -6.31 KCAL/MOL
REMARK 924 INTRA-LIGAND FREE ENERGY PREDICTED BY IDOCK:   -0.67 KCAL/MOL
REMARK 927      BINDING AFFINITY PREDICTED BY RF-SCORE:    0.00 PKD
ROOT
HETATM    1  C   UNL     1      -9.306   4.857  71.432  1.00  0.00    -0.150 C  
HETATM    2  N   UNL     1     -10.119   4.582  70.269  1.00  0.00    -0.212 NA 
HETATM    3  H   UNL     1     -10.522   3.646  70.228  1.00  0.00     0.000 HD 
ENDROOT
BRANCH   2   4
HETATM    4  C   UNL     1     -10.427   5.409  69.203  1.00  0.00    -0.207 C  
HETATM    5  C   UNL     1      -9.709   5.308  68.062  1.00  0.00    -0.141 C  
HETATM    6  O   UNL     1     -10.902   6.900  66.858  1.00  0.00    -0.351 OA 
HETATM    7  N   UNL     1      -9.956   6.103  66.883  1.00  0.00    -0.156 N  
HETATM    8  O   UNL     1      -9.171   5.912  65.942  1.00  0.00    -0.157 OA 
BRANCH   4   9
HETATM    9  N   UNL     1     -11.448   6.325  69.367  1.00  0.00    -0.559 NA 
HETATM   10  H   UNL     1     -12.104   6.387  68.588  1.00  0.00     0.000 HD 
BRANCH   9  11
HETATM   11  C   UNL     1     -11.728   7.212  70.478  1.00  0.00    -0.272 C  
BRANCH  11  12
HETATM   12  C   UNL     1     -10.933   8.513  70.320  1.00  0.00    -0.235 C  
BRANCH  12  13
HETATM   13  S   UNL     1     -11.611   9.884  71.314  1.00  0.00    -0.352 SA 
BRANCH  13  14
HETATM   14  C   UNL     1     -12.652  10.691  70.054  1.00  0.00    -0.165 C  
BRANCH  14  15
HETATM   15  C   UNL     1     -11.814  11.416  69.073  1.00  0.00    -0.348 A  
HETATM   16  C   UNL     1     -10.769  12.304  69.187  1.00  0.00    -0.089 A  
HETATM   17  C   UNL     1     -10.396  12.646  67.864  1.00  0.00    -0.221 A  
HETATM   18  C   UNL     1     -11.241  11.952  67.025  1.00  0.00    -0.323 A  
HETATM   19  O   UNL     1     -12.115  11.209  67.759  1.00  0.00    -0.606 OA 
BRANCH  18  20
HETATM   20  C   UNL     1     -11.389  11.876  65.541  1.00  0.00    -0.277 C  
BRANCH  20  21
HETATM   21  N   UNL     1     -12.658  12.446  65.048  1.00  0.00    -0.604 NA 
HETATM   22  C   UNL     1     -12.730  13.890  65.298  1.00  0.00    -0.449 C  
HETATM   23  C   UNL     1     -12.777  12.191  63.610  1.00  0.00    -0.432 C  
ENDBRANCH  20  21
ENDBRANCH  18  20
ENDBRANCH  14  15
ENDBRANCH  13  14
ENDBRANCH  12  13
ENDBRANCH  11  12
ENDBRANCH   9  11
ENDBRANCH   4   9
ENDBRANCH   2   4
TORSDOF 9
ENDMDL
MODEL      135
REMARK 921   NORMALIZED FREE ENERGY PREDICTED BY IDOCK:   -4.31 KCAL/MOL
REMARK 922        TOTAL FREE ENERGY PREDICTED BY IDOCK:   -6.97 KCAL/MOL
REMARK 923 INTER-LIGAND FREE ENERGY PREDICTED BY IDOCK:   -6.34 KCAL/MOL
REMARK 924 INTRA-LIGAND FREE ENERGY PREDICTED BY IDOCK:   -0.63 KCAL/MOL
REMARK 927      BINDING AFFINITY PREDICTED BY RF-SCORE:    0.00 PKD
ROOT
HETATM    1  C   UNL     1     -10.078   8.796  66.722  1.00  0.00    -0.288 C  
HETATM    2  N   UNL     1     -10.870   7.740  67.310  1.00  0.00    -0.528 NA 
HETATM    3  H   UNL     1     -11.880   7.860  67.241  1.00  0.00     0.000 HD 
ENDROOT
BRANCH   2   4
HETATM    4  C   UNL     1     -10.451   6.589  67.956  1.00  0.00    -0.216 C  
HETATM    5  C   UNL     1     -10.190   5.482  67.225  1.00  0.00    -0.212 C  
HETATM    6  O   UNL     1      -9.497   4.152  69.002  1.00  0.00    -0.153 OA 
HETATM    7  N   UNL     1      -9.728   4.237  67.789  1.00  0.00    -0.152 N  
HETATM    8  O   UNL     1      -9.583   3.310  66.978  1.00  0.00    -0.173 OA 
BRANCH   4   9
HETATM    9  N   UNL     1     -10.342   6.622  69.333  1.00  0.00    -0.188 NA 
HETATM   10  H   UNL     1      -9.436   6.331  69.702  1.00  0.00     0.000 HD 
BRANCH   9  11
HETATM   11  C   UNL     1     -11.319   7.006  70.331  1.00  0.00    -0.310 C  
BRANCH  11  12
HETATM   12  C   UNL     1     -10.697   8.008  71.310  1.00  0.00    -0.229 C  
BRANCH  12  13
HETATM   13  S   UNL     1     -11.688   9.529  71.492  1.00  0.00    -0.401 SA 
BRANCH  13  14
HETATM   14  C   UNL     1     -11.471  10.237  69.826  1.00  0.00    -0.256 C  
BRANCH  14  15
HETATM   15  C   UNL     1     -11.787  11.683  69.829  1.00  0.00    -0.357 A  
HETATM   16  C   UNL     1     -12.251  12.553  70.790  1.00  0.00    -0.332 A  
HETATM   17  C   UNL     1     -12.354  13.817  70.159  1.00  0.00    -0.390 A  
HETATM   18  C   UNL     1     -11.955  13.639  68.852  1.00  0.00    -0.356 A  
HETATM   19  O   UNL     1     -11.619  12.335  68.644  1.00  0.00    -0.275 OA 
BRANCH  18  20
HETATM   20  C   UNL     1     -11.845  14.549  67.674  1.00  0.00    -0.364 C  
BRANCH  20  21
HETATM   21  N   UNL     1     -11.514  13.845  66.418  1.00  0.00    -0.331 NA 
HETATM   22  C   UNL     1     -12.571  14.014  65.415  1.00  0.00    -0.505 C  
HETATM   23  C   UNL     1     -10.250  14.366  65.890  1.00  0.00    -0.325 C  
ENDBRANCH  20  21
ENDBRANCH  18  20
ENDBRANCH  14  15
ENDBRANCH  13  14
ENDBRANCH  12  13
ENDBRANCH  11  12
ENDBRANCH   9  11
ENDBRANCH   4   9
ENDBRANCH   2   4
TORSDOF 9
ENDMDL
MODEL      136
REMARK 921   NORMALIZED FREE ENERGY PREDICTED BY IDOCK:   -4.31 KCAL/MOL
REMARK 922        TOTAL FREE ENERGY PREDICTED BY IDOCK:   -6.97 KCAL/MOL
REMARK 923 INTER-LIGAND FREE ENERGY PREDICTED BY IDOCK:   -6.37 KCAL/MOL
REMARK 924 INTRA-LIGAND FREE ENERGY PREDICTED BY IDOCK:   -0.60 KCAL/MOL
REMARK 927      BINDING AFFINITY PREDICTED BY RF-SCORE:    0.00 PKD
ROOT
HETATM    1  C   UNL     1      -8.867  12.110  66.808  1.00  0.00    -0.198 C  
HETATM    2  N   UNL     1      -9.497  10.933  66.254  1.00  0.00    -0.188 NA 
HETATM    3  H   UNL     1      -9.995  10.347  66.923  1.00  0.00     0.000 HD 
ENDROOT
BRANCH   2   4
HETATM    4  C   UNL     1      -9.519  10.489  64.942  1.00  0.00    -0.252 C  
HETATM    5  C   UNL     1      -8.473   9.774  64.471  1.00  0.00    -0.176 C  
HETATM    6  O   UNL     1      -9.351   9.388  62.353  1.00  0.00    -0.196 OA 
HETATM    7  N   UNL     1      -8.399   9.244  63.131  1.00  0.00    -0.183 N  
HETATM    8  O   UNL     1      -7.345   8.652  62.853  1.00  0.00    -0.094 OA 
BRANCH   4   9
HETATM    9  N   UNL     1     -10.610  10.822  64.163  1.00  0.00    -0.435 NA 
HETATM   10  H   UNL     1     -11.169  10.033  63.840  1.00  0.00     0.000 HD 
BRANCH   9  11
HETATM   11  C   UNL     1     -11.080  12.124  63.736  1.00  0.00    -0.436 C  
BRANCH  11  12
HETATM   12  C   UNL     1     -12.173  12.622  64.688  1.00  0.00    -0.452 C  
BRANCH  12  13
HETATM   13  S   UNL     1     -12.287  14.442  64.747  1.00  0.00    -0.352 SA 
BRANCH  13  14
HETATM   14  C   UNL     1     -10.523  14.853  64.958  1.00  0.00    -0.401 C  
BRANCH  14  15
HETATM   15  C   UNL     1     -10.352  15.890  66.000  1.00  0.00    -0.348 A  
HETATM   16  C   UNL     1     -10.668  15.955  67.338  1.00  0.00    -0.313 A  
HETATM   17  C   UNL     1     -10.248  17.233  67.780  1.00  0.00    -0.332 A  
HETATM   18  C   UNL     1      -9.709  17.872  66.684  1.00  0.00    -0.319 A  
HETATM   19  O   UNL     1      -9.781  17.059  65.593  1.00  0.00    -0.543 OA 
BRANCH  18  20
HETATM   20  C   UNL     1      -9.110  19.222  66.467  1.00  0.00    -0.350 C  
BRANCH  20  21
HETATM   21  N   UNL     1      -7.634  19.223  66.513  1.00  0.00    -0.240 NA 
HETATM   22  C   UNL     1      -7.068  20.129  65.508  1.00  0.00    -0.289 C  
HETATM   23  C   UNL     1      -7.192  19.635  67.848  1.00  0.00    -0.273 C  
ENDBRANCH  20  21
ENDBRANCH  18  20
ENDBRANCH  14  15
ENDBRANCH  13  14
ENDBRANCH  12  13
ENDBRANCH  11  12
ENDBRANCH   9  11
ENDBRANCH   4   9
ENDBRANCH   2   4
TORSDOF 9
ENDMDL
MODEL      137
REMARK 921   NORMALIZED FREE ENERGY PREDICTED BY IDOCK:   -4.30 KCAL/MOL
REMARK 922        TOTAL FREE ENERGY PREDICTED BY IDOCK:   -6.94 KCAL/MOL
REMARK 923 INTER-LIGAND FREE ENERGY PREDICTED BY IDOCK:   -6.55 KCAL/MOL
REMARK 924 INTRA-LIGAND FREE ENERGY PREDICTED BY IDOCK:   -0.40 KCAL/MOL
REMARK 927      BINDING AFFINITY PREDICTED BY RF-SCORE:    0.00 PKD
ROOT
HETATM    1  C   UNL     1      -9.872   7.871  67.399  1.00  0.00    -0.181 C  
HETATM    2  N   UNL     1     -10.802   8.972  67.505  1.00  0.00    -0.466 NA 
HETATM    3  H   UNL     1     -11.164   9.327  66.621  1.00  0.00     0.000 HD 
ENDROOT
BRANCH   2   4
HETATM    4  C   UNL     1     -11.271   9.614  68.639  1.00  0.00     0.046 C  
HETATM    5  C   UNL     1     -11.013   9.078  69.853  1.00  0.00    -0.193 C  
HETATM    6  O   UNL     1     -12.024  10.758  71.103  1.00  0.00    -0.329 OA 
HETATM    7  N   UNL     1     -11.433   9.671  71.100  1.00  0.00    -0.353 N  
HETATM    8  O   UNL     1     -11.150   9.021  72.118  1.00  0.00    -0.350 OA 
BRANCH   4   9
HETATM    9  N   UNL     1     -12.011  10.769  68.472  1.00  0.00    -0.793 NA 
HETATM   10  H   UNL     1     -13.009  10.676  68.661  1.00  0.00     0.000 HD 
BRANCH   9  11
HETATM   11  C   UNL     1     -11.582  12.093  68.068  1.00  0.00    -0.348 C  
BRANCH  11  12
HETATM   12  C   UNL     1     -11.875  12.304  66.579  1.00  0.00    -0.306 C  
BRANCH  12  13
HETATM   13  S   UNL     1     -10.455  11.886  65.511  1.00  0.00    -0.279 SA 
BRANCH  13  14
HETATM   14  C   UNL     1     -10.682  13.131  64.198  1.00  0.00    -0.374 C  
BRANCH  14  15
HETATM   15  C   UNL     1     -10.623  14.498  64.761  1.00  0.00    -0.377 A  
HETATM   16  C   UNL     1     -11.322  15.658  64.518  1.00  0.00    -0.327 A  
HETATM   17  C   UNL     1     -10.782  16.634  65.390  1.00  0.00    -0.228 A  
HETATM   18  C   UNL     1      -9.781  16.013  66.105  1.00  0.00    -0.324 A  
HETATM   19  O   UNL     1      -9.674  14.711  65.717  1.00  0.00    -0.323 OA 
BRANCH  18  20
HETATM   20  C   UNL     1      -8.826  16.471  67.158  1.00  0.00    -0.195 C  
BRANCH  20  21
HETATM   21  N   UNL     1      -9.462  16.690  68.472  1.00  0.00    -0.231 NA 
HETATM   22  C   UNL     1     -10.105  18.006  68.544  1.00  0.00    -0.393 C  
HETATM   23  C   UNL     1     -10.461  15.644  68.706  1.00  0.00    -0.225 C  
ENDBRANCH  20  21
ENDBRANCH  18  20
ENDBRANCH  14  15
ENDBRANCH  13  14
ENDBRANCH  12  13
ENDBRANCH  11  12
ENDBRANCH   9  11
ENDBRANCH   4   9
ENDBRANCH   2   4
TORSDOF 9
ENDMDL
MODEL      138
REMARK 921   NORMALIZED FREE ENERGY PREDICTED BY IDOCK:   -4.28 KCAL/MOL
REMARK 922        TOTAL FREE ENERGY PREDICTED BY IDOCK:   -6.92 KCAL/MOL
REMARK 923 INTER-LIGAND FREE ENERGY PREDICTED BY IDOCK:   -6.39 KCAL/MOL
REMARK 924 INTRA-LIGAND FREE ENERGY PREDICTED BY IDOCK:   -0.54 KCAL/MOL
REMARK 927      BINDING AFFINITY PREDICTED BY RF-SCORE:    0.00 PKD
ROOT
HETATM    1  C   UNL     1      -8.930  20.158  66.957  1.00  0.00    -0.350 C  
HETATM    2  N   UNL     1     -10.046  19.291  67.262  1.00  0.00    -0.359 NA 
HETATM    3  H   UNL     1     -10.754  19.689  67.878  1.00  0.00     0.000 HD 
ENDROOT
BRANCH   2   4
HETATM    4  C   UNL     1     -10.289  17.996  66.835  1.00  0.00    -0.370 C  
HETATM    5  C   UNL     1     -10.783  17.794  65.593  1.00  0.00    -0.064 C  
HETATM    6  O   UNL     1     -10.785  15.471  65.686  1.00  0.00    -0.330 OA 
HETATM    7  N   UNL     1     -11.053  16.490  65.037  1.00  0.00    -0.267 N  
HETATM    8  O   UNL     1     -11.549  16.491  63.900  1.00  0.00    -1.175 OA 
BRANCH   4   9
HETATM    9  N   UNL     1     -10.036  16.964  67.718  1.00  0.00    -0.269 NA 
HETATM   10  H   UNL     1     -10.862  16.470  68.055  1.00  0.00     0.000 HD 
BRANCH   9  11
HETATM   11  C   UNL     1      -8.773  16.478  68.237  1.00  0.00    -0.209 C  
BRANCH  11  12
HETATM   12  C   UNL     1      -9.006  15.214  69.072  1.00  0.00    -0.219 C  
BRANCH  12  13
HETATM   13  S   UNL     1      -7.856  13.862  68.647  1.00  0.00    -0.085 SA 
BRANCH  13  14
HETATM   14  C   UNL     1      -8.615  13.292  67.090  1.00  0.00    -0.193 C  
BRANCH  14  15
HETATM   15  C   UNL     1      -9.636  12.255  67.358  1.00  0.00    -0.179 A  
HETATM   16  C   UNL     1     -10.281  11.329  66.569  1.00  0.00    -0.269 A  
HETATM   17  C   UNL     1     -11.159  10.625  67.428  1.00  0.00    -0.341 A  
HETATM   18  C   UNL     1     -11.003  11.169  68.685  1.00  0.00    -0.220 A  
HETATM   19  O   UNL     1     -10.081  12.172  68.644  1.00  0.00    -0.212 OA 
BRANCH  18  20
HETATM   20  C   UNL     1     -11.630  10.898  70.012  1.00  0.00    -0.341 C  
BRANCH  20  21
HETATM   21  N   UNL     1     -11.397   9.525  70.503  1.00  0.00    -0.268 NA 
HETATM   22  C   UNL     1      -9.990   9.316  70.861  1.00  0.00    -0.297 C  
HETATM   23  C   UNL     1     -12.242   9.281  71.675  1.00  0.00    -0.370 C  
ENDBRANCH  20  21
ENDBRANCH  18  20
ENDBRANCH  14  15
ENDBRANCH  13  14
ENDBRANCH  12  13
ENDBRANCH  11  12
ENDBRANCH   9  11
ENDBRANCH   4   9
ENDBRANCH   2   4
TORSDOF 9
ENDMDL
MODEL      139
REMARK 921   NORMALIZED FREE ENERGY PREDICTED BY IDOCK:   -4.28 KCAL/MOL
REMARK 922        TOTAL FREE ENERGY PREDICTED BY IDOCK:   -6.91 KCAL/MOL
REMARK 923 INTER-LIGAND FREE ENERGY PREDICTED BY IDOCK:   -6.59 KCAL/MOL
REMARK 924 INTRA-LIGAND FREE ENERGY PREDICTED BY IDOCK:   -0.32 KCAL/MOL
REMARK 927      BINDING AFFINITY PREDICTED BY RF-SCORE:    0.00 PKD
ROOT
HETATM    1  C   UNL     1     -12.173  13.114  64.041  1.00  0.00    -0.414 C  
HETATM    2  N   UNL     1     -12.306  12.501  65.343  1.00  0.00    -0.635 NA 
HETATM    3  H   UNL     1     -12.898  11.672  65.378  1.00  0.00     0.000 HD 
ENDROOT
BRANCH   2   4
HETATM    4  C   UNL     1     -11.744  12.882  66.550  1.00  0.00    -0.393 C  
HETATM    5  C   UNL     1     -12.059  14.089  67.071  1.00  0.00    -0.420 C  
HETATM    6  O   UNL     1     -10.820  13.861  69.026  1.00  0.00    -0.245 OA 
HETATM    7  N   UNL     1     -11.551  14.579  68.330  1.00  0.00    -0.312 N  
HETATM    8  O   UNL     1     -11.906  15.727  68.634  1.00  0.00    -0.385 OA 
BRANCH   4   9
HETATM    9  N   UNL     1     -10.861  12.010  67.158  1.00  0.00    -0.242 NA 
HETATM   10  H   UNL     1      -9.910  12.363  67.265  1.00  0.00     0.000 HD 
BRANCH   9  11
HETATM   11  C   UNL     1     -11.081  10.671  67.665  1.00  0.00    -0.319 C  
BRANCH  11  12
HETATM   12  C   UNL     1     -10.336   9.654  66.795  1.00  0.00    -0.222 C  
BRANCH  12  13
HETATM   13  S   UNL     1      -9.072   8.719  67.721  1.00  0.00    -0.134 SA 
BRANCH  13  14
HETATM   14  C   UNL     1      -9.696   7.025  67.467  1.00  0.00    -0.136 C  
BRANCH  14  15
HETATM   15  C   UNL     1     -10.163   6.446  68.746  1.00  0.00    -0.177 A  
HETATM   16  C   UNL     1      -9.837   5.310  69.451  1.00  0.00    -0.265 A  
HETATM   17  C   UNL     1     -10.651   5.317  70.610  1.00  0.00    -0.263 A  
HETATM   18  C   UNL     1     -11.429   6.453  70.537  1.00  0.00    -0.379 A  
HETATM   19  O   UNL     1     -11.142   7.139  69.395  1.00  0.00    -0.200 OA 
BRANCH  18  20
HETATM   20  C   UNL     1     -12.487   7.037  71.413  1.00  0.00    -0.384 C  
BRANCH  20  21
HETATM   21  N   UNL     1     -11.983   8.087  72.321  1.00  0.00    -0.348 NA 
HETATM   22  C   UNL     1     -10.554   7.913  72.600  1.00  0.00    -0.329 C  
HETATM   23  C   UNL     1     -12.208   9.401  71.714  1.00  0.00    -0.390 C  
ENDBRANCH  20  21
ENDBRANCH  18  20
ENDBRANCH  14  15
ENDBRANCH  13  14
ENDBRANCH  12  13
ENDBRANCH  11  12
ENDBRANCH   9  11
ENDBRANCH   4   9
ENDBRANCH   2   4
TORSDOF 9
ENDMDL
MODEL      140
REMARK 921   NORMALIZED FREE ENERGY PREDICTED BY IDOCK:   -4.27 KCAL/MOL
REMARK 922        TOTAL FREE ENERGY PREDICTED BY IDOCK:   -6.91 KCAL/MOL
REMARK 923 INTER-LIGAND FREE ENERGY PREDICTED BY IDOCK:   -6.40 KCAL/MOL
REMARK 924 INTRA-LIGAND FREE ENERGY PREDICTED BY IDOCK:   -0.51 KCAL/MOL
REMARK 927      BINDING AFFINITY PREDICTED BY RF-SCORE:    0.00 PKD
ROOT
HETATM    1  C   UNL     1     -11.108   6.547  67.766  1.00  0.00    -0.270 C  
HETATM    2  N   UNL     1     -10.278   6.407  68.942  1.00  0.00    -0.171 NA 
HETATM    3  H   UNL     1      -9.541   7.103  69.042  1.00  0.00     0.000 HD 
ENDROOT
BRANCH   2   4
HETATM    4  C   UNL     1     -10.344   5.460  69.950  1.00  0.00    -0.307 C  
HETATM    5  C   UNL     1      -9.654   4.306  69.815  1.00  0.00    -0.209 C  
HETATM    6  O   UNL     1     -10.228   3.413  71.884  1.00  0.00    -0.132 OA 
HETATM    7  N   UNL     1      -9.632   3.261  70.809  1.00  0.00    -0.170 N  
HETATM    8  O   UNL     1      -8.984   2.249  70.501  1.00  0.00    -0.071 OA 
BRANCH   4   9
HETATM    9  N   UNL     1     -11.140   5.734  71.045  1.00  0.00    -0.237 NA 
HETATM   10  H   UNL     1     -11.895   5.068  71.209  1.00  0.00     0.000 HD 
BRANCH   9  11
HETATM   11  C   UNL     1     -11.063   6.824  71.997  1.00  0.00    -0.250 C  
BRANCH  11  12
HETATM   12  C   UNL     1     -12.283   7.739  71.841  1.00  0.00    -0.306 C  
BRANCH  12  13
HETATM   13  S   UNL     1     -11.859   9.371  71.143  1.00  0.00    -0.361 SA 
BRANCH  13  14
HETATM   14  C   UNL     1     -13.144  10.389  71.940  1.00  0.00    -0.458 C  
BRANCH  14  15
HETATM   15  C   UNL     1     -12.954  11.819  71.611  1.00  0.00    -0.362 A  
HETATM   16  C   UNL     1     -13.477  12.988  72.114  1.00  0.00    -0.638 A  
HETATM   17  C   UNL     1     -12.895  14.036  71.360  1.00  0.00    -0.434 A  
HETATM   18  C   UNL     1     -12.059  13.442  70.439  1.00  0.00    -0.333 A  
HETATM   19  O   UNL     1     -12.100  12.088  70.582  1.00  0.00    -0.373 OA 
BRANCH  18  20
HETATM   20  C   UNL     1     -11.175  13.968  69.357  1.00  0.00    -0.237 C  
BRANCH  20  21
HETATM   21  N   UNL     1     -11.888  14.804  68.371  1.00  0.00    -0.309 NA 
HETATM   22  C   UNL     1     -11.256  16.120  68.227  1.00  0.00    -0.343 C  
HETATM   23  C   UNL     1     -11.899  14.121  67.075  1.00  0.00    -0.429 C  
ENDBRANCH  20  21
ENDBRANCH  18  20
ENDBRANCH  14  15
ENDBRANCH  13  14
ENDBRANCH  12  13
ENDBRANCH  11  12
ENDBRANCH   9  11
ENDBRANCH   4   9
ENDBRANCH   2   4
TORSDOF 9
ENDMDL
MODEL      141
REMARK 921   NORMALIZED FREE ENERGY PREDICTED BY IDOCK:   -4.27 KCAL/MOL
REMARK 922        TOTAL FREE ENERGY PREDICTED BY IDOCK:   -6.91 KCAL/MOL
REMARK 923 INTER-LIGAND FREE ENERGY PREDICTED BY IDOCK:   -6.51 KCAL/MOL
REMARK 924 INTRA-LIGAND FREE ENERGY PREDICTED BY IDOCK:   -0.39 KCAL/MOL
REMARK 927      BINDING AFFINITY PREDICTED BY RF-SCORE:    0.00 PKD
ROOT
HETATM    1  C   UNL     1     -10.831  16.545  69.252  1.00  0.00    -0.326 C  
HETATM    2  N   UNL     1     -12.013  15.738  69.454  1.00  0.00    -0.437 NA 
HETATM    3  H   UNL     1     -12.607  15.620  68.634  1.00  0.00     0.000 HD 
ENDROOT
BRANCH   2   4
HETATM    4  C   UNL     1     -12.452  15.102  70.603  1.00  0.00    -0.388 C  
HETATM    5  C   UNL     1     -12.679  15.836  71.715  1.00  0.00    -0.456 C  
HETATM    6  O   UNL     1     -13.435  14.079  73.038  1.00  0.00    -0.655 OA 
HETATM    7  N   UNL     1     -13.158  15.283  72.959  1.00  0.00    -0.461 N  
HETATM    8  O   UNL     1     -13.267  16.093  73.891  1.00  0.00    -0.649 OA 
BRANCH   4   9
HETATM    9  N   UNL     1     -12.614  13.731  70.563  1.00  0.00    -0.317 NA 
HETATM   10  H   UNL     1     -13.352  13.364  71.165  1.00  0.00     0.000 HD 
BRANCH   9  11
HETATM   11  C   UNL     1     -11.894  12.734  69.796  1.00  0.00    -0.310 C  
BRANCH  11  12
HETATM   12  C   UNL     1     -12.097  11.349  70.420  1.00  0.00    -0.384 C  
BRANCH  12  13
HETATM   13  S   UNL     1     -11.352  10.009  69.431  1.00  0.00    -0.085 SA 
BRANCH  13  14
HETATM   14  C   UNL     1      -9.887   9.649  70.455  1.00  0.00    -0.256 C  
BRANCH  14  15
HETATM   15  C   UNL     1     -10.225   8.685  71.525  1.00  0.00    -0.274 A  
HETATM   16  C   UNL     1     -11.392   8.357  72.177  1.00  0.00    -0.437 A  
HETATM   17  C   UNL     1     -11.052   7.352  73.114  1.00  0.00    -0.357 A  
HETATM   18  C   UNL     1      -9.697   7.134  72.983  1.00  0.00    -0.179 A  
HETATM   19  O   UNL     1      -9.187   7.954  72.021  1.00  0.00    -0.135 OA 
BRANCH  18  20
HETATM   20  C   UNL     1      -8.725   6.232  73.669  1.00  0.00    -0.124 C  
BRANCH  20  21
HETATM   21  N   UNL     1      -8.513   4.952  72.964  1.00  0.00    -0.107 NA 
HETATM   22  C   UNL     1      -7.190   4.901  72.333  1.00  0.00    -0.082 C  
HETATM   23  C   UNL     1      -8.645   3.847  73.917  1.00  0.00    -0.093 C  
ENDBRANCH  20  21
ENDBRANCH  18  20
ENDBRANCH  14  15
ENDBRANCH  13  14
ENDBRANCH  12  13
ENDBRANCH  11  12
ENDBRANCH   9  11
ENDBRANCH   4   9
ENDBRANCH   2   4
TORSDOF 9
ENDMDL
MODEL      142
REMARK 921   NORMALIZED FREE ENERGY PREDICTED BY IDOCK:   -4.27 KCAL/MOL
REMARK 922        TOTAL FREE ENERGY PREDICTED BY IDOCK:   -6.90 KCAL/MOL
REMARK 923 INTER-LIGAND FREE ENERGY PREDICTED BY IDOCK:   -6.40 KCAL/MOL
REMARK 924 INTRA-LIGAND FREE ENERGY PREDICTED BY IDOCK:   -0.50 KCAL/MOL
REMARK 927      BINDING AFFINITY PREDICTED BY RF-SCORE:    0.00 PKD
ROOT
HETATM    1  C   UNL     1     -10.635  19.767  65.924  1.00  0.00    -0.453 C  
HETATM    2  N   UNL     1     -10.470  19.188  67.238  1.00  0.00    -0.428 NA 
HETATM    3  H   UNL     1     -11.308  19.173  67.819  1.00  0.00     0.000 HD 
ENDROOT
BRANCH   2   4
HETATM    4  C   UNL     1      -9.334  18.652  67.821  1.00  0.00    -0.292 C  
HETATM    5  C   UNL     1      -8.426  19.483  68.380  1.00  0.00    -0.350 C  
HETATM    6  O   UNL     1      -6.991  17.824  69.151  1.00  0.00    -0.256 OA 
HETATM    7  N   UNL     1      -7.220  19.035  69.032  1.00  0.00    -0.328 N  
HETATM    8  O   UNL     1      -6.476  19.935  69.449  1.00  0.00    -0.318 OA 
BRANCH   4   9
HETATM    9  N   UNL     1      -9.170  17.281  67.780  1.00  0.00    -0.236 NA 
HETATM   10  H   UNL     1      -8.972  16.842  68.679  1.00  0.00     0.000 HD 
BRANCH   9  11
HETATM   11  C   UNL     1      -9.237  16.373  66.653  1.00  0.00    -0.253 C  
BRANCH  11  12
HETATM   12  C   UNL     1     -10.633  15.747  66.570  1.00  0.00    -0.306 C  
BRANCH  12  13
HETATM   13  S   UNL     1     -11.222  15.552  64.854  1.00  0.00    -0.333 SA 
BRANCH  13  14
HETATM   14  C   UNL     1     -12.223  14.040  65.043  1.00  0.00    -0.433 C  
BRANCH  14  15
HETATM   15  C   UNL     1     -11.427  12.843  64.691  1.00  0.00    -0.327 A  
HETATM   16  C   UNL     1     -11.462  11.952  63.643  1.00  0.00    -0.551 A  
HETATM   17  C   UNL     1     -10.432  11.012  63.890  1.00  0.00    -0.422 A  
HETATM   18  C   UNL     1      -9.837  11.382  65.077  1.00  0.00    -0.261 A  
HETATM   19  O   UNL     1     -10.450  12.493  65.575  1.00  0.00    -0.268 OA 
BRANCH  18  20
HETATM   20  C   UNL     1      -8.721  10.819  65.893  1.00  0.00    -0.181 C  
BRANCH  20  21
HETATM   21  N   UNL     1      -9.180  10.077  67.084  1.00  0.00    -0.141 NA 
HETATM   22  C   UNL     1      -8.742   8.678  67.046  1.00  0.00    -0.127 C  
HETATM   23  C   UNL     1      -8.653  10.724  68.289  1.00  0.00    -0.135 C  
ENDBRANCH  20  21
ENDBRANCH  18  20
ENDBRANCH  14  15
ENDBRANCH  13  14
ENDBRANCH  12  13
ENDBRANCH  11  12
ENDBRANCH   9  11
ENDBRANCH   4   9
ENDBRANCH   2   4
TORSDOF 9
ENDMDL
MODEL      143
REMARK 921   NORMALIZED FREE ENERGY PREDICTED BY IDOCK:   -4.27 KCAL/MOL
REMARK 922        TOTAL FREE ENERGY PREDICTED BY IDOCK:   -6.90 KCAL/MOL
REMARK 923 INTER-LIGAND FREE ENERGY PREDICTED BY IDOCK:   -6.48 KCAL/MOL
REMARK 924 INTRA-LIGAND FREE ENERGY PREDICTED BY IDOCK:   -0.42 KCAL/MOL
REMARK 927      BINDING AFFINITY PREDICTED BY RF-SCORE:    0.00 PKD
ROOT
HETATM    1  C   UNL     1     -12.372   6.833  71.536  1.00  0.00    -0.358 C  
HETATM    2  N   UNL     1     -11.509   6.266  70.525  1.00  0.00    -0.365 NA 
HETATM    3  H   UNL     1     -11.103   5.359  70.755  1.00  0.00     0.000 HD 
ENDROOT
BRANCH   2   4
HETATM    4  C   UNL     1     -11.156   6.780  69.289  1.00  0.00    -0.239 C  
HETATM    5  C   UNL     1     -10.911   5.929  68.268  1.00  0.00    -0.240 C  
HETATM    6  O   UNL     1     -10.514   7.558  66.657  1.00  0.00    -0.269 OA 
HETATM    7  N   UNL     1     -10.557   6.353  66.935  1.00  0.00    -0.290 N  
HETATM    8  O   UNL     1     -10.321   5.437  66.133  1.00  0.00    -0.191 OA 
BRANCH   4   9
HETATM    9  N   UNL     1     -11.047   8.151  69.164  1.00  0.00    -0.424 NA 
HETATM   10  H   UNL     1     -11.648   8.571  68.455  1.00  0.00     0.000 HD 
BRANCH   9  11
HETATM   11  C   UNL     1     -10.207   9.084  69.889  1.00  0.00    -0.202 C  
BRANCH  11  12
HETATM   12  C   UNL     1     -10.769  10.503  69.755  1.00  0.00    -0.264 C  
BRANCH  12  13
HETATM   13  S   UNL     1     -10.207  11.348  68.238  1.00  0.00    -0.200 SA 
BRANCH  13  14
HETATM   14  C   UNL     1     -11.723  12.270  67.821  1.00  0.00    -0.337 C  
BRANCH  14  15
HETATM   15  C   UNL     1     -11.644  13.658  68.329  1.00  0.00    -0.339 A  
HETATM   16  C   UNL     1     -12.039  14.267  69.498  1.00  0.00    -0.376 A  
HETATM   17  C   UNL     1     -11.685  15.632  69.370  1.00  0.00    -0.395 A  
HETATM   18  C   UNL     1     -11.104  15.774  68.128  1.00  0.00    -0.341 A  
HETATM   19  O   UNL     1     -11.087  14.573  67.485  1.00  0.00    -0.288 OA 
BRANCH  18  20
HETATM   20  C   UNL     1     -10.535  16.935  67.381  1.00  0.00    -0.310 C  
BRANCH  20  21
HETATM   21  N   UNL     1     -10.257  18.105  68.237  1.00  0.00    -0.376 NA 
HETATM   22  C   UNL     1      -8.817  18.294  68.435  1.00  0.00    -0.305 C  
HETATM   23  C   UNL     1     -10.828  19.304  67.617  1.00  0.00    -0.375 C  
ENDBRANCH  20  21
ENDBRANCH  18  20
ENDBRANCH  14  15
ENDBRANCH  13  14
ENDBRANCH  12  13
ENDBRANCH  11  12
ENDBRANCH   9  11
ENDBRANCH   4   9
ENDBRANCH   2   4
TORSDOF 9
ENDMDL
MODEL      144
REMARK 921   NORMALIZED FREE ENERGY PREDICTED BY IDOCK:   -4.26 KCAL/MOL
REMARK 922        TOTAL FREE ENERGY PREDICTED BY IDOCK:   -6.89 KCAL/MOL
REMARK 923 INTER-LIGAND FREE ENERGY PREDICTED BY IDOCK:   -6.48 KCAL/MOL
REMARK 924 INTRA-LIGAND FREE ENERGY PREDICTED BY IDOCK:   -0.41 KCAL/MOL
REMARK 927      BINDING AFFINITY PREDICTED BY RF-SCORE:    0.00 PKD
ROOT
HETATM    1  C   UNL     1     -10.288   4.392  74.270  1.00  0.00    -0.245 C  
HETATM    2  N   UNL     1     -11.319   5.137  73.586  1.00  0.00    -0.429 NA 
HETATM    3  H   UNL     1     -12.144   5.357  74.145  1.00  0.00     0.000 HD 
ENDROOT
BRANCH   2   4
HETATM    4  C   UNL     1     -11.347   5.595  72.280  1.00  0.00    -0.240 C  
HETATM    5  C   UNL     1     -10.469   5.087  71.386  1.00  0.00    -0.143 C  
HETATM    6  O   UNL     1     -11.249   6.278  69.547  1.00  0.00    -0.380 OA 
HETATM    7  N   UNL     1     -10.422   5.474  69.996  1.00  0.00    -0.286 N  
HETATM    8  O   UNL     1      -9.523   4.942  69.329  1.00  0.00    -0.118 OA 
BRANCH   4   9
HETATM    9  N   UNL     1     -12.263   6.577  71.956  1.00  0.00    -0.447 NA 
HETATM   10  H   UNL     1     -13.087   6.251  71.451  1.00  0.00     0.000 HD 
BRANCH   9  11
HETATM   11  C   UNL     1     -12.231   8.000  72.226  1.00  0.00    -0.318 C  
BRANCH  11  12
HETATM   12  C   UNL     1     -10.792   8.518  72.123  1.00  0.00    -0.357 C  
BRANCH  12  13
HETATM   13  S   UNL     1     -10.476   9.427  70.573  1.00  0.00    -0.298 SA 
BRANCH  13  14
HETATM   14  C   UNL     1     -11.935  10.519  70.554  1.00  0.00    -0.342 C  
BRANCH  14  15
HETATM   15  C   UNL     1     -11.853  11.477  69.429  1.00  0.00    -0.350 A  
HETATM   16  C   UNL     1     -11.650  11.339  68.074  1.00  0.00    -0.343 A  
HETATM   17  C   UNL     1     -11.673  12.649  67.537  1.00  0.00    -0.429 A  
HETATM   18  C   UNL     1     -11.880  13.506  68.596  1.00  0.00    -0.369 A  
HETATM   19  O   UNL     1     -11.979  12.795  69.755  1.00  0.00    -0.314 OA 
BRANCH  18  20
HETATM   20  C   UNL     1     -11.991  14.990  68.717  1.00  0.00    -0.249 C  
BRANCH  20  21
HETATM   21  N   UNL     1     -10.693  15.686  68.617  1.00  0.00    -0.246 NA 
HETATM   22  C   UNL     1     -10.455  16.183  67.258  1.00  0.00    -0.309 C  
HETATM   23  C   UNL     1     -10.672  16.808  69.560  1.00  0.00    -0.273 C  
ENDBRANCH  20  21
ENDBRANCH  18  20
ENDBRANCH  14  15
ENDBRANCH  13  14
ENDBRANCH  12  13
ENDBRANCH  11  12
ENDBRANCH   9  11
ENDBRANCH   4   9
ENDBRANCH   2   4
TORSDOF 9
ENDMDL
MODEL      145
REMARK 921   NORMALIZED FREE ENERGY PREDICTED BY IDOCK:   -4.26 KCAL/MOL
REMARK 922        TOTAL FREE ENERGY PREDICTED BY IDOCK:   -6.89 KCAL/MOL
REMARK 923 INTER-LIGAND FREE ENERGY PREDICTED BY IDOCK:   -5.50 KCAL/MOL
REMARK 924 INTRA-LIGAND FREE ENERGY PREDICTED BY IDOCK:   -1.39 KCAL/MOL
REMARK 927      BINDING AFFINITY PREDICTED BY RF-SCORE:    0.00 PKD
ROOT
HETATM    1  C   UNL     1      -7.468  14.169  67.562  1.00  0.00    -0.174 C  
HETATM    2  N   UNL     1      -8.150  13.010  67.033  1.00  0.00    -0.379 NA 
HETATM    3  H   UNL     1      -8.788  13.194  66.259  1.00  0.00     0.000 HD 
ENDROOT
BRANCH   2   4
HETATM    4  C   UNL     1      -8.061  11.687  67.429  1.00  0.00    -0.153 C  
HETATM    5  C   UNL     1      -7.988  11.397  68.747  1.00  0.00    -0.122 C  
HETATM    6  O   UNL     1      -7.967   9.084  68.507  1.00  0.00    -0.101 OA 
HETATM    7  N   UNL     1      -7.914  10.055  69.273  1.00  0.00    -0.117 N  
HETATM    8  O   UNL     1      -7.805   9.975  70.506  1.00  0.00    -0.247 OA 
BRANCH   4   9
HETATM    9  N   UNL     1      -8.026  10.717  66.445  1.00  0.00    -0.137 NA 
HETATM   10  H   UNL     1      -8.874  10.157  66.359  1.00  0.00     0.000 HD 
BRANCH   9  11
HETATM   11  C   UNL     1      -6.967  10.375  65.518  1.00  0.00    -0.134 C  
BRANCH  11  12
HETATM   12  C   UNL     1      -7.568   9.824  64.220  1.00  0.00    -0.135 C  
BRANCH  12  13
HETATM   13  S   UNL     1      -9.380  10.020  64.139  1.00  0.00    -0.245 SA 
BRANCH  13  14
HETATM   14  C   UNL     1      -9.478  11.608  63.250  1.00  0.00    -0.240 C  
BRANCH  14  15
HETATM   15  C   UNL     1     -10.553  12.455  63.813  1.00  0.00    -0.452 A  
HETATM   16  C   UNL     1     -11.891  12.608  63.529  1.00  0.00    -0.619 A  
HETATM   17  C   UNL     1     -12.375  13.589  64.428  1.00  0.00    -0.391 A  
HETATM   18  C   UNL     1     -11.302  13.980  65.200  1.00  0.00    -0.328 A  
HETATM   19  O   UNL     1     -10.185  13.298  64.820  1.00  0.00    -0.342 OA 
BRANCH  18  20
HETATM   20  C   UNL     1     -11.130  14.971  66.303  1.00  0.00    -0.334 C  
BRANCH  20  21
HETATM   21  N   UNL     1     -10.879  14.348  67.618  1.00  0.00    -0.269 NA 
HETATM   22  C   UNL     1     -10.832  15.352  68.686  1.00  0.00    -0.259 C  
HETATM   23  C   UNL     1     -11.939  13.378  67.903  1.00  0.00    -0.323 C  
ENDBRANCH  20  21
ENDBRANCH  18  20
ENDBRANCH  14  15
ENDBRANCH  13  14
ENDBRANCH  12  13
ENDBRANCH  11  12
ENDBRANCH   9  11
ENDBRANCH   4   9
ENDBRANCH   2   4
TORSDOF 9
ENDMDL
MODEL      146
REMARK 921   NORMALIZED FREE ENERGY PREDICTED BY IDOCK:   -4.24 KCAL/MOL
REMARK 922        TOTAL FREE ENERGY PREDICTED BY IDOCK:   -6.86 KCAL/MOL
REMARK 923 INTER-LIGAND FREE ENERGY PREDICTED BY IDOCK:   -6.69 KCAL/MOL
REMARK 924 INTRA-LIGAND FREE ENERGY PREDICTED BY IDOCK:   -0.18 KCAL/MOL
REMARK 927      BINDING AFFINITY PREDICTED BY RF-SCORE:    0.00 PKD
ROOT
HETATM    1  C   UNL     1     -14.340   8.028  71.586  1.00  0.00    -0.473 C  
HETATM    2  N   UNL     1     -13.344   7.240  70.896  1.00  0.00    -0.576 NA 
HETATM    3  H   UNL     1     -13.625   6.882  69.983  1.00  0.00     0.000 HD 
ENDROOT
BRANCH   2   4
HETATM    4  C   UNL     1     -12.064   6.903  71.299  1.00  0.00    -0.373 C  
HETATM    5  C   UNL     1     -11.902   6.103  72.377  1.00  0.00    -0.238 C  
HETATM    6  O   UNL     1      -9.582   5.989  72.274  1.00  0.00    -0.151 OA 
HETATM    7  N   UNL     1     -10.617   5.671  72.873  1.00  0.00    -0.216 N  
HETATM    8  O   UNL     1     -10.652   4.978  73.900  1.00  0.00    -0.246 OA 
BRANCH   4   9
HETATM    9  N   UNL     1     -11.001   7.425  70.587  1.00  0.00    -0.251 NA 
HETATM   10  H   UNL     1     -10.201   6.801  70.484  1.00  0.00     0.000 HD 
BRANCH   9  11
HETATM   11  C   UNL     1     -10.852   8.725  69.965  1.00  0.00    -0.223 C  
BRANCH  11  12
HETATM   12  C   UNL     1     -10.399   8.558  68.511  1.00  0.00    -0.198 C  
BRANCH  12  13
HETATM   13  S   UNL     1      -9.777  10.109  67.779  1.00  0.00    -0.156 SA 
BRANCH  13  14
HETATM   14  C   UNL     1      -9.726   9.622  66.023  1.00  0.00    -0.264 C  
BRANCH  14  15
HETATM   15  C   UNL     1     -10.052  10.774  65.153  1.00  0.00    -0.299 A  
HETATM   16  C   UNL     1     -10.399  10.896  63.827  1.00  0.00    -0.384 A  
HETATM   17  C   UNL     1     -10.578  12.282  63.593  1.00  0.00    -0.501 A  
HETATM   18  C   UNL     1     -10.321  12.920  64.788  1.00  0.00    -0.323 A  
HETATM   19  O   UNL     1      -9.989  12.003  65.740  1.00  0.00    -0.232 OA 
BRANCH  18  20
HETATM   20  C   UNL     1     -10.318  14.350  65.215  1.00  0.00    -0.403 C  
BRANCH  20  21
HETATM   21  N   UNL     1     -11.548  14.753  65.926  1.00  0.00    -0.326 NA 
HETATM   22  C   UNL     1     -12.680  13.893  65.567  1.00  0.00    -0.499 C  
HETATM   23  C   UNL     1     -11.317  14.682  67.371  1.00  0.00    -0.356 C  
ENDBRANCH  20  21
ENDBRANCH  18  20
ENDBRANCH  14  15
ENDBRANCH  13  14
ENDBRANCH  12  13
ENDBRANCH  11  12
ENDBRANCH   9  11
ENDBRANCH   4   9
ENDBRANCH   2   4
TORSDOF 9
ENDMDL
MODEL      147
REMARK 921   NORMALIZED FREE ENERGY PREDICTED BY IDOCK:   -4.24 KCAL/MOL
REMARK 922        TOTAL FREE ENERGY PREDICTED BY IDOCK:   -6.85 KCAL/MOL
REMARK 923 INTER-LIGAND FREE ENERGY PREDICTED BY IDOCK:   -6.19 KCAL/MOL
REMARK 924 INTRA-LIGAND FREE ENERGY PREDICTED BY IDOCK:   -0.67 KCAL/MOL
REMARK 927      BINDING AFFINITY PREDICTED BY RF-SCORE:    0.00 PKD
ROOT
HETATM    1  C   UNL     1     -11.086   6.559  67.182  1.00  0.00    -0.360 C  
HETATM    2  N   UNL     1     -11.270   6.470  68.613  1.00  0.00    -0.551 NA 
HETATM    3  H   UNL     1     -11.777   5.648  68.939  1.00  0.00     0.000 HD 
ENDROOT
BRANCH   2   4
HETATM    4  C   UNL     1     -10.854   7.343  69.604  1.00  0.00    -0.210 C  
HETATM    5  C   UNL     1     -11.603   7.476  70.721  1.00  0.00    -0.277 C  
HETATM    6  O   UNL     1     -10.194   8.974  71.806  1.00  0.00    -0.328 OA 
HETATM    7  N   UNL     1     -11.256   8.338  71.824  1.00  0.00    -0.266 N  
HETATM    8  O   UNL     1     -12.081   8.373  72.750  1.00  0.00    -0.354 OA 
BRANCH   4   9
HETATM    9  N   UNL     1      -9.695   8.064  69.388  1.00  0.00    -0.168 NA 
HETATM   10  H   UNL     1      -9.818   9.074  69.327  1.00  0.00     0.000 HD 
BRANCH   9  11
HETATM   11  C   UNL     1      -8.331   7.600  69.236  1.00  0.00    -0.134 C  
BRANCH  11  12
HETATM   12  C   UNL     1      -7.777   8.047  67.879  1.00  0.00    -0.114 C  
BRANCH  12  13
HETATM   13  S   UNL     1      -8.582   9.557  67.247  1.00  0.00    -0.128 SA 
BRANCH  13  14
HETATM   14  C   UNL     1      -8.892   9.043  65.526  1.00  0.00    -0.194 C  
BRANCH  14  15
HETATM   15  C   UNL     1      -9.374  10.186  64.720  1.00  0.00    -0.268 A  
HETATM   16  C   UNL     1      -9.600  10.374  63.375  1.00  0.00    -0.361 A  
HETATM   17  C   UNL     1     -10.058  11.707  63.235  1.00  0.00    -0.454 A  
HETATM   18  C   UNL     1     -10.077  12.252  64.501  1.00  0.00    -0.254 A  
HETATM   19  O   UNL     1      -9.649  11.330  65.409  1.00  0.00    -0.216 OA 
BRANCH  18  20
HETATM   20  C   UNL     1     -10.438  13.596  65.041  1.00  0.00    -0.391 C  
BRANCH  20  21
HETATM   21  N   UNL     1     -11.884  13.759  65.291  1.00  0.00    -0.337 NA 
HETATM   22  C   UNL     1     -12.151  14.079  66.697  1.00  0.00    -0.456 C  
HETATM   23  C   UNL     1     -12.404  14.830  64.437  1.00  0.00    -0.368 C  
ENDBRANCH  20  21
ENDBRANCH  18  20
ENDBRANCH  14  15
ENDBRANCH  13  14
ENDBRANCH  12  13
ENDBRANCH  11  12
ENDBRANCH   9  11
ENDBRANCH   4   9
ENDBRANCH   2   4
TORSDOF 9
ENDMDL
MODEL      148
REMARK 921   NORMALIZED FREE ENERGY PREDICTED BY IDOCK:   -4.22 KCAL/MOL
REMARK 922        TOTAL FREE ENERGY PREDICTED BY IDOCK:   -6.83 KCAL/MOL
REMARK 923 INTER-LIGAND FREE ENERGY PREDICTED BY IDOCK:   -6.33 KCAL/MOL
REMARK 924 INTRA-LIGAND FREE ENERGY PREDICTED BY IDOCK:   -0.50 KCAL/MOL
REMARK 927      BINDING AFFINITY PREDICTED BY RF-SCORE:    0.00 PKD
ROOT
HETATM    1  C   UNL     1      -8.751  14.239  67.628  1.00  0.00    -0.191 C  
HETATM    2  N   UNL     1      -9.049  13.919  66.250  1.00  0.00    -0.486 NA 
HETATM    3  H   UNL     1      -8.246  13.664  65.676  1.00  0.00     0.000 HD 
ENDROOT
BRANCH   2   4
HETATM    4  C   UNL     1     -10.271  13.911  65.599  1.00  0.00    -0.328 C  
HETATM    5  C   UNL     1     -10.704  15.041  64.997  1.00  0.00    -0.427 C  
HETATM    6  O   UNL     1     -12.666  14.142  64.131  1.00  0.00    -0.656 OA 
HETATM    7  N   UNL     1     -11.949  15.141  64.273  1.00  0.00    -0.365 N  
HETATM    8  O   UNL     1     -12.211  16.266  63.824  1.00  0.00    -0.923 OA 
BRANCH   4   9
HETATM    9  N   UNL     1     -11.008  12.742  65.618  1.00  0.00    -0.269 NA 
HETATM   10  H   UNL     1     -11.965  12.828  65.276  1.00  0.00     0.000 HD 
BRANCH   9  11
HETATM   11  C   UNL     1     -10.626  11.413  66.049  1.00  0.00    -0.266 C  
BRANCH  11  12
HETATM   12  C   UNL     1      -9.975  10.654  64.887  1.00  0.00    -0.318 C  
BRANCH  12  13
HETATM   13  S   UNL     1      -8.674   9.498  65.435  1.00  0.00    -0.176 SA 
BRANCH  13  14
HETATM   14  C   UNL     1      -9.464   8.838  66.939  1.00  0.00    -0.177 C  
BRANCH  14  15
HETATM   15  C   UNL     1      -9.843   7.420  66.749  1.00  0.00    -0.220 A  
HETATM   16  C   UNL     1     -10.947   6.676  67.097  1.00  0.00    -0.478 A  
HETATM   17  C   UNL     1     -10.699   5.362  66.631  1.00  0.00    -0.309 A  
HETATM   18  C   UNL     1      -9.456   5.383  66.035  1.00  0.00    -0.146 A  
HETATM   19  O   UNL     1      -8.926   6.636  66.115  1.00  0.00    -0.153 OA 
BRANCH  18  20
HETATM   20  C   UNL     1      -8.613   4.347  65.370  1.00  0.00    -0.122 C  
BRANCH  20  21
HETATM   21  N   UNL     1      -8.446   4.568  63.920  1.00  0.00    -0.116 NA 
HETATM   22  C   UNL     1      -7.205   3.963  63.425  1.00  0.00    -0.050 C  
HETATM   23  C   UNL     1      -9.589   3.992  63.208  1.00  0.00    -0.149 C  
ENDBRANCH  20  21
ENDBRANCH  18  20
ENDBRANCH  14  15
ENDBRANCH  13  14
ENDBRANCH  12  13
ENDBRANCH  11  12
ENDBRANCH   9  11
ENDBRANCH   4   9
ENDBRANCH   2   4
TORSDOF 9
ENDMDL
MODEL      149
REMARK 921   NORMALIZED FREE ENERGY PREDICTED BY IDOCK:   -4.22 KCAL/MOL
REMARK 922        TOTAL FREE ENERGY PREDICTED BY IDOCK:   -6.82 KCAL/MOL
REMARK 923 INTER-LIGAND FREE ENERGY PREDICTED BY IDOCK:   -6.32 KCAL/MOL
REMARK 924 INTRA-LIGAND FREE ENERGY PREDICTED BY IDOCK:   -0.50 KCAL/MOL
REMARK 927      BINDING AFFINITY PREDICTED BY RF-SCORE:    0.00 PKD
ROOT
HETATM    1  C   UNL     1     -11.478  14.759  69.680  1.00  0.00    -0.292 C  
HETATM    2  N   UNL     1     -12.162  14.340  68.478  1.00  0.00    -0.577 NA 
HETATM    3  H   UNL     1     -13.143  14.089  68.597  1.00  0.00     0.000 HD 
ENDROOT
BRANCH   2   4
HETATM    4  C   UNL     1     -11.673  14.233  67.187  1.00  0.00    -0.404 C  
HETATM    5  C   UNL     1     -11.507  15.354  66.450  1.00  0.00     0.001 C  
HETATM    6  O   UNL     1     -10.611  14.306  64.577  1.00  0.00    -0.388 OA 
HETATM    7  N   UNL     1     -10.986  15.362  65.104  1.00  0.00    -0.399 N  
HETATM    8  O   UNL     1     -10.945  16.475  64.559  1.00  0.00    -0.827 OA 
BRANCH   4   9
HETATM    9  N   UNL     1     -11.398  12.969  66.701  1.00  0.00    -0.311 NA 
HETATM   10  H   UNL     1     -11.957  12.683  65.897  1.00  0.00     0.000 HD 
BRANCH   9  11
HETATM   11  C   UNL     1     -10.436  11.988  67.161  1.00  0.00    -0.220 C  
BRANCH  11  12
HETATM   12  C   UNL     1     -11.166  10.807  67.811  1.00  0.00    -0.316 C  
BRANCH  12  13
HETATM   13  S   UNL     1     -10.534   9.189  67.252  1.00  0.00    -0.236 SA 
BRANCH  13  14
HETATM   14  C   UNL     1      -9.248   8.910  68.514  1.00  0.00    -0.137 C  
BRANCH  14  15
HETATM   15  C   UNL     1      -9.862   8.580  69.819  1.00  0.00    -0.186 A  
HETATM   16  C   UNL     1     -10.127   9.309  70.956  1.00  0.00    -0.373 A  
HETATM   17  C   UNL     1     -10.727   8.408  71.870  1.00  0.00    -0.373 A  
HETATM   18  C   UNL     1     -10.783   7.185  71.238  1.00  0.00    -0.226 A  
HETATM   19  O   UNL     1     -10.246   7.283  69.989  1.00  0.00    -0.195 OA 
BRANCH  18  20
HETATM   20  C   UNL     1     -11.277   5.835  71.642  1.00  0.00    -0.192 C  
BRANCH  20  21
HETATM   21  N   UNL     1     -10.316   5.083  72.474  1.00  0.00    -0.196 NA 
HETATM   22  C   UNL     1     -10.924   4.650  73.736  1.00  0.00    -0.295 C  
HETATM   23  C   UNL     1      -9.844   3.913  71.729  1.00  0.00    -0.179 C  
ENDBRANCH  20  21
ENDBRANCH  18  20
ENDBRANCH  14  15
ENDBRANCH  13  14
ENDBRANCH  12  13
ENDBRANCH  11  12
ENDBRANCH   9  11
ENDBRANCH   4   9
ENDBRANCH   2   4
TORSDOF 9
ENDMDL
MODEL      150
REMARK 921   NORMALIZED FREE ENERGY PREDICTED BY IDOCK:   -4.20 KCAL/MOL
REMARK 922        TOTAL FREE ENERGY PREDICTED BY IDOCK:   -6.80 KCAL/MOL
REMARK 923 INTER-LIGAND FREE ENERGY PREDICTED BY IDOCK:   -6.07 KCAL/MOL
REMARK 924 INTRA-LIGAND FREE ENERGY PREDICTED BY IDOCK:   -0.73 KCAL/MOL
REMARK 927      BINDING AFFINITY PREDICTED BY RF-SCORE:    0.00 PKD
ROOT
HETATM    1  C   UNL     1      -9.182  14.869  68.079  1.00  0.00    -0.185 C  
HETATM    2  N   UNL     1     -10.618  14.820  67.929  1.00  0.00    -0.246 NA 
HETATM    3  H   UNL     1     -11.144  15.454  68.531  1.00  0.00     0.000 HD 
ENDROOT
BRANCH   2   4
HETATM    4  C   UNL     1     -11.382  14.033  67.084  1.00  0.00    -0.331 C  
HETATM    5  C   UNL     1     -11.634  14.467  65.828  1.00  0.00    -0.353 C  
HETATM    6  O   UNL     1     -12.823  12.593  65.136  1.00  0.00    -0.721 OA 
HETATM    7  N   UNL     1     -12.398  13.721  64.857  1.00  0.00    -0.405 N  
HETATM    8  O   UNL     1     -12.570  14.290  63.769  1.00  0.00    -0.821 OA 
BRANCH   4   9
HETATM    9  N   UNL     1     -11.876  12.841  67.578  1.00  0.00    -0.363 NA 
HETATM   10  H   UNL     1     -12.324  12.238  66.887  1.00  0.00     0.000 HD 
BRANCH   9  11
HETATM   11  C   UNL     1     -11.855  12.318  68.929  1.00  0.00    -0.303 C  
BRANCH  11  12
HETATM   12  C   UNL     1     -11.744  10.790  68.895  1.00  0.00    -0.267 C  
BRANCH  12  13
HETATM   13  S   UNL     1     -11.053  10.095  70.433  1.00  0.00    -0.329 SA 
BRANCH  13  14
HETATM   14  C   UNL     1     -10.923   8.343  69.947  1.00  0.00    -0.166 C  
BRANCH  14  15
HETATM   15  C   UNL     1     -10.279   8.217  68.621  1.00  0.00    -0.207 A  
HETATM   16  C   UNL     1     -10.650   7.622  67.436  1.00  0.00    -0.356 A  
HETATM   17  C   UNL     1      -9.584   7.847  66.532  1.00  0.00    -0.281 A  
HETATM   18  C   UNL     1      -8.626   8.559  67.221  1.00  0.00    -0.123 A  
HETATM   19  O   UNL     1      -9.042   8.777  68.501  1.00  0.00    -0.138 OA 
BRANCH  18  20
HETATM   20  C   UNL     1      -7.279   9.093  66.862  1.00  0.00    -0.086 C  
BRANCH  20  21
HETATM   21  N   UNL     1      -7.334  10.316  66.037  1.00  0.00    -0.122 NA 
HETATM   22  C   UNL     1      -7.310  11.525  66.868  1.00  0.00    -0.140 C  
HETATM   23  C   UNL     1      -6.193  10.331  65.118  1.00  0.00    -0.127 C  
ENDBRANCH  20  21
ENDBRANCH  18  20
ENDBRANCH  14  15
ENDBRANCH  13  14
ENDBRANCH  12  13
ENDBRANCH  11  12
ENDBRANCH   9  11
ENDBRANCH   4   9
ENDBRANCH   2   4
TORSDOF 9
ENDMDL
MODEL      151
REMARK 921   NORMALIZED FREE ENERGY PREDICTED BY IDOCK:   -4.19 KCAL/MOL
REMARK 922        TOTAL FREE ENERGY PREDICTED BY IDOCK:   -6.79 KCAL/MOL
REMARK 923 INTER-LIGAND FREE ENERGY PREDICTED BY IDOCK:   -6.23 KCAL/MOL
REMARK 924 INTRA-LIGAND FREE ENERGY PREDICTED BY IDOCK:   -0.56 KCAL/MOL
REMARK 927      BINDING AFFINITY PREDICTED BY RF-SCORE:    0.00 PKD
ROOT
HETATM    1  C   UNL     1     -12.005  15.734  70.176  1.00  0.00    -0.347 C  
HETATM    2  N   UNL     1     -11.170  15.135  69.161  1.00  0.00    -0.261 NA 
HETATM    3  H   UNL     1     -10.229  15.519  69.085  1.00  0.00     0.000 HD 
ENDROOT
BRANCH   2   4
HETATM    4  C   UNL     1     -11.468  14.113  68.275  1.00  0.00    -0.304 C  
HETATM    5  C   UNL     1     -12.011  14.418  67.076  1.00  0.00    -0.395 C  
HETATM    6  O   UNL     1     -12.081  12.242  66.258  1.00  0.00    -0.626 OA 
HETATM    7  N   UNL     1     -12.340  13.438  66.069  1.00  0.00    -0.429 N  
HETATM    8  O   UNL     1     -12.875  13.890  65.045  1.00  0.00    -0.693 OA 
BRANCH   4   9
HETATM    9  N   UNL     1     -11.215  12.814  68.675  1.00  0.00    -0.263 NA 
HETATM   10  H   UNL     1     -10.544  12.306  68.099  1.00  0.00     0.000 HD 
BRANCH   9  11
HETATM   11  C   UNL     1     -11.760  12.065  69.789  1.00  0.00    -0.319 C  
BRANCH  11  12
HETATM   12  C   UNL     1     -11.382  10.586  69.658  1.00  0.00    -0.281 C  
BRANCH  12  13
HETATM   13  S   UNL     1     -11.498   9.681  71.238  1.00  0.00    -0.395 SA 
BRANCH  13  14
HETATM   14  C   UNL     1     -10.131   8.496  71.014  1.00  0.00    -0.205 C  
BRANCH  14  15
HETATM   15  C   UNL     1     -10.428   7.564  69.904  1.00  0.00    -0.229 A  
HETATM   16  C   UNL     1     -11.296   6.506  69.755  1.00  0.00    -0.456 A  
HETATM   17  C   UNL     1     -11.096   6.013  68.443  1.00  0.00    -0.271 A  
HETATM   18  C   UNL     1     -10.113   6.794  67.874  1.00  0.00    -0.159 A  
HETATM   19  O   UNL     1      -9.695   7.736  68.767  1.00  0.00    -0.153 OA 
BRANCH  18  20
HETATM   20  C   UNL     1      -9.438   6.797  66.543  1.00  0.00    -0.150 C  
BRANCH  20  21
HETATM   21  N   UNL     1      -8.164   6.052  66.529  1.00  0.00    -0.106 NA 
HETATM   22  C   UNL     1      -8.384   4.617  66.320  1.00  0.00    -0.110 C  
HETATM   23  C   UNL     1      -7.308   6.577  65.462  1.00  0.00    -0.076 C  
ENDBRANCH  20  21
ENDBRANCH  18  20
ENDBRANCH  14  15
ENDBRANCH  13  14
ENDBRANCH  12  13
ENDBRANCH  11  12
ENDBRANCH   9  11
ENDBRANCH   4   9
ENDBRANCH   2   4
TORSDOF 9
ENDMDL
MODEL      152
REMARK 921   NORMALIZED FREE ENERGY PREDICTED BY IDOCK:   -4.19 KCAL/MOL
REMARK 922        TOTAL FREE ENERGY PREDICTED BY IDOCK:   -6.78 KCAL/MOL
REMARK 923 INTER-LIGAND FREE ENERGY PREDICTED BY IDOCK:   -5.93 KCAL/MOL
REMARK 924 INTRA-LIGAND FREE ENERGY PREDICTED BY IDOCK:   -0.86 KCAL/MOL
REMARK 927      BINDING AFFINITY PREDICTED BY RF-SCORE:    0.00 PKD
ROOT
HETATM    1  C   UNL     1     -12.957  10.772  70.412  1.00  0.00    -0.129 C  
HETATM    2  N   UNL     1     -12.193  10.376  69.250  1.00  0.00    -0.653 NA 
HETATM    3  H   UNL     1     -12.738  10.203  68.406  1.00  0.00     0.000 HD 
ENDROOT
BRANCH   2   4
HETATM    4  C   UNL     1     -10.826  10.199  69.122  1.00  0.00    -0.226 C  
HETATM    5  C   UNL     1     -10.112   9.789  70.193  1.00  0.00    -0.265 C  
HETATM    6  O   UNL     1      -8.057   9.672  69.110  1.00  0.00    -0.093 OA 
HETATM    7  N   UNL     1      -8.689   9.552  70.168  1.00  0.00    -0.215 N  
HETATM    8  O   UNL     1      -8.187   9.224  71.254  1.00  0.00    -0.324 OA 
BRANCH   4   9
HETATM    9  N   UNL     1     -10.249  10.477  67.898  1.00  0.00    -0.175 NA 
HETATM   10  H   UNL     1      -9.540  11.211  67.909  1.00  0.00     0.000 HD 
BRANCH   9  11
HETATM   11  C   UNL     1     -10.497   9.883  66.599  1.00  0.00    -0.169 C  
BRANCH  11  12
HETATM   12  C   UNL     1      -9.624  10.564  65.539  1.00  0.00    -0.230 C  
BRANCH  12  13
HETATM   13  S   UNL     1     -10.576  11.109  64.081  1.00  0.00    -0.326 SA 
BRANCH  13  14
HETATM   14  C   UNL     1     -11.721  12.280  64.882  1.00  0.00    -0.352 C  
BRANCH  14  15
HETATM   15  C   UNL     1     -10.976  13.409  65.482  1.00  0.00    -0.283 A  
HETATM   16  C   UNL     1     -10.197  14.417  64.961  1.00  0.00    -0.406 A  
HETATM   17  C   UNL     1      -9.757  15.185  66.067  1.00  0.00    -0.361 A  
HETATM   18  C   UNL     1     -10.287  14.594  67.194  1.00  0.00    -0.265 A  
HETATM   19  O   UNL     1     -11.023  13.503  66.841  1.00  0.00    -0.283 OA 
BRANCH  18  20
HETATM   20  C   UNL     1     -10.200  14.891  68.654  1.00  0.00    -0.236 C  
BRANCH  20  21
HETATM   21  N   UNL     1     -11.142  15.938  69.097  1.00  0.00    -0.279 NA 
HETATM   22  C   UNL     1     -11.276  15.955  70.558  1.00  0.00    -0.377 C  
HETATM   23  C   UNL     1     -10.668  17.244  68.633  1.00  0.00    -0.280 C  
ENDBRANCH  20  21
ENDBRANCH  18  20
ENDBRANCH  14  15
ENDBRANCH  13  14
ENDBRANCH  12  13
ENDBRANCH  11  12
ENDBRANCH   9  11
ENDBRANCH   4   9
ENDBRANCH   2   4
TORSDOF 9
ENDMDL
MODEL      153
REMARK 921   NORMALIZED FREE ENERGY PREDICTED BY IDOCK:   -4.19 KCAL/MOL
REMARK 922        TOTAL FREE ENERGY PREDICTED BY IDOCK:   -6.78 KCAL/MOL
REMARK 923 INTER-LIGAND FREE ENERGY PREDICTED BY IDOCK:   -5.95 KCAL/MOL
REMARK 924 INTRA-LIGAND FREE ENERGY PREDICTED BY IDOCK:   -0.83 KCAL/MOL
REMARK 927      BINDING AFFINITY PREDICTED BY RF-SCORE:    0.00 PKD
ROOT
HETATM    1  C   UNL     1      -5.993  20.530  64.159  1.00  0.00    -0.289 C  
HETATM    2  N   UNL     1      -6.666  19.400  64.758  1.00  0.00    -0.385 NA 
HETATM    3  H   UNL     1      -7.391  18.967  64.185  1.00  0.00     0.000 HD 
ENDROOT
BRANCH   2   4
HETATM    4  C   UNL     1      -6.467  18.822  66.000  1.00  0.00    -0.222 C  
HETATM    5  C   UNL     1      -6.037  17.542  66.069  1.00  0.00    -0.156 C  
HETATM    6  O   UNL     1      -5.892  17.439  68.388  1.00  0.00    -0.150 OA 
HETATM    7  N   UNL     1      -5.776  16.847  67.307  1.00  0.00    -0.145 N  
HETATM    8  O   UNL     1      -5.432  15.661  67.186  1.00  0.00    -0.332 OA 
BRANCH   4   9
HETATM    9  N   UNL     1      -6.742  19.581  67.121  1.00  0.00    -0.195 NA 
HETATM   10  H   UNL     1      -5.955  19.722  67.753  1.00  0.00     0.000 HD 
BRANCH   9  11
HETATM   11  C   UNL     1      -7.982  20.209  67.533  1.00  0.00    -0.317 C  
BRANCH  11  12
HETATM   12  C   UNL     1      -8.950  19.148  68.067  1.00  0.00    -0.312 C  
BRANCH  12  13
HETATM   13  S   UNL     1     -10.232  18.684  66.855  1.00  0.00    -0.409 SA 
BRANCH  13  14
HETATM   14  C   UNL     1      -9.770  16.943  66.571  1.00  0.00    -0.281 C  
BRANCH  14  15
HETATM   15  C   UNL     1     -10.599  16.042  67.403  1.00  0.00    -0.316 A  
HETATM   16  C   UNL     1     -11.239  16.186  68.613  1.00  0.00    -0.369 A  
HETATM   17  C   UNL     1     -11.866  14.944  68.876  1.00  0.00    -0.334 A  
HETATM   18  C   UNL     1     -11.565  14.117  67.816  1.00  0.00    -0.347 A  
HETATM   19  O   UNL     1     -10.782  14.781  66.919  1.00  0.00    -0.296 OA 
BRANCH  18  20
HETATM   20  C   UNL     1     -11.896  12.700  67.484  1.00  0.00    -0.334 C  
BRANCH  20  21
HETATM   21  N   UNL     1     -10.921  11.728  68.018  1.00  0.00    -0.212 NA 
HETATM   22  C   UNL     1     -11.295  11.277  69.362  1.00  0.00    -0.292 C  
HETATM   23  C   UNL     1     -10.846  10.575  67.118  1.00  0.00    -0.259 C  
ENDBRANCH  20  21
ENDBRANCH  18  20
ENDBRANCH  14  15
ENDBRANCH  13  14
ENDBRANCH  12  13
ENDBRANCH  11  12
ENDBRANCH   9  11
ENDBRANCH   4   9
ENDBRANCH   2   4
TORSDOF 9
ENDMDL
MODEL      154
REMARK 921   NORMALIZED FREE ENERGY PREDICTED BY IDOCK:   -4.17 KCAL/MOL
REMARK 922        TOTAL FREE ENERGY PREDICTED BY IDOCK:   -6.75 KCAL/MOL
REMARK 923 INTER-LIGAND FREE ENERGY PREDICTED BY IDOCK:   -6.28 KCAL/MOL
REMARK 924 INTRA-LIGAND FREE ENERGY PREDICTED BY IDOCK:   -0.48 KCAL/MOL
REMARK 927      BINDING AFFINITY PREDICTED BY RF-SCORE:    0.00 PKD
ROOT
HETATM    1  C   UNL     1      -6.544  20.669  65.713  1.00  0.00    -0.202 C  
HETATM    2  N   UNL     1      -7.067  19.326  65.819  1.00  0.00    -0.309 NA 
HETATM    3  H   UNL     1      -6.480  18.595  65.419  1.00  0.00     0.000 HD 
ENDROOT
BRANCH   2   4
HETATM    4  C   UNL     1      -8.254  18.893  66.386  1.00  0.00    -0.294 C  
HETATM    5  C   UNL     1      -8.868  19.671  67.305  1.00  0.00    -0.318 C  
HETATM    6  O   UNL     1     -10.716  18.296  67.621  1.00  0.00    -0.419 OA 
HETATM    7  N   UNL     1     -10.116  19.330  67.943  1.00  0.00    -0.371 N  
HETATM    8  O   UNL     1     -10.513  20.138  68.796  1.00  0.00    -0.353 OA 
BRANCH   4   9
HETATM    9  N   UNL     1      -8.745  17.661  65.999  1.00  0.00    -0.523 NA 
HETATM   10  H   UNL     1      -9.605  17.690  65.451  1.00  0.00     0.000 HD 
BRANCH   9  11
HETATM   11  C   UNL     1      -8.223  16.333  66.253  1.00  0.00    -0.277 C  
BRANCH  11  12
HETATM   12  C   UNL     1      -7.389  16.339  67.539  1.00  0.00    -0.151 C  
BRANCH  12  13
HETATM   13  S   UNL     1      -7.697  14.880  68.590  1.00  0.00    -0.135 SA 
BRANCH  13  14
HETATM   14  C   UNL     1      -9.433  15.194  69.050  1.00  0.00    -0.221 C  
BRANCH  14  15
HETATM   15  C   UNL     1     -10.327  14.198  68.419  1.00  0.00    -0.249 A  
HETATM   16  C   UNL     1     -11.634  13.822  68.633  1.00  0.00    -0.369 A  
HETATM   17  C   UNL     1     -11.908  12.799  67.694  1.00  0.00    -0.396 A  
HETATM   18  C   UNL     1     -10.751  12.608  66.970  1.00  0.00    -0.245 A  
HETATM   19  O   UNL     1      -9.780  13.453  67.417  1.00  0.00    -0.213 OA 
BRANCH  18  20
HETATM   20  C   UNL     1     -10.368  11.687  65.859  1.00  0.00    -0.248 C  
BRANCH  20  21
HETATM   21  N   UNL     1     -10.700  12.212  64.520  1.00  0.00    -0.292 NA 
HETATM   22  C   UNL     1     -12.118  12.012  64.203  1.00  0.00    -0.362 C  
HETATM   23  C   UNL     1     -10.384  13.642  64.469  1.00  0.00    -0.330 C  
ENDBRANCH  20  21
ENDBRANCH  18  20
ENDBRANCH  14  15
ENDBRANCH  13  14
ENDBRANCH  12  13
ENDBRANCH  11  12
ENDBRANCH   9  11
ENDBRANCH   4   9
ENDBRANCH   2   4
TORSDOF 9
ENDMDL
MODEL      155
REMARK 921   NORMALIZED FREE ENERGY PREDICTED BY IDOCK:   -4.16 KCAL/MOL
REMARK 922        TOTAL FREE ENERGY PREDICTED BY IDOCK:   -6.74 KCAL/MOL
REMARK 923 INTER-LIGAND FREE ENERGY PREDICTED BY IDOCK:   -6.51 KCAL/MOL
REMARK 924 INTRA-LIGAND FREE ENERGY PREDICTED BY IDOCK:   -0.23 KCAL/MOL
REMARK 927      BINDING AFFINITY PREDICTED BY RF-SCORE:    0.00 PKD
ROOT
HETATM    1  C   UNL     1      -8.541  14.477  67.462  1.00  0.00    -0.189 C  
HETATM    2  N   UNL     1      -9.120  13.807  66.320  1.00  0.00    -0.485 NA 
HETATM    3  H   UNL     1      -8.493  13.179  65.817  1.00  0.00     0.000 HD 
ENDROOT
BRANCH   2   4
HETATM    4  C   UNL     1     -10.405  13.897  65.812  1.00  0.00    -0.316 C  
HETATM    5  C   UNL     1     -10.721  14.930  65.000  1.00  0.00    -0.431 C  
HETATM    6  O   UNL     1     -12.908  14.267  64.572  1.00  0.00    -0.637 OA 
HETATM    7  N   UNL     1     -12.020  15.111  64.398  1.00  0.00    -0.390 N  
HETATM    8  O   UNL     1     -12.149  16.140  63.717  1.00  0.00    -0.946 OA 
BRANCH   4   9
HETATM    9  N   UNL     1     -11.318  12.930  66.185  1.00  0.00    -0.303 NA 
HETATM   10  H   UNL     1     -11.991  12.668  65.464  1.00  0.00     0.000 HD 
BRANCH   9  11
HETATM   11  C   UNL     1     -11.465  12.230  67.446  1.00  0.00    -0.352 C  
BRANCH  11  12
HETATM   12  C   UNL     1     -10.890  10.815  67.327  1.00  0.00    -0.288 C  
BRANCH  12  13
HETATM   13  S   UNL     1      -9.445  10.544  68.407  1.00  0.00    -0.164 SA 
BRANCH  13  14
HETATM   14  C   UNL     1     -10.224   9.542  69.716  1.00  0.00    -0.228 C  
BRANCH  14  15
HETATM   15  C   UNL     1     -10.419   8.149  69.258  1.00  0.00    -0.214 A  
HETATM   16  C   UNL     1     -10.851   7.587  68.078  1.00  0.00    -0.097 A  
HETATM   17  C   UNL     1     -10.822   6.185  68.275  1.00  0.00    -0.387 A  
HETATM   18  C   UNL     1     -10.383   5.977  69.565  1.00  0.00    -0.233 A  
HETATM   19  O   UNL     1     -10.146   7.175  70.172  1.00  0.00    -0.186 OA 
BRANCH  18  20
HETATM   20  C   UNL     1     -10.146   4.757  70.391  1.00  0.00    -0.231 C  
BRANCH  20  21
HETATM   21  N   UNL     1      -9.667   5.056  71.756  1.00  0.00    -0.157 NA 
HETATM   22  C   UNL     1     -10.156   4.068  72.723  1.00  0.00    -0.159 C  
HETATM   23  C   UNL     1      -8.202   5.065  71.763  1.00  0.00    -0.116 C  
ENDBRANCH  20  21
ENDBRANCH  18  20
ENDBRANCH  14  15
ENDBRANCH  13  14
ENDBRANCH  12  13
ENDBRANCH  11  12
ENDBRANCH   9  11
ENDBRANCH   4   9
ENDBRANCH   2   4
TORSDOF 9
ENDMDL
MODEL      156
REMARK 921   NORMALIZED FREE ENERGY PREDICTED BY IDOCK:   -4.16 KCAL/MOL
REMARK 922        TOTAL FREE ENERGY PREDICTED BY IDOCK:   -6.74 KCAL/MOL
REMARK 923 INTER-LIGAND FREE ENERGY PREDICTED BY IDOCK:   -6.30 KCAL/MOL
REMARK 924 INTRA-LIGAND FREE ENERGY PREDICTED BY IDOCK:   -0.44 KCAL/MOL
REMARK 927      BINDING AFFINITY PREDICTED BY RF-SCORE:    0.00 PKD
ROOT
HETATM    1  C   UNL     1     -12.000  13.721  64.138  1.00  0.00    -0.432 C  
HETATM    2  N   UNL     1     -12.059  12.389  64.696  1.00  0.00    -0.414 NA 
HETATM    3  H   UNL     1     -12.992  12.059  64.943  1.00  0.00     0.000 HD 
ENDROOT
BRANCH   2   4
HETATM    4  C   UNL     1     -11.029  11.498  64.944  1.00  0.00    -0.254 C  
HETATM    5  C   UNL     1     -10.429  10.878  63.904  1.00  0.00    -0.289 C  
HETATM    6  O   UNL     1      -8.854   9.719  65.161  1.00  0.00    -0.156 OA 
HETATM    7  N   UNL     1      -9.334   9.950  64.043  1.00  0.00    -0.264 N  
HETATM    8  O   UNL     1      -8.935   9.439  62.986  1.00  0.00    -0.237 OA 
BRANCH   4   9
HETATM    9  N   UNL     1     -10.676  11.265  66.260  1.00  0.00    -0.268 NA 
HETATM   10  H   UNL     1     -11.015  10.386  66.650  1.00  0.00     0.000 HD 
BRANCH   9  11
HETATM   11  C   UNL     1      -9.897  12.081  67.169  1.00  0.00    -0.196 C  
BRANCH  11  12
HETATM   12  C   UNL     1     -10.152  11.639  68.614  1.00  0.00    -0.198 C  
BRANCH  12  13
HETATM   13  S   UNL     1     -11.895  11.199  68.924  1.00  0.00    -0.295 SA 
BRANCH  13  14
HETATM   14  C   UNL     1     -12.060  11.789  70.641  1.00  0.00    -0.311 C  
BRANCH  14  15
HETATM   15  C   UNL     1     -12.342  13.241  70.667  1.00  0.00    -0.339 A  
HETATM   16  C   UNL     1     -13.160  14.038  71.435  1.00  0.00    -0.423 A  
HETATM   17  C   UNL     1     -12.985  15.359  70.958  1.00  0.00    -0.556 A  
HETATM   18  C   UNL     1     -12.077  15.287  69.923  1.00  0.00    -0.343 A  
HETATM   19  O   UNL     1     -11.690  13.994  69.736  1.00  0.00    -0.280 OA 
BRANCH  18  20
HETATM   20  C   UNL     1     -11.479  16.298  69.001  1.00  0.00    -0.268 C  
BRANCH  20  21
HETATM   21  N   UNL     1     -10.355  15.772  68.203  1.00  0.00    -0.237 NA 
HETATM   22  C   UNL     1     -10.647  15.824  66.767  1.00  0.00    -0.309 C  
HETATM   23  C   UNL     1      -9.151  16.557  68.487  1.00  0.00    -0.231 C  
ENDBRANCH  20  21
ENDBRANCH  18  20
ENDBRANCH  14  15
ENDBRANCH  13  14
ENDBRANCH  12  13
ENDBRANCH  11  12
ENDBRANCH   9  11
ENDBRANCH   4   9
ENDBRANCH   2   4
TORSDOF 9
ENDMDL
MODEL      157
REMARK 921   NORMALIZED FREE ENERGY PREDICTED BY IDOCK:   -4.15 KCAL/MOL
REMARK 922        TOTAL FREE ENERGY PREDICTED BY IDOCK:   -6.72 KCAL/MOL
REMARK 923 INTER-LIGAND FREE ENERGY PREDICTED BY IDOCK:   -6.47 KCAL/MOL
REMARK 924 INTRA-LIGAND FREE ENERGY PREDICTED BY IDOCK:   -0.26 KCAL/MOL
REMARK 927      BINDING AFFINITY PREDICTED BY RF-SCORE:    0.00 PKD
ROOT
HETATM    1  C   UNL     1      -9.194   4.973  71.401  1.00  0.00    -0.146 C  
HETATM    2  N   UNL     1     -10.083   4.757  70.282  1.00  0.00    -0.247 NA 
HETATM    3  H   UNL     1     -10.433   3.805  70.178  1.00  0.00     0.000 HD 
ENDROOT
BRANCH   2   4
HETATM    4  C   UNL     1     -10.526   5.660  69.330  1.00  0.00    -0.297 C  
HETATM    5  C   UNL     1      -9.792   5.851  68.211  1.00  0.00    -0.137 C  
HETATM    6  O   UNL     1     -11.242   7.362  67.200  1.00  0.00    -0.152 OA 
HETATM    7  N   UNL     1     -10.167   6.749  67.146  1.00  0.00    -0.200 N  
HETATM    8  O   UNL     1      -9.353   6.836  66.215  1.00  0.00    -0.161 OA 
BRANCH   4   9
HETATM    9  N   UNL     1     -11.696   6.349  69.585  1.00  0.00    -0.587 NA 
HETATM   10  H   UNL     1     -12.343   6.409  68.799  1.00  0.00     0.000 HD 
BRANCH   9  11
HETATM   11  C   UNL     1     -12.144   6.998  70.801  1.00  0.00    -0.327 C  
BRANCH  11  12
HETATM   12  C   UNL     1     -11.338   8.280  71.034  1.00  0.00    -0.269 C  
BRANCH  12  13
HETATM   13  S   UNL     1     -12.305   9.583  71.869  1.00  0.00    -0.349 SA 
BRANCH  13  14
HETATM   14  C   UNL     1     -12.337  10.836  70.545  1.00  0.00    -0.369 C  
BRANCH  14  15
HETATM   15  C   UNL     1     -12.664  12.169  71.098  1.00  0.00    -0.253 A  
HETATM   16  C   UNL     1     -13.430  12.597  72.159  1.00  0.00    -0.561 A  
HETATM   17  C   UNL     1     -13.348  14.011  72.160  1.00  0.00    -0.545 A  
HETATM   18  C   UNL     1     -12.545  14.359  71.095  1.00  0.00    -0.352 A  
HETATM   19  O   UNL     1     -12.135  13.238  70.438  1.00  0.00    -0.348 OA 
BRANCH  18  20
HETATM   20  C   UNL     1     -12.076  15.662  70.538  1.00  0.00    -0.395 C  
BRANCH  20  21
HETATM   21  N   UNL     1     -11.115  15.515  69.427  1.00  0.00    -0.269 NA 
HETATM   22  C   UNL     1     -11.800  15.258  68.156  1.00  0.00    -0.195 C  
HETATM   23  C   UNL     1     -10.315  16.737  69.314  1.00  0.00    -0.309 C  
ENDBRANCH  20  21
ENDBRANCH  18  20
ENDBRANCH  14  15
ENDBRANCH  13  14
ENDBRANCH  12  13
ENDBRANCH  11  12
ENDBRANCH   9  11
ENDBRANCH   4   9
ENDBRANCH   2   4
TORSDOF 9
ENDMDL
MODEL      158
REMARK 921   NORMALIZED FREE ENERGY PREDICTED BY IDOCK:   -4.14 KCAL/MOL
REMARK 922        TOTAL FREE ENERGY PREDICTED BY IDOCK:   -6.71 KCAL/MOL
REMARK 923 INTER-LIGAND FREE ENERGY PREDICTED BY IDOCK:   -6.11 KCAL/MOL
REMARK 924 INTRA-LIGAND FREE ENERGY PREDICTED BY IDOCK:   -0.60 KCAL/MOL
REMARK 927      BINDING AFFINITY PREDICTED BY RF-SCORE:    0.00 PKD
ROOT
HETATM    1  C   UNL     1     -12.074   7.403  71.417  1.00  0.00    -0.327 C  
HETATM    2  N   UNL     1     -11.912   7.198  69.995  1.00  0.00    -0.574 NA 
HETATM    3  H   UNL     1     -12.457   7.820  69.398  1.00  0.00     0.000 HD 
ENDROOT
BRANCH   2   4
HETATM    4  C   UNL     1     -11.123   6.276  69.330  1.00  0.00    -0.393 C  
HETATM    5  C   UNL     1     -10.430   5.362  70.046  1.00  0.00    -0.303 C  
HETATM    6  O   UNL     1      -9.521   4.235  68.227  1.00  0.00    -0.143 OA 
HETATM    7  N   UNL     1      -9.595   4.343  69.458  1.00  0.00    -0.186 N  
HETATM    8  O   UNL     1      -8.996   3.618  70.266  1.00  0.00    -0.084 OA 
BRANCH   4   9
HETATM    9  N   UNL     1     -11.060   6.351  67.952  1.00  0.00    -0.469 NA 
HETATM   10  H   UNL     1     -11.215   5.469  67.462  1.00  0.00     0.000 HD 
BRANCH   9  11
HETATM   11  C   UNL     1     -10.808   7.493  67.096  1.00  0.00    -0.228 C  
BRANCH  11  12
HETATM   12  C   UNL     1      -9.501   8.177  67.511  1.00  0.00    -0.152 C  
BRANCH  12  13
HETATM   13  S   UNL     1      -9.762   9.849  68.192  1.00  0.00    -0.146 SA 
BRANCH  13  14
HETATM   14  C   UNL     1      -9.402  10.845  66.708  1.00  0.00    -0.165 C  
BRANCH  14  15
HETATM   15  C   UNL     1     -10.427  11.896  66.526  1.00  0.00    -0.221 A  
HETATM   16  C   UNL     1     -11.419  12.107  65.595  1.00  0.00    -0.408 A  
HETATM   17  C   UNL     1     -12.065  13.309  65.973  1.00  0.00    -0.491 A  
HETATM   18  C   UNL     1     -11.424  13.762  67.106  1.00  0.00    -0.340 A  
HETATM   19  O   UNL     1     -10.416  12.907  67.440  1.00  0.00    -0.231 OA 
BRANCH  18  20
HETATM   20  C   UNL     1     -11.598  14.957  67.983  1.00  0.00    -0.341 C  
BRANCH  20  21
HETATM   21  N   UNL     1     -10.422  15.850  67.999  1.00  0.00    -0.266 NA 
HETATM   22  C   UNL     1     -10.267  16.555  66.723  1.00  0.00    -0.295 C  
HETATM   23  C   UNL     1     -10.569  16.825  69.083  1.00  0.00    -0.343 C  
ENDBRANCH  20  21
ENDBRANCH  18  20
ENDBRANCH  14  15
ENDBRANCH  13  14
ENDBRANCH  12  13
ENDBRANCH  11  12
ENDBRANCH   9  11
ENDBRANCH   4   9
ENDBRANCH   2   4
TORSDOF 9
ENDMDL
MODEL      159
REMARK 921   NORMALIZED FREE ENERGY PREDICTED BY IDOCK:   -4.14 KCAL/MOL
REMARK 922        TOTAL FREE ENERGY PREDICTED BY IDOCK:   -6.71 KCAL/MOL
REMARK 923 INTER-LIGAND FREE ENERGY PREDICTED BY IDOCK:   -5.75 KCAL/MOL
REMARK 924 INTRA-LIGAND FREE ENERGY PREDICTED BY IDOCK:   -0.96 KCAL/MOL
REMARK 927      BINDING AFFINITY PREDICTED BY RF-SCORE:    0.00 PKD
ROOT
HETATM    1  C   UNL     1     -12.383  15.235  70.008  1.00  0.00    -0.328 C  
HETATM    2  N   UNL     1     -12.040  15.304  68.606  1.00  0.00    -0.585 NA 
HETATM    3  H   UNL     1     -12.695  14.848  67.972  1.00  0.00     0.000 HD 
ENDROOT
BRANCH   2   4
HETATM    4  C   UNL     1     -10.947  15.903  68.002  1.00  0.00    -0.336 C  
HETATM    5  C   UNL     1     -11.151  16.889  67.100  1.00  0.00     0.145 C  
HETATM    6  O   UNL     1      -8.907  17.347  66.699  1.00  0.00    -0.235 OA 
HETATM    7  N   UNL     1     -10.088  17.596  66.427  1.00  0.00    -0.343 N  
HETATM    8  O   UNL     1     -10.457  18.439  65.596  1.00  0.00    -0.624 OA 
BRANCH   4   9
HETATM    9  N   UNL     1      -9.688  15.440  68.335  1.00  0.00    -0.207 NA 
HETATM   10  H   UNL     1      -9.206  14.926  67.597  1.00  0.00     0.000 HD 
BRANCH   9  11
HETATM   11  C   UNL     1      -8.949  15.575  69.574  1.00  0.00    -0.244 C  
BRANCH  11  12
HETATM   12  C   UNL     1      -7.446  15.451  69.300  1.00  0.00    -0.207 C  
BRANCH  12  13
HETATM   13  S   UNL     1      -7.080  14.596  67.731  1.00  0.00    -0.188 SA 
BRANCH  13  14
HETATM   14  C   UNL     1      -7.254  12.865  68.277  1.00  0.00    -0.112 C  
BRANCH  14  15
HETATM   15  C   UNL     1      -8.562  12.316  67.856  1.00  0.00    -0.169 A  
HETATM   16  C   UNL     1      -9.344  11.274  68.301  1.00  0.00    -0.180 A  
HETATM   17  C   UNL     1     -10.489  11.257  67.468  1.00  0.00    -0.234 A  
HETATM   18  C   UNL     1     -10.332  12.283  66.561  1.00  0.00    -0.227 A  
HETATM   19  O   UNL     1      -9.151  12.925  66.788  1.00  0.00    -0.225 OA 
BRANCH  18  20
HETATM   20  C   UNL     1     -11.154  12.791  65.424  1.00  0.00    -0.284 C  
BRANCH  20  21
HETATM   21  N   UNL     1     -11.548  11.737  64.468  1.00  0.00    -0.267 NA 
HETATM   22  C   UNL     1     -12.371  12.279  63.382  1.00  0.00    -0.517 C  
HETATM   23  C   UNL     1     -10.344  11.117  63.908  1.00  0.00    -0.380 C  
ENDBRANCH  20  21
ENDBRANCH  18  20
ENDBRANCH  14  15
ENDBRANCH  13  14
ENDBRANCH  12  13
ENDBRANCH  11  12
ENDBRANCH   9  11
ENDBRANCH   4   9
ENDBRANCH   2   4
TORSDOF 9
ENDMDL
MODEL      160
REMARK 921   NORMALIZED FREE ENERGY PREDICTED BY IDOCK:   -4.12 KCAL/MOL
REMARK 922        TOTAL FREE ENERGY PREDICTED BY IDOCK:   -6.67 KCAL/MOL
REMARK 923 INTER-LIGAND FREE ENERGY PREDICTED BY IDOCK:   -6.09 KCAL/MOL
REMARK 924 INTRA-LIGAND FREE ENERGY PREDICTED BY IDOCK:   -0.58 KCAL/MOL
REMARK 927      BINDING AFFINITY PREDICTED BY RF-SCORE:    0.00 PKD
ROOT
HETATM    1  C   UNL     1     -10.424   8.204  67.687  1.00  0.00    -0.231 C  
HETATM    2  N   UNL     1     -10.059   8.171  66.288  1.00  0.00    -0.479 NA 
HETATM    3  H   UNL     1     -10.586   7.512  65.715  1.00  0.00     0.000 HD 
ENDROOT
BRANCH   2   4
HETATM    4  C   UNL     1      -9.096   8.905  65.618  1.00  0.00    -0.212 C  
HETATM    5  C   UNL     1      -8.086   8.256  64.998  1.00  0.00    -0.148 C  
HETATM    6  O   UNL     1      -7.064  10.147  64.110  1.00  0.00    -0.130 OA 
HETATM    7  N   UNL     1      -7.042   8.917  64.253  1.00  0.00    -0.089 N  
HETATM    8  O   UNL     1      -6.168   8.170  63.788  1.00  0.00    -0.066 OA 
BRANCH   4   9
HETATM    9  N   UNL     1      -9.201  10.283  65.638  1.00  0.00    -0.172 NA 
HETATM   10  H   UNL     1      -8.455  10.767  66.137  1.00  0.00     0.000 HD 
BRANCH   9  11
HETATM   11  C   UNL     1     -10.212  11.143  65.056  1.00  0.00    -0.296 C  
BRANCH  11  12
HETATM   12  C   UNL     1     -11.124  11.694  66.158  1.00  0.00    -0.280 C  
BRANCH  12  13
HETATM   13  S   UNL     1     -12.204  13.044  65.575  1.00  0.00    -0.469 SA 
BRANCH  13  14
HETATM   14  C   UNL     1     -11.012  13.974  64.557  1.00  0.00    -0.350 C  
BRANCH  14  15
HETATM   15  C   UNL     1     -10.290  14.969  65.381  1.00  0.00    -0.383 A  
HETATM   16  C   UNL     1      -9.328  14.875  66.361  1.00  0.00    -0.327 A  
HETATM   17  C   UNL     1      -9.049  16.202  66.768  1.00  0.00    -0.257 A  
HETATM   18  C   UNL     1      -9.862  17.024  66.018  1.00  0.00    -0.241 A  
HETATM   19  O   UNL     1     -10.630  16.274  65.177  1.00  0.00    -0.576 OA 
BRANCH  18  20
HETATM   20  C   UNL     1     -10.070  18.501  65.963  1.00  0.00    -0.288 C  
BRANCH  20  21
HETATM   21  N   UNL     1      -9.100  19.261  66.777  1.00  0.00    -0.309 NA 
HETATM   22  C   UNL     1      -7.983  19.749  65.963  1.00  0.00    -0.330 C  
HETATM   23  C   UNL     1      -9.780  20.395  67.407  1.00  0.00    -0.457 C  
ENDBRANCH  20  21
ENDBRANCH  18  20
ENDBRANCH  14  15
ENDBRANCH  13  14
ENDBRANCH  12  13
ENDBRANCH  11  12
ENDBRANCH   9  11
ENDBRANCH   4   9
ENDBRANCH   2   4
TORSDOF 9
ENDMDL
MODEL      161
REMARK 921   NORMALIZED FREE ENERGY PREDICTED BY IDOCK:   -4.11 KCAL/MOL
REMARK 922        TOTAL FREE ENERGY PREDICTED BY IDOCK:   -6.66 KCAL/MOL
REMARK 923 INTER-LIGAND FREE ENERGY PREDICTED BY IDOCK:   -6.20 KCAL/MOL
REMARK 924 INTRA-LIGAND FREE ENERGY PREDICTED BY IDOCK:   -0.46 KCAL/MOL
REMARK 927      BINDING AFFINITY PREDICTED BY RF-SCORE:    0.00 PKD
ROOT
HETATM    1  C   UNL     1     -11.997  15.579  70.365  1.00  0.00    -0.367 C  
HETATM    2  N   UNL     1     -12.136  15.591  68.926  1.00  0.00    -0.595 NA 
HETATM    3  H   UNL     1     -13.036  15.270  68.570  1.00  0.00     0.000 HD 
ENDROOT
BRANCH   2   4
HETATM    4  C   UNL     1     -11.219  15.976  67.963  1.00  0.00    -0.303 C  
HETATM    5  C   UNL     1     -10.802  17.262  67.928  1.00  0.00    -0.283 C  
HETATM    6  O   UNL     1      -9.297  17.002  66.175  1.00  0.00    -0.373 OA 
HETATM    7  N   UNL     1      -9.836  17.769  66.984  1.00  0.00    -0.296 N  
HETATM    8  O   UNL     1      -9.604  18.984  67.064  1.00  0.00    -0.302 OA 
BRANCH   4   9
HETATM    9  N   UNL     1     -10.788  15.024  67.060  1.00  0.00    -0.306 NA 
HETATM   10  H   UNL     1     -10.844  15.300  66.080  1.00  0.00     0.000 HD 
BRANCH   9  11
HETATM   11  C   UNL     1     -10.270  13.691  67.295  1.00  0.00    -0.246 C  
BRANCH  11  12
HETATM   12  C   UNL     1     -11.208  12.650  66.675  1.00  0.00    -0.300 C  
BRANCH  12  13
HETATM   13  S   UNL     1     -11.510  11.225  67.774  1.00  0.00    -0.242 SA 
BRANCH  13  14
HETATM   14  C   UNL     1     -10.187  10.110  67.200  1.00  0.00    -0.225 C  
BRANCH  14  15
HETATM   15  C   UNL     1     -10.421   8.732  67.686  1.00  0.00    -0.244 A  
HETATM   16  C   UNL     1     -10.567   7.514  67.061  1.00  0.00    -0.409 A  
HETATM   17  C   UNL     1     -10.775   6.565  68.091  1.00  0.00    -0.347 A  
HETATM   18  C   UNL     1     -10.752   7.262  69.280  1.00  0.00    -0.198 A  
HETATM   19  O   UNL     1     -10.547   8.587  69.036  1.00  0.00    -0.216 OA 
BRANCH  18  20
HETATM   20  C   UNL     1     -10.919   6.869  70.710  1.00  0.00    -0.259 C  
BRANCH  20  21
HETATM   21  N   UNL     1     -10.244   7.783  71.653  1.00  0.00    -0.184 NA 
HETATM   22  C   UNL     1     -10.901   7.781  72.964  1.00  0.00    -0.389 C  
HETATM   23  C   UNL     1      -8.845   7.375  71.804  1.00  0.00    -0.115 C  
ENDBRANCH  20  21
ENDBRANCH  18  20
ENDBRANCH  14  15
ENDBRANCH  13  14
ENDBRANCH  12  13
ENDBRANCH  11  12
ENDBRANCH   9  11
ENDBRANCH   4   9
ENDBRANCH   2   4
TORSDOF 9
ENDMDL
MODEL      162
REMARK 921   NORMALIZED FREE ENERGY PREDICTED BY IDOCK:   -4.10 KCAL/MOL
REMARK 922        TOTAL FREE ENERGY PREDICTED BY IDOCK:   -6.65 KCAL/MOL
REMARK 923 INTER-LIGAND FREE ENERGY PREDICTED BY IDOCK:   -5.93 KCAL/MOL
REMARK 924 INTRA-LIGAND FREE ENERGY PREDICTED BY IDOCK:   -0.72 KCAL/MOL
REMARK 927      BINDING AFFINITY PREDICTED BY RF-SCORE:    0.00 PKD
ROOT
HETATM    1  C   UNL     1     -11.158  16.015  68.689  1.00  0.00    -0.349 C  
HETATM    2  N   UNL     1     -12.004  14.846  68.764  1.00  0.00    -0.511 NA 
HETATM    3  H   UNL     1     -12.462  14.580  67.892  1.00  0.00     0.000 HD 
ENDROOT
BRANCH   2   4
HETATM    4  C   UNL     1     -12.282  14.036  69.852  1.00  0.00    -0.340 C  
HETATM    5  C   UNL     1     -13.135  14.480  70.802  1.00  0.00    -0.306 C  
HETATM    6  O   UNL     1     -13.091  12.559  72.112  1.00  0.00    -0.416 OA 
HETATM    7  N   UNL     1     -13.513  13.713  71.965  1.00  0.00    -0.444 N  
HETATM    8  O   UNL     1     -14.270  14.293  72.758  1.00  0.00    -0.517 OA 
BRANCH   4   9
HETATM    9  N   UNL     1     -11.648  12.811  69.927  1.00  0.00    -0.510 NA 
HETATM   10  H   UNL     1     -11.109  12.654  70.779  1.00  0.00     0.000 HD 
BRANCH   9  11
HETATM   11  C   UNL     1     -11.632  11.715  68.979  1.00  0.00    -0.316 C  
BRANCH  11  12
HETATM   12  C   UNL     1     -12.185  10.447  69.639  1.00  0.00    -0.048 C  
BRANCH  12  13
HETATM   13  S   UNL     1     -11.011   9.688  70.810  1.00  0.00    -0.350 SA 
BRANCH  13  14
HETATM   14  C   UNL     1     -10.812   8.053  70.029  1.00  0.00    -0.235 C  
BRANCH  14  15
HETATM   15  C   UNL     1     -10.145   8.181  68.715  1.00  0.00    -0.199 A  
HETATM   16  C   UNL     1     -10.503   7.842  67.430  1.00  0.00    -0.360 A  
HETATM   17  C   UNL     1      -9.416   8.223  66.605  1.00  0.00    -0.271 A  
HETATM   18  C   UNL     1      -8.459   8.763  67.438  1.00  0.00    -0.116 A  
HETATM   19  O   UNL     1      -8.897   8.729  68.729  1.00  0.00    -0.133 OA 
BRANCH  18  20
HETATM   20  C   UNL     1      -7.097   9.331  67.214  1.00  0.00    -0.082 C  
BRANCH  20  21
HETATM   21  N   UNL     1      -7.103  10.571  66.413  1.00  0.00    -0.121 NA 
HETATM   22  C   UNL     1      -8.012  11.572  66.982  1.00  0.00    -0.161 C  
HETATM   23  C   UNL     1      -5.745  11.118  66.358  1.00  0.00    -0.146 C  
ENDBRANCH  20  21
ENDBRANCH  18  20
ENDBRANCH  14  15
ENDBRANCH  13  14
ENDBRANCH  12  13
ENDBRANCH  11  12
ENDBRANCH   9  11
ENDBRANCH   4   9
ENDBRANCH   2   4
TORSDOF 9
ENDMDL
MODEL      163
REMARK 921   NORMALIZED FREE ENERGY PREDICTED BY IDOCK:   -4.10 KCAL/MOL
REMARK 922        TOTAL FREE ENERGY PREDICTED BY IDOCK:   -6.64 KCAL/MOL
REMARK 923 INTER-LIGAND FREE ENERGY PREDICTED BY IDOCK:   -5.97 KCAL/MOL
REMARK 924 INTRA-LIGAND FREE ENERGY PREDICTED BY IDOCK:   -0.67 KCAL/MOL
REMARK 927      BINDING AFFINITY PREDICTED BY RF-SCORE:    0.00 PKD
ROOT
HETATM    1  C   UNL     1     -13.014  10.850  71.648  1.00  0.00    -0.464 C  
HETATM    2  N   UNL     1     -11.753  10.184  71.411  1.00  0.00    -0.338 NA 
HETATM    3  H   UNL     1     -10.957  10.800  71.248  1.00  0.00     0.000 HD 
ENDROOT
BRANCH   2   4
HETATM    4  C   UNL     1     -11.474   8.829  71.373  1.00  0.00    -0.297 C  
HETATM    5  C   UNL     1     -11.227   8.175  72.530  1.00  0.00    -0.391 C  
HETATM    6  O   UNL     1     -10.974   6.063  71.589  1.00  0.00    -0.253 OA 
HETATM    7  N   UNL     1     -10.947   6.761  72.611  1.00  0.00    -0.246 N  
HETATM    8  O   UNL     1     -10.697   6.335  73.748  1.00  0.00    -0.262 OA 
BRANCH   4   9
HETATM    9  N   UNL     1     -11.437   8.209  70.139  1.00  0.00    -0.466 NA 
HETATM   10  H   UNL     1     -12.052   7.401  70.041  1.00  0.00     0.000 HD 
BRANCH   9  11
HETATM   11  C   UNL     1     -10.657   8.534  68.962  1.00  0.00    -0.154 C  
BRANCH  11  12
HETATM   12  C   UNL     1      -9.178   8.223  69.215  1.00  0.00    -0.151 C  
BRANCH  12  13
HETATM   13  S   UNL     1      -8.316   7.615  67.726  1.00  0.00    -0.118 SA 
BRANCH  13  14
HETATM   14  C   UNL     1      -9.608   7.922  66.477  1.00  0.00    -0.212 C  
BRANCH  14  15
HETATM   15  C   UNL     1      -9.127   8.879  65.455  1.00  0.00    -0.190 A  
HETATM   16  C   UNL     1      -7.927   9.052  64.805  1.00  0.00    -0.129 A  
HETATM   17  C   UNL     1      -8.104  10.159  63.939  1.00  0.00    -0.157 A  
HETATM   18  C   UNL     1      -9.399  10.598  64.121  1.00  0.00    -0.258 A  
HETATM   19  O   UNL     1     -10.023   9.825  65.054  1.00  0.00    -0.286 OA 
BRANCH  18  20
HETATM   20  C   UNL     1     -10.203  11.711  63.536  1.00  0.00    -0.436 C  
BRANCH  20  21
HETATM   21  N   UNL     1     -11.000  12.447  64.537  1.00  0.00    -0.299 NA 
HETATM   22  C   UNL     1     -10.555  13.840  64.657  1.00  0.00    -0.425 C  
HETATM   23  C   UNL     1     -12.413  12.416  64.149  1.00  0.00    -0.442 C  
ENDBRANCH  20  21
ENDBRANCH  18  20
ENDBRANCH  14  15
ENDBRANCH  13  14
ENDBRANCH  12  13
ENDBRANCH  11  12
ENDBRANCH   9  11
ENDBRANCH   4   9
ENDBRANCH   2   4
TORSDOF 9
ENDMDL
MODEL      164
REMARK 921   NORMALIZED FREE ENERGY PREDICTED BY IDOCK:   -4.09 KCAL/MOL
REMARK 922        TOTAL FREE ENERGY PREDICTED BY IDOCK:   -6.63 KCAL/MOL
REMARK 923 INTER-LIGAND FREE ENERGY PREDICTED BY IDOCK:   -6.05 KCAL/MOL
REMARK 924 INTRA-LIGAND FREE ENERGY PREDICTED BY IDOCK:   -0.58 KCAL/MOL
REMARK 927      BINDING AFFINITY PREDICTED BY RF-SCORE:    0.00 PKD
ROOT
HETATM    1  C   UNL     1     -12.032  13.650  68.178  1.00  0.00    -0.355 C  
HETATM    2  N   UNL     1     -11.274  12.654  67.454  1.00  0.00    -0.274 NA 
HETATM    3  H   UNL     1     -10.726  12.017  68.030  1.00  0.00     0.000 HD 
ENDROOT
BRANCH   2   4
HETATM    4  C   UNL     1     -11.188  12.444  66.088  1.00  0.00    -0.322 C  
HETATM    5  C   UNL     1     -11.970  13.171  65.259  1.00  0.00    -0.398 C  
HETATM    6  O   UNL     1     -11.145  12.285  63.274  1.00  0.00    -0.427 OA 
HETATM    7  N   UNL     1     -11.948  13.052  63.821  1.00  0.00    -0.484 N  
HETATM    8  O   UNL     1     -12.765  13.763  63.218  1.00  0.00    -0.783 OA 
BRANCH   4   9
HETATM    9  N   UNL     1     -10.315  11.473  65.635  1.00  0.00    -0.251 NA 
HETATM   10  H   UNL     1      -9.590  11.806  64.999  1.00  0.00     0.000 HD 
BRANCH   9  11
HETATM   11  C   UNL     1     -10.274  10.055  65.927  1.00  0.00    -0.205 C  
BRANCH  11  12
HETATM   12  C   UNL     1      -8.961   9.706  66.636  1.00  0.00    -0.146 C  
BRANCH  12  13
HETATM   13  S   UNL     1      -8.798   7.924  66.991  1.00  0.00    -0.134 SA 
BRANCH  13  14
HETATM   14  C   UNL     1     -10.527   7.537  67.420  1.00  0.00    -0.297 C  
BRANCH  14  15
HETATM   15  C   UNL     1     -10.644   7.194  68.854  1.00  0.00    -0.201 A  
HETATM   16  C   UNL     1     -11.368   6.254  69.552  1.00  0.00    -0.475 A  
HETATM   17  C   UNL     1     -11.044   6.441  70.917  1.00  0.00    -0.354 A  
HETATM   18  C   UNL     1     -10.148   7.487  70.971  1.00  0.00    -0.186 A  
HETATM   19  O   UNL     1      -9.910   7.956  69.713  1.00  0.00    -0.176 OA 
BRANCH  18  20
HETATM   20  C   UNL     1      -9.438   8.183  72.084  1.00  0.00    -0.225 C  
BRANCH  20  21
HETATM   21  N   UNL     1      -8.252   7.452  72.572  1.00  0.00    -0.102 NA 
HETATM   22  C   UNL     1      -7.011   8.147  72.217  1.00  0.00    -0.089 C  
HETATM   23  C   UNL     1      -8.336   7.312  74.028  1.00  0.00    -0.165 C  
ENDBRANCH  20  21
ENDBRANCH  18  20
ENDBRANCH  14  15
ENDBRANCH  13  14
ENDBRANCH  12  13
ENDBRANCH  11  12
ENDBRANCH   9  11
ENDBRANCH   4   9
ENDBRANCH   2   4
TORSDOF 9
ENDMDL
MODEL      165
REMARK 921   NORMALIZED FREE ENERGY PREDICTED BY IDOCK:   -4.09 KCAL/MOL
REMARK 922        TOTAL FREE ENERGY PREDICTED BY IDOCK:   -6.63 KCAL/MOL
REMARK 923 INTER-LIGAND FREE ENERGY PREDICTED BY IDOCK:   -6.03 KCAL/MOL
REMARK 924 INTRA-LIGAND FREE ENERGY PREDICTED BY IDOCK:   -0.60 KCAL/MOL
REMARK 927      BINDING AFFINITY PREDICTED BY RF-SCORE:    0.00 PKD
ROOT
HETATM    1  C   UNL     1      -6.612   6.393  70.988  1.00  0.00    -0.053 C  
HETATM    2  N   UNL     1      -7.878   7.021  71.293  1.00  0.00    -0.098 NA 
HETATM    3  H   UNL     1      -7.845   7.746  72.010  1.00  0.00     0.000 HD 
ENDROOT
BRANCH   2   4
HETATM    4  C   UNL     1      -9.128   6.778  70.750  1.00  0.00    -0.151 C  
HETATM    5  C   UNL     1      -9.272   6.773  69.406  1.00  0.00    -0.143 C  
HETATM    6  O   UNL     1     -11.530   6.218  69.387  1.00  0.00    -0.427 OA 
HETATM    7  N   UNL     1     -10.521   6.509  68.732  1.00  0.00    -0.192 N  
HETATM    8  O   UNL     1     -10.482   6.591  67.495  1.00  0.00    -0.177 OA 
BRANCH   4   9
HETATM    9  N   UNL     1     -10.183   6.574  71.618  1.00  0.00    -0.193 NA 
HETATM   10  H   UNL     1     -10.506   5.609  71.688  1.00  0.00     0.000 HD 
BRANCH   9  11
HETATM   11  C   UNL     1     -10.900   7.524  72.444  1.00  0.00    -0.276 C  
BRANCH  11  12
HETATM   12  C   UNL     1     -10.574   8.953  71.998  1.00  0.00    -0.318 C  
BRANCH  12  13
HETATM   13  S   UNL     1     -12.006   9.808  71.256  1.00  0.00    -0.410 SA 
BRANCH  13  14
HETATM   14  C   UNL     1     -11.459   9.871  69.518  1.00  0.00    -0.068 C  
BRANCH  14  15
HETATM   15  C   UNL     1     -11.605  11.240  68.976  1.00  0.00    -0.319 A  
HETATM   16  C   UNL     1     -11.692  12.487  69.553  1.00  0.00    -0.375 A  
HETATM   17  C   UNL     1     -11.828  13.407  68.484  1.00  0.00    -0.401 A  
HETATM   18  C   UNL     1     -11.823  12.664  67.322  1.00  0.00    -0.328 A  
HETATM   19  O   UNL     1     -11.698  11.340  67.620  1.00  0.00    -0.564 OA 
BRANCH  18  20
HETATM   20  C   UNL     1     -11.941  13.011  65.875  1.00  0.00    -0.435 C  
BRANCH  20  21
HETATM   21  N   UNL     1     -11.595  14.414  65.577  1.00  0.00    -0.341 NA 
HETATM   22  C   UNL     1     -10.144  14.596  65.464  1.00  0.00    -0.377 C  
HETATM   23  C   UNL     1     -12.238  14.816  64.324  1.00  0.00    -0.379 C  
ENDBRANCH  20  21
ENDBRANCH  18  20
ENDBRANCH  14  15
ENDBRANCH  13  14
ENDBRANCH  12  13
ENDBRANCH  11  12
ENDBRANCH   9  11
ENDBRANCH   4   9
ENDBRANCH   2   4
TORSDOF 9
ENDMDL
MODEL      166
REMARK 921   NORMALIZED FREE ENERGY PREDICTED BY IDOCK:   -4.09 KCAL/MOL
REMARK 922        TOTAL FREE ENERGY PREDICTED BY IDOCK:   -6.63 KCAL/MOL
REMARK 923 INTER-LIGAND FREE ENERGY PREDICTED BY IDOCK:   -6.50 KCAL/MOL
REMARK 924 INTRA-LIGAND FREE ENERGY PREDICTED BY IDOCK:   -0.13 KCAL/MOL
REMARK 927      BINDING AFFINITY PREDICTED BY RF-SCORE:    0.00 PKD
ROOT
HETATM    1  C   UNL     1     -10.881  19.778  67.215  1.00  0.00    -0.342 C  
HETATM    2  N   UNL     1     -10.385  18.446  67.476  1.00  0.00    -0.374 NA 
HETATM    3  H   UNL     1     -11.068  17.696  67.373  1.00  0.00     0.000 HD 
ENDROOT
BRANCH   2   4
HETATM    4  C   UNL     1      -9.113  18.044  67.847  1.00  0.00    -0.268 C  
HETATM    5  C   UNL     1      -8.313  18.913  68.503  1.00  0.00    -0.349 C  
HETATM    6  O   UNL     1      -6.525  17.456  68.796  1.00  0.00    -0.182 OA 
HETATM    7  N   UNL     1      -6.980  18.596  68.956  1.00  0.00    -0.291 N  
HETATM    8  O   UNL     1      -6.369  19.528  69.501  1.00  0.00    -0.291 OA 
BRANCH   4   9
HETATM    9  N   UNL     1      -8.709  16.768  67.502  1.00  0.00    -0.197 NA 
HETATM   10  H   UNL     1      -8.308  16.220  68.263  1.00  0.00     0.000 HD 
BRANCH   9  11
HETATM   11  C   UNL     1      -8.771  16.091  66.222  1.00  0.00    -0.336 C  
BRANCH  11  12
HETATM   12  C   UNL     1     -10.233  15.895  65.806  1.00  0.00    -0.365 C  
BRANCH  12  13
HETATM   13  S   UNL     1     -10.567  14.224  65.155  1.00  0.00    -0.430 SA 
BRANCH  13  14
HETATM   14  C   UNL     1     -11.987  13.764  66.202  1.00  0.00    -0.418 C  
BRANCH  14  15
HETATM   15  C   UNL     1     -11.676  12.558  67.000  1.00  0.00    -0.367 A  
HETATM   16  C   UNL     1     -11.225  11.297  66.683  1.00  0.00    -0.247 A  
HETATM   17  C   UNL     1     -11.133  10.591  67.907  1.00  0.00    -0.367 A  
HETATM   18  C   UNL     1     -11.541  11.462  68.895  1.00  0.00    -0.323 A  
HETATM   19  O   UNL     1     -11.883  12.660  68.344  1.00  0.00    -0.311 OA 
BRANCH  18  20
HETATM   20  C   UNL     1     -11.691  11.346  70.376  1.00  0.00    -0.268 C  
BRANCH  20  21
HETATM   21  N   UNL     1     -13.089  11.165  70.812  1.00  0.00    -0.113 NA 
HETATM   22  C   UNL     1     -13.331   9.797  71.283  1.00  0.00    -0.339 C  
HETATM   23  C   UNL     1     -13.387  12.114  71.888  1.00  0.00    -0.318 C  
ENDBRANCH  20  21
ENDBRANCH  18  20
ENDBRANCH  14  15
ENDBRANCH  13  14
ENDBRANCH  12  13
ENDBRANCH  11  12
ENDBRANCH   9  11
ENDBRANCH   4   9
ENDBRANCH   2   4
TORSDOF 9
ENDMDL
MODEL      167
REMARK 921   NORMALIZED FREE ENERGY PREDICTED BY IDOCK:   -4.09 KCAL/MOL
REMARK 922        TOTAL FREE ENERGY PREDICTED BY IDOCK:   -6.63 KCAL/MOL
REMARK 923 INTER-LIGAND FREE ENERGY PREDICTED BY IDOCK:   -6.01 KCAL/MOL
REMARK 924 INTRA-LIGAND FREE ENERGY PREDICTED BY IDOCK:   -0.62 KCAL/MOL
REMARK 927      BINDING AFFINITY PREDICTED BY RF-SCORE:    0.00 PKD
ROOT
HETATM    1  C   UNL     1     -10.932   6.639  67.100  1.00  0.00    -0.408 C  
HETATM    2  N   UNL     1     -10.439   7.895  66.583  1.00  0.00    -0.469 NA 
HETATM    3  H   UNL     1     -11.090   8.678  66.642  1.00  0.00     0.000 HD 
ENDROOT
BRANCH   2   4
HETATM    4  C   UNL     1      -9.209   8.185  66.017  1.00  0.00    -0.147 C  
HETATM    5  C   UNL     1      -8.086   7.722  66.610  1.00  0.00    -0.111 C  
HETATM    6  O   UNL     1      -6.595   8.549  65.029  1.00  0.00    -0.063 OA 
HETATM    7  N   UNL     1      -6.756   7.945  66.098  1.00  0.00    -0.053 N  
HETATM    8  O   UNL     1      -5.837   7.488  66.794  1.00  0.00    -0.036 OA 
BRANCH   4   9
HETATM    9  N   UNL     1      -9.188   8.963  64.876  1.00  0.00    -0.436 NA 
HETATM   10  H   UNL     1      -8.622   8.595  64.111  1.00  0.00     0.000 HD 
BRANCH   9  11
HETATM   11  C   UNL     1      -9.848  10.223  64.601  1.00  0.00    -0.327 C  
BRANCH  11  12
HETATM   12  C   UNL     1      -9.454  11.260  65.658  1.00  0.00    -0.229 C  
BRANCH  12  13
HETATM   13  S   UNL     1     -10.827  11.683  66.783  1.00  0.00    -0.289 SA 
BRANCH  13  14
HETATM   14  C   UNL     1     -12.020  12.348  65.575  1.00  0.00    -0.391 C  
BRANCH  14  15
HETATM   15  C   UNL     1     -11.713  13.762  65.265  1.00  0.00    -0.338 A  
HETATM   16  C   UNL     1     -12.143  14.638  64.294  1.00  0.00    -0.437 A  
HETATM   17  C   UNL     1     -11.465  15.858  64.536  1.00  0.00    -0.287 A  
HETATM   18  C   UNL     1     -10.657  15.649  65.633  1.00  0.00    -0.378 A  
HETATM   19  O   UNL     1     -10.798  14.367  66.075  1.00  0.00    -0.299 OA 
BRANCH  18  20
HETATM   20  C   UNL     1      -9.692  16.506  66.383  1.00  0.00    -0.285 C  
BRANCH  20  21
HETATM   21  N   UNL     1     -10.346  17.498  67.259  1.00  0.00    -0.332 NA 
HETATM   22  C   UNL     1      -9.852  17.404  68.637  1.00  0.00    -0.322 C  
HETATM   23  C   UNL     1     -10.092  18.844  66.739  1.00  0.00    -0.375 C  
ENDBRANCH  20  21
ENDBRANCH  18  20
ENDBRANCH  14  15
ENDBRANCH  13  14
ENDBRANCH  12  13
ENDBRANCH  11  12
ENDBRANCH   9  11
ENDBRANCH   4   9
ENDBRANCH   2   4
TORSDOF 9
ENDMDL
MODEL      168
REMARK 921   NORMALIZED FREE ENERGY PREDICTED BY IDOCK:   -4.08 KCAL/MOL
REMARK 922        TOTAL FREE ENERGY PREDICTED BY IDOCK:   -6.62 KCAL/MOL
REMARK 923 INTER-LIGAND FREE ENERGY PREDICTED BY IDOCK:   -6.00 KCAL/MOL
REMARK 924 INTRA-LIGAND FREE ENERGY PREDICTED BY IDOCK:   -0.62 KCAL/MOL
REMARK 927      BINDING AFFINITY PREDICTED BY RF-SCORE:    0.00 PKD
ROOT
HETATM    1  C   UNL     1     -11.027   6.445  67.383  1.00  0.00    -0.376 C  
HETATM    2  N   UNL     1     -10.751   6.006  68.732  1.00  0.00    -0.284 NA 
HETATM    3  H   UNL     1     -10.219   5.140  68.811  1.00  0.00     0.000 HD 
ENDROOT
BRANCH   2   4
HETATM    4  C   UNL     1     -11.109   6.595  69.933  1.00  0.00    -0.348 C  
HETATM    5  C   UNL     1     -11.010   5.877  71.074  1.00  0.00    -0.266 C  
HETATM    6  O   UNL     1     -11.678   7.578  72.513  1.00  0.00    -0.300 OA 
HETATM    7  N   UNL     1     -11.334   6.396  72.381  1.00  0.00    -0.277 N  
HETATM    8  O   UNL     1     -11.230   5.585  73.314  1.00  0.00    -0.286 OA 
BRANCH   4   9
HETATM    9  N   UNL     1     -11.577   7.895  69.903  1.00  0.00    -0.445 NA 
HETATM   10  H   UNL     1     -12.544   8.014  70.206  1.00  0.00     0.000 HD 
BRANCH   9  11
HETATM   11  C   UNL     1     -10.902   9.114  69.507  1.00  0.00    -0.180 C  
BRANCH  11  12
HETATM   12  C   UNL     1      -9.490   9.146  70.102  1.00  0.00    -0.208 C  
BRANCH  12  13
HETATM   13  S   UNL     1      -8.193   8.790  68.869  1.00  0.00    -0.120 SA 
BRANCH  13  14
HETATM   14  C   UNL     1      -7.947  10.463  68.190  1.00  0.00    -0.110 C  
BRANCH  14  15
HETATM   15  C   UNL     1      -8.712  10.632  66.934  1.00  0.00    -0.132 A  
HETATM   16  C   UNL     1      -9.046   9.785  65.902  1.00  0.00    -0.209 A  
HETATM   17  C   UNL     1      -9.793  10.560  64.982  1.00  0.00    -0.369 A  
HETATM   18  C   UNL     1      -9.863  11.834  65.505  1.00  0.00    -0.234 A  
HETATM   19  O   UNL     1      -9.195  11.884  66.692  1.00  0.00    -0.194 OA 
BRANCH  18  20
HETATM   20  C   UNL     1     -10.482  13.109  65.038  1.00  0.00    -0.342 C  
BRANCH  20  21
HETATM   21  N   UNL     1     -11.934  13.002  64.791  1.00  0.00    -0.372 NA 
HETATM   22  C   UNL     1     -12.641  14.214  65.217  1.00  0.00    -0.442 C  
HETATM   23  C   UNL     1     -12.166  12.776  63.362  1.00  0.00    -0.504 C  
ENDBRANCH  20  21
ENDBRANCH  18  20
ENDBRANCH  14  15
ENDBRANCH  13  14
ENDBRANCH  12  13
ENDBRANCH  11  12
ENDBRANCH   9  11
ENDBRANCH   4   9
ENDBRANCH   2   4
TORSDOF 9
ENDMDL
MODEL      169
REMARK 921   NORMALIZED FREE ENERGY PREDICTED BY IDOCK:   -4.08 KCAL/MOL
REMARK 922        TOTAL FREE ENERGY PREDICTED BY IDOCK:   -6.61 KCAL/MOL
REMARK 923 INTER-LIGAND FREE ENERGY PREDICTED BY IDOCK:   -6.15 KCAL/MOL
REMARK 924 INTRA-LIGAND FREE ENERGY PREDICTED BY IDOCK:   -0.45 KCAL/MOL
REMARK 927      BINDING AFFINITY PREDICTED BY RF-SCORE:    0.00 PKD
ROOT
HETATM    1  C   UNL     1     -13.636   9.211  72.350  1.00  0.00    -0.483 C  
HETATM    2  N   UNL     1     -12.874   9.289  71.125  1.00  0.00    -0.480 NA 
HETATM    3  H   UNL     1     -13.043  10.118  70.557  1.00  0.00     0.000 HD 
ENDROOT
BRANCH   2   4
HETATM    4  C   UNL     1     -11.947   8.397  70.614  1.00  0.00    -0.026 C  
HETATM    5  C   UNL     1     -11.724   7.234  71.265  1.00  0.00    -0.296 C  
HETATM    6  O   UNL     1     -10.191   6.370  69.745  1.00  0.00    -0.173 OA 
HETATM    7  N   UNL     1     -10.799   6.223  70.813  1.00  0.00    -0.264 N  
HETATM    8  O   UNL     1     -10.685   5.238  71.558  1.00  0.00    -0.221 OA 
BRANCH   4   9
HETATM    9  N   UNL     1     -11.269   8.754  69.464  1.00  0.00    -0.434 NA 
HETATM   10  H   UNL     1     -11.239   8.037  68.739  1.00  0.00     0.000 HD 
BRANCH   9  11
HETATM   11  C   UNL     1     -10.594   9.992  69.132  1.00  0.00    -0.218 C  
BRANCH  11  12
HETATM   12  C   UNL     1     -11.432  10.789  68.126  1.00  0.00    -0.271 C  
BRANCH  12  13
HETATM   13  S   UNL     1     -10.484  11.281  66.647  1.00  0.00    -0.256 SA 
BRANCH  13  14
HETATM   14  C   UNL     1     -11.246  12.905  66.320  1.00  0.00    -0.301 C  
BRANCH  14  15
HETATM   15  C   UNL     1     -10.581  13.961  67.115  1.00  0.00    -0.277 A  
HETATM   16  C   UNL     1      -9.527  13.964  68.001  1.00  0.00    -0.208 A  
HETATM   17  C   UNL     1      -9.380  15.304  68.434  1.00  0.00    -0.194 A  
HETATM   18  C   UNL     1     -10.357  16.035  67.793  1.00  0.00    -0.279 A  
HETATM   19  O   UNL     1     -11.099  15.216  66.995  1.00  0.00    -0.329 OA 
BRANCH  18  20
HETATM   20  C   UNL     1     -10.752  17.474  67.816  1.00  0.00    -0.332 C  
BRANCH  20  21
HETATM   21  N   UNL     1      -9.739  18.371  67.226  1.00  0.00    -0.290 NA 
HETATM   22  C   UNL     1     -10.346  19.323  66.290  1.00  0.00    -0.480 C  
HETATM   23  C   UNL     1      -9.059  19.104  68.298  1.00  0.00    -0.338 C  
ENDBRANCH  20  21
ENDBRANCH  18  20
ENDBRANCH  14  15
ENDBRANCH  13  14
ENDBRANCH  12  13
ENDBRANCH  11  12
ENDBRANCH   9  11
ENDBRANCH   4   9
ENDBRANCH   2   4
TORSDOF 9
ENDMDL
MODEL      170
REMARK 921   NORMALIZED FREE ENERGY PREDICTED BY IDOCK:   -4.06 KCAL/MOL
REMARK 922        TOTAL FREE ENERGY PREDICTED BY IDOCK:   -6.59 KCAL/MOL
REMARK 923 INTER-LIGAND FREE ENERGY PREDICTED BY IDOCK:   -6.15 KCAL/MOL
REMARK 924 INTRA-LIGAND FREE ENERGY PREDICTED BY IDOCK:   -0.44 KCAL/MOL
REMARK 927      BINDING AFFINITY PREDICTED BY RF-SCORE:    0.00 PKD
ROOT
HETATM    1  C   UNL     1      -9.915   4.491  71.721  1.00  0.00    -0.194 C  
HETATM    2  N   UNL     1     -10.656   5.660  71.302  1.00  0.00    -0.252 NA 
HETATM    3  H   UNL     1     -11.084   6.199  72.054  1.00  0.00     0.000 HD 
ENDROOT
BRANCH   2   4
HETATM    4  C   UNL     1     -10.868   6.149  70.025  1.00  0.00    -0.341 C  
HETATM    5  C   UNL     1     -10.550   5.376  68.962  1.00  0.00    -0.146 C  
HETATM    6  O   UNL     1     -11.282   6.860  67.329  1.00  0.00    -0.317 OA 
HETATM    7  N   UNL     1     -10.747   5.774  67.590  1.00  0.00    -0.250 N  
HETATM    8  O   UNL     1     -10.356   4.960  66.740  1.00  0.00    -0.237 OA 
BRANCH   4   9
HETATM    9  N   UNL     1     -11.376   7.427  69.896  1.00  0.00    -0.464 NA 
HETATM   10  H   UNL     1     -12.207   7.506  69.309  1.00  0.00     0.000 HD 
BRANCH   9  11
HETATM   11  C   UNL     1     -10.908   8.673  70.469  1.00  0.00    -0.228 C  
BRANCH  11  12
HETATM   12  C   UNL     1     -11.798   9.069  71.652  1.00  0.00    -0.360 C  
BRANCH  12  13
HETATM   13  S   UNL     1     -12.584  10.701  71.433  1.00  0.00    -0.423 SA 
BRANCH  13  14
HETATM   14  C   UNL     1     -11.991  11.105  69.757  1.00  0.00    -0.357 C  
BRANCH  14  15
HETATM   15  C   UNL     1     -11.777  12.562  69.618  1.00  0.00    -0.302 A  
HETATM   16  C   UNL     1     -12.238  13.662  70.306  1.00  0.00    -0.423 A  
HETATM   17  C   UNL     1     -11.667  14.792  69.672  1.00  0.00    -0.354 A  
HETATM   18  C   UNL     1     -10.899  14.313  68.632  1.00  0.00    -0.253 A  
HETATM   19  O   UNL     1     -10.972  12.953  68.589  1.00  0.00    -0.244 OA 
BRANCH  18  20
HETATM   20  C   UNL     1     -10.059  14.965  67.583  1.00  0.00    -0.227 C  
BRANCH  20  21
HETATM   21  N   UNL     1      -9.849  16.408  67.813  1.00  0.00    -0.236 NA 
HETATM   22  C   UNL     1      -8.728  16.647  68.728  1.00  0.00    -0.260 C  
HETATM   23  C   UNL     1      -9.585  17.069  66.532  1.00  0.00    -0.278 C  
ENDBRANCH  20  21
ENDBRANCH  18  20
ENDBRANCH  14  15
ENDBRANCH  13  14
ENDBRANCH  12  13
ENDBRANCH  11  12
ENDBRANCH   9  11
ENDBRANCH   4   9
ENDBRANCH   2   4
TORSDOF 9
ENDMDL
MODEL      171
REMARK 921   NORMALIZED FREE ENERGY PREDICTED BY IDOCK:   -4.06 KCAL/MOL
REMARK 922        TOTAL FREE ENERGY PREDICTED BY IDOCK:   -6.59 KCAL/MOL
REMARK 923 INTER-LIGAND FREE ENERGY PREDICTED BY IDOCK:   -6.07 KCAL/MOL
REMARK 924 INTRA-LIGAND FREE ENERGY PREDICTED BY IDOCK:   -0.52 KCAL/MOL
REMARK 927      BINDING AFFINITY PREDICTED BY RF-SCORE:    0.00 PKD
ROOT
HETATM    1  C   UNL     1      -6.629  19.667  65.548  1.00  0.00    -0.269 C  
HETATM    2  N   UNL     1      -7.488  18.505  65.557  1.00  0.00    -0.490 NA 
HETATM    3  H   UNL     1      -7.222  17.759  64.915  1.00  0.00     0.000 HD 
ENDROOT
BRANCH   2   4
HETATM    4  C   UNL     1      -8.622  18.262  66.313  1.00  0.00    -0.184 C  
HETATM    5  C   UNL     1      -8.898  19.067  67.363  1.00  0.00    -0.287 C  
HETATM    6  O   UNL     1     -10.903  18.048  67.955  1.00  0.00    -0.336 OA 
HETATM    7  N   UNL     1     -10.060  18.920  68.206  1.00  0.00    -0.372 N  
HETATM    8  O   UNL     1     -10.133  19.717  69.153  1.00  0.00    -0.438 OA 
BRANCH   4   9
HETATM    9  N   UNL     1      -9.411  17.181  65.970  1.00  0.00    -0.504 NA 
HETATM   10  H   UNL     1     -10.332  17.417  65.601  1.00  0.00     0.000 HD 
BRANCH   9  11
HETATM   11  C   UNL     1      -9.128  15.762  66.053  1.00  0.00    -0.326 C  
BRANCH  11  12
HETATM   12  C   UNL     1      -8.056  15.507  67.118  1.00  0.00    -0.216 C  
BRANCH  12  13
HETATM   13  S   UNL     1      -8.381  14.008  68.106  1.00  0.00    -0.173 SA 
BRANCH  13  14
HETATM   14  C   UNL     1     -10.203  14.009  68.075  1.00  0.00    -0.238 C  
BRANCH  14  15
HETATM   15  C   UNL     1     -10.735  12.763  68.672  1.00  0.00    -0.246 A  
HETATM   16  C   UNL     1     -11.924  12.432  69.280  1.00  0.00    -0.308 A  
HETATM   17  C   UNL     1     -11.814  11.068  69.645  1.00  0.00    -0.414 A  
HETATM   18  C   UNL     1     -10.562  10.653  69.244  1.00  0.00    -0.233 A  
HETATM   19  O   UNL     1      -9.896  11.689  68.659  1.00  0.00    -0.203 OA 
BRANCH  18  20
HETATM   20  C   UNL     1      -9.823   9.359  69.340  1.00  0.00    -0.178 C  
BRANCH  20  21
HETATM   21  N   UNL     1     -10.464   8.261  68.589  1.00  0.00    -0.198 NA 
HETATM   22  C   UNL     1     -10.215   8.380  67.149  1.00  0.00    -0.292 C  
HETATM   23  C   UNL     1      -9.946   6.979  69.072  1.00  0.00    -0.164 C  
ENDBRANCH  20  21
ENDBRANCH  18  20
ENDBRANCH  14  15
ENDBRANCH  13  14
ENDBRANCH  12  13
ENDBRANCH  11  12
ENDBRANCH   9  11
ENDBRANCH   4   9
ENDBRANCH   2   4
TORSDOF 9
ENDMDL
MODEL      172
REMARK 921   NORMALIZED FREE ENERGY PREDICTED BY IDOCK:   -4.05 KCAL/MOL
REMARK 922        TOTAL FREE ENERGY PREDICTED BY IDOCK:   -6.57 KCAL/MOL
REMARK 923 INTER-LIGAND FREE ENERGY PREDICTED BY IDOCK:   -6.06 KCAL/MOL
REMARK 924 INTRA-LIGAND FREE ENERGY PREDICTED BY IDOCK:   -0.51 KCAL/MOL
REMARK 927      BINDING AFFINITY PREDICTED BY RF-SCORE:    0.00 PKD
ROOT
HETATM    1  C   UNL     1      -9.270  10.092  62.449  1.00  0.00    -0.296 C  
HETATM    2  N   UNL     1     -10.008  10.122  63.692  1.00  0.00    -0.495 NA 
HETATM    3  H   UNL     1     -10.930   9.688  63.664  1.00  0.00     0.000 HD 
ENDROOT
BRANCH   2   4
HETATM    4  C   UNL     1      -9.640  10.659  64.914  1.00  0.00    -0.269 C  
HETATM    5  C   UNL     1      -8.329  10.720  65.238  1.00  0.00    -0.086 C  
HETATM    6  O   UNL     1      -8.614  11.783  67.286  1.00  0.00    -0.149 OA 
HETATM    7  N   UNL     1      -7.830  11.278  66.472  1.00  0.00    -0.152 N  
HETATM    8  O   UNL     1      -6.602  11.211  66.625  1.00  0.00    -0.119 OA 
BRANCH   4   9
HETATM    9  N   UNL     1     -10.642  11.087  65.763  1.00  0.00    -0.228 NA 
HETATM   10  H   UNL     1     -10.946  10.402  66.455  1.00  0.00     0.000 HD 
BRANCH   9  11
HETATM   11  C   UNL     1     -11.328  12.362  65.818  1.00  0.00    -0.352 C  
BRANCH  11  12
HETATM   12  C   UNL     1     -11.114  13.126  64.507  1.00  0.00    -0.356 C  
BRANCH  12  13
HETATM   13  S   UNL     1     -11.007  14.932  64.748  1.00  0.00    -0.333 SA 
BRANCH  13  14
HETATM   14  C   UNL     1      -9.621  15.002  65.929  1.00  0.00    -0.321 C  
BRANCH  14  15
HETATM   15  C   UNL     1      -9.988  15.806  67.116  1.00  0.00    -0.242 A  
HETATM   16  C   UNL     1      -9.970  17.154  67.395  1.00  0.00    -0.280 A  
HETATM   17  C   UNL     1     -10.443  17.288  68.723  1.00  0.00    -0.340 A  
HETATM   18  C   UNL     1     -10.713  16.014  69.176  1.00  0.00    -0.272 A  
HETATM   19  O   UNL     1     -10.426  15.106  68.201  1.00  0.00    -0.239 OA 
BRANCH  18  20
HETATM   20  C   UNL     1     -11.216  15.463  70.469  1.00  0.00    -0.333 C  
BRANCH  20  21
HETATM   21  N   UNL     1     -12.522  14.786  70.350  1.00  0.00    -0.338 NA 
HETATM   22  C   UNL     1     -12.427  13.368  70.713  1.00  0.00    -0.341 C  
HETATM   23  C   UNL     1     -13.493  15.451  71.223  1.00  0.00    -0.519 C  
ENDBRANCH  20  21
ENDBRANCH  18  20
ENDBRANCH  14  15
ENDBRANCH  13  14
ENDBRANCH  12  13
ENDBRANCH  11  12
ENDBRANCH   9  11
ENDBRANCH   4   9
ENDBRANCH   2   4
TORSDOF 9
ENDMDL
MODEL      173
REMARK 921   NORMALIZED FREE ENERGY PREDICTED BY IDOCK:   -4.05 KCAL/MOL
REMARK 922        TOTAL FREE ENERGY PREDICTED BY IDOCK:   -6.56 KCAL/MOL
REMARK 923 INTER-LIGAND FREE ENERGY PREDICTED BY IDOCK:   -6.01 KCAL/MOL
REMARK 924 INTRA-LIGAND FREE ENERGY PREDICTED BY IDOCK:   -0.55 KCAL/MOL
REMARK 927      BINDING AFFINITY PREDICTED BY RF-SCORE:    0.00 PKD
ROOT
HETATM    1  C   UNL     1      -9.697  11.024  62.970  1.00  0.00    -0.354 C  
HETATM    2  N   UNL     1     -10.399  10.681  64.186  1.00  0.00    -0.424 NA 
HETATM    3  H   UNL     1     -11.255  10.142  64.060  1.00  0.00     0.000 HD 
ENDROOT
BRANCH   2   4
HETATM    4  C   UNL     1     -10.074  10.982  65.498  1.00  0.00    -0.261 C  
HETATM    5  C   UNL     1      -8.789  10.867  65.901  1.00  0.00    -0.186 C  
HETATM    6  O   UNL     1      -9.127  11.619  68.075  1.00  0.00    -0.164 OA 
HETATM    7  N   UNL     1      -8.333  11.174  67.235  1.00  0.00    -0.131 N  
HETATM    8  O   UNL     1      -7.129  10.967  67.444  1.00  0.00    -0.086 OA 
BRANCH   4   9
HETATM    9  N   UNL     1     -11.094  11.366  66.347  1.00  0.00    -0.277 NA 
HETATM   10  H   UNL     1     -11.400  10.651  67.007  1.00  0.00     0.000 HD 
BRANCH   9  11
HETATM   11  C   UNL     1     -11.794  12.631  66.442  1.00  0.00    -0.402 C  
BRANCH  11  12
HETATM   12  C   UNL     1     -12.607  12.874  65.165  1.00  0.00    -0.471 C  
BRANCH  12  13
HETATM   13  S   UNL     1     -12.169  14.437  64.332  1.00  0.00    -0.392 SA 
BRANCH  13  14
HETATM   14  C   UNL     1     -10.465  14.645  64.946  1.00  0.00    -0.387 C  
BRANCH  14  15
HETATM   15  C   UNL     1     -10.322  15.935  65.658  1.00  0.00    -0.390 A  
HETATM   16  C   UNL     1     -10.751  17.217  65.398  1.00  0.00    -0.097 A  
HETATM   17  C   UNL     1     -10.280  18.014  66.470  1.00  0.00    -0.383 A  
HETATM   18  C   UNL     1      -9.587  17.172  67.313  1.00  0.00    -0.245 A  
HETATM   19  O   UNL     1      -9.601  15.903  66.814  1.00  0.00    -0.221 OA 
BRANCH  18  20
HETATM   20  C   UNL     1      -8.844  17.373  68.592  1.00  0.00    -0.258 C  
BRANCH  20  21
HETATM   21  N   UNL     1      -7.545  18.052  68.416  1.00  0.00    -0.275 NA 
HETATM   22  C   UNL     1      -7.615  19.458  68.825  1.00  0.00    -0.363 C  
HETATM   23  C   UNL     1      -6.526  17.360  69.211  1.00  0.00    -0.245 C  
ENDBRANCH  20  21
ENDBRANCH  18  20
ENDBRANCH  14  15
ENDBRANCH  13  14
ENDBRANCH  12  13
ENDBRANCH  11  12
ENDBRANCH   9  11
ENDBRANCH   4   9
ENDBRANCH   2   4
TORSDOF 9
ENDMDL
MODEL      174
REMARK 921   NORMALIZED FREE ENERGY PREDICTED BY IDOCK:   -4.04 KCAL/MOL
REMARK 922        TOTAL FREE ENERGY PREDICTED BY IDOCK:   -6.55 KCAL/MOL
REMARK 923 INTER-LIGAND FREE ENERGY PREDICTED BY IDOCK:   -5.98 KCAL/MOL
REMARK 924 INTRA-LIGAND FREE ENERGY PREDICTED BY IDOCK:   -0.58 KCAL/MOL
REMARK 927      BINDING AFFINITY PREDICTED BY RF-SCORE:    0.00 PKD
ROOT
HETATM    1  C   UNL     1      -8.854  14.015  67.571  1.00  0.00    -0.199 C  
HETATM    2  N   UNL     1      -9.178  13.362  66.323  1.00  0.00    -0.468 NA 
HETATM    3  H   UNL     1      -8.387  12.963  65.819  1.00  0.00     0.000 HD 
ENDROOT
BRANCH   2   4
HETATM    4  C   UNL     1     -10.412  13.202  65.716  1.00  0.00    -0.283 C  
HETATM    5  C   UNL     1     -10.957  14.242  65.048  1.00  0.00    -0.387 C  
HETATM    6  O   UNL     1     -12.857  13.118  64.315  1.00  0.00    -0.658 OA 
HETATM    7  N   UNL     1     -12.225  14.182  64.360  1.00  0.00    -0.454 N  
HETATM    8  O   UNL     1     -12.596  15.244  63.838  1.00  0.00    -0.765 OA 
BRANCH   4   9
HETATM    9  N   UNL     1     -11.044  11.980  65.845  1.00  0.00    -0.313 NA 
HETATM   10  H   UNL     1     -11.863  11.851  65.250  1.00  0.00     0.000 HD 
BRANCH   9  11
HETATM   11  C   UNL     1     -10.720  10.854  66.697  1.00  0.00    -0.230 C  
BRANCH  11  12
HETATM   12  C   UNL     1      -9.770   9.901  65.962  1.00  0.00    -0.247 C  
BRANCH  12  13
HETATM   13  S   UNL     1      -8.317   9.436  66.964  1.00  0.00    -0.128 SA 
BRANCH  13  14
HETATM   14  C   UNL     1      -9.067   9.468  68.625  1.00  0.00    -0.132 C  
BRANCH  14  15
HETATM   15  C   UNL     1      -9.739   8.182  68.917  1.00  0.00    -0.156 A  
HETATM   16  C   UNL     1     -10.830   7.831  69.680  1.00  0.00    -0.185 A  
HETATM   17  C   UNL     1     -10.963   6.427  69.554  1.00  0.00    -0.421 A  
HETATM   18  C   UNL     1      -9.942   6.007  68.729  1.00  0.00    -0.150 A  
HETATM   19  O   UNL     1      -9.186   7.075  68.347  1.00  0.00    -0.131 OA 
BRANCH  18  20
HETATM   20  C   UNL     1      -9.513   4.673  68.214  1.00  0.00    -0.147 C  
BRANCH  20  21
HETATM   21  N   UNL     1      -9.292   4.651  66.754  1.00  0.00    -0.136 NA 
HETATM   22  C   UNL     1      -8.760   3.357  66.313  1.00  0.00    -0.126 C  
HETATM   23  C   UNL     1     -10.558   4.919  66.069  1.00  0.00    -0.261 C  
ENDBRANCH  20  21
ENDBRANCH  18  20
ENDBRANCH  14  15
ENDBRANCH  13  14
ENDBRANCH  12  13
ENDBRANCH  11  12
ENDBRANCH   9  11
ENDBRANCH   4   9
ENDBRANCH   2   4
TORSDOF 9
ENDMDL
MODEL      175
REMARK 921   NORMALIZED FREE ENERGY PREDICTED BY IDOCK:   -4.04 KCAL/MOL
REMARK 922        TOTAL FREE ENERGY PREDICTED BY IDOCK:   -6.55 KCAL/MOL
REMARK 923 INTER-LIGAND FREE ENERGY PREDICTED BY IDOCK:   -6.06 KCAL/MOL
REMARK 924 INTRA-LIGAND FREE ENERGY PREDICTED BY IDOCK:   -0.49 KCAL/MOL
REMARK 927      BINDING AFFINITY PREDICTED BY RF-SCORE:    0.00 PKD
ROOT
HETATM    1  C   UNL     1     -11.400  16.255  70.188  1.00  0.00    -0.282 C  
HETATM    2  N   UNL     1     -11.211  16.580  68.792  1.00  0.00    -0.315 NA 
HETATM    3  H   UNL     1     -11.943  16.251  68.163  1.00  0.00     0.000 HD 
ENDROOT
BRANCH   2   4
HETATM    4  C   UNL     1     -10.176  17.273  68.188  1.00  0.00    -0.343 C  
HETATM    5  C   UNL     1     -10.221  18.623  68.151  1.00  0.00    -0.382 C  
HETATM    6  O   UNL     1      -8.164  18.926  67.109  1.00  0.00    -0.262 OA 
HETATM    7  N   UNL     1      -9.189  19.447  67.569  1.00  0.00    -0.302 N  
HETATM    8  O   UNL     1      -9.415  20.666  67.580  1.00  0.00    -0.400 OA 
BRANCH   4   9
HETATM    9  N   UNL     1      -9.148  16.541  67.625  1.00  0.00    -0.198 NA 
HETATM   10  H   UNL     1      -8.865  16.840  66.692  1.00  0.00     0.000 HD 
BRANCH   9  11
HETATM   11  C   UNL     1      -8.411  15.414  68.160  1.00  0.00    -0.145 C  
BRANCH  11  12
HETATM   12  C   UNL     1      -8.516  14.221  67.204  1.00  0.00    -0.200 C  
BRANCH  12  13
HETATM   13  S   UNL     1      -9.038  12.686  68.040  1.00  0.00    -0.211 SA 
BRANCH  13  14
HETATM   14  C   UNL     1     -10.845  12.918  68.009  1.00  0.00    -0.241 C  
BRANCH  14  15
HETATM   15  C   UNL     1     -11.470  12.300  69.200  1.00  0.00    -0.296 A  
HETATM   16  C   UNL     1     -12.414  12.725  70.107  1.00  0.00    -0.126 A  
HETATM   17  C   UNL     1     -12.581  11.663  71.028  1.00  0.00    -0.431 A  
HETATM   18  C   UNL     1     -11.724  10.659  70.632  1.00  0.00    -0.356 A  
HETATM   19  O   UNL     1     -11.036  11.049  69.522  1.00  0.00    -0.241 OA 
BRANCH  18  20
HETATM   20  C   UNL     1     -11.405   9.302  71.167  1.00  0.00    -0.342 C  
BRANCH  20  21
HETATM   21  N   UNL     1     -12.573   8.401  71.217  1.00  0.00    -0.262 NA 
HETATM   22  C   UNL     1     -12.167   6.993  71.164  1.00  0.00    -0.382 C  
HETATM   23  C   UNL     1     -13.323   8.649  72.451  1.00  0.00    -0.343 C  
ENDBRANCH  20  21
ENDBRANCH  18  20
ENDBRANCH  14  15
ENDBRANCH  13  14
ENDBRANCH  12  13
ENDBRANCH  11  12
ENDBRANCH   9  11
ENDBRANCH   4   9
ENDBRANCH   2   4
TORSDOF 9
ENDMDL
MODEL      176
REMARK 921   NORMALIZED FREE ENERGY PREDICTED BY IDOCK:   -4.04 KCAL/MOL
REMARK 922        TOTAL FREE ENERGY PREDICTED BY IDOCK:   -6.55 KCAL/MOL
REMARK 923 INTER-LIGAND FREE ENERGY PREDICTED BY IDOCK:   -6.10 KCAL/MOL
REMARK 924 INTRA-LIGAND FREE ENERGY PREDICTED BY IDOCK:   -0.45 KCAL/MOL
REMARK 927      BINDING AFFINITY PREDICTED BY RF-SCORE:    0.00 PKD
ROOT
HETATM    1  C   UNL     1     -12.055   6.426  71.584  1.00  0.00    -0.262 C  
HETATM    2  N   UNL     1     -10.861   6.483  70.773  1.00  0.00    -0.247 NA 
HETATM    3  H   UNL     1     -10.058   6.937  71.207  1.00  0.00     0.000 HD 
ENDROOT
BRANCH   2   4
HETATM    4  C   UNL     1     -10.653   6.009  69.488  1.00  0.00    -0.296 C  
HETATM    5  C   UNL     1     -10.139   4.770  69.319  1.00  0.00    -0.147 C  
HETATM    6  O   UNL     1     -10.219   4.768  66.995  1.00  0.00    -0.203 OA 
HETATM    7  N   UNL     1      -9.901   4.167  68.030  1.00  0.00    -0.081 N  
HETATM    8  O   UNL     1      -9.381   3.042  68.060  1.00  0.00    -0.190 OA 
BRANCH   4   9
HETATM    9  N   UNL     1     -10.961   6.843  68.431  1.00  0.00    -0.450 NA 
HETATM   10  H   UNL     1     -11.884   6.699  68.021  1.00  0.00     0.000 HD 
BRANCH   9  11
HETATM   11  C   UNL     1     -10.172   7.892  67.817  1.00  0.00    -0.216 C  
BRANCH  11  12
HETATM   12  C   UNL     1     -10.875   9.243  67.992  1.00  0.00    -0.106 C  
BRANCH  12  13
HETATM   13  S   UNL     1     -10.353  10.123  69.502  1.00  0.00    -0.254 SA 
BRANCH  13  14
HETATM   14  C   UNL     1     -11.828   9.854  70.539  1.00  0.00    -0.270 C  
BRANCH  14  15
HETATM   15  C   UNL     1     -12.397  11.147  70.981  1.00  0.00    -0.382 A  
HETATM   16  C   UNL     1     -13.222  11.519  72.017  1.00  0.00    -0.443 A  
HETATM   17  C   UNL     1     -13.407  12.917  71.892  1.00  0.00    -0.530 A  
HETATM   18  C   UNL     1     -12.690  13.312  70.783  1.00  0.00    -0.209 A  
HETATM   19  O   UNL     1     -12.080  12.232  70.217  1.00  0.00    -0.341 OA 
BRANCH  18  20
HETATM   20  C   UNL     1     -12.477  14.624  70.103  1.00  0.00    -0.317 C  
BRANCH  20  21
HETATM   21  N   UNL     1     -11.303  15.363  70.608  1.00  0.00    -0.304 NA 
HETATM   22  C   UNL     1     -10.806  16.321  69.615  1.00  0.00    -0.345 C  
HETATM   23  C   UNL     1     -11.669  16.074  71.835  1.00  0.00    -0.504 C  
ENDBRANCH  20  21
ENDBRANCH  18  20
ENDBRANCH  14  15
ENDBRANCH  13  14
ENDBRANCH  12  13
ENDBRANCH  11  12
ENDBRANCH   9  11
ENDBRANCH   4   9
ENDBRANCH   2   4
TORSDOF 9
ENDMDL
MODEL      177
REMARK 921   NORMALIZED FREE ENERGY PREDICTED BY IDOCK:   -4.03 KCAL/MOL
REMARK 922        TOTAL FREE ENERGY PREDICTED BY IDOCK:   -6.54 KCAL/MOL
REMARK 923 INTER-LIGAND FREE ENERGY PREDICTED BY IDOCK:   -5.81 KCAL/MOL
REMARK 924 INTRA-LIGAND FREE ENERGY PREDICTED BY IDOCK:   -0.73 KCAL/MOL
REMARK 927      BINDING AFFINITY PREDICTED BY RF-SCORE:    0.00 PKD
ROOT
HETATM    1  C   UNL     1     -11.046   6.303  68.143  1.00  0.00    -0.266 C  
HETATM    2  N   UNL     1     -10.912   7.740  68.223  1.00  0.00    -0.427 NA 
HETATM    3  H   UNL     1     -11.784   8.265  68.159  1.00  0.00     0.000 HD 
ENDROOT
BRANCH   2   4
HETATM    4  C   UNL     1      -9.768   8.504  68.376  1.00  0.00    -0.155 C  
HETATM    5  C   UNL     1      -9.271   8.706  69.616  1.00  0.00    -0.157 C  
HETATM    6  O   UNL     1      -7.409   9.933  68.958  1.00  0.00    -0.073 OA 
HETATM    7  N   UNL     1      -8.075   9.465  69.890  1.00  0.00    -0.120 N  
HETATM    8  O   UNL     1      -7.790   9.589  71.091  1.00  0.00    -0.326 OA 
BRANCH   4   9
HETATM    9  N   UNL     1      -9.196   9.048  67.242  1.00  0.00    -0.133 NA 
HETATM   10  H   UNL     1      -8.280   8.674  66.996  1.00  0.00     0.000 HD 
BRANCH   9  11
HETATM   11  C   UNL     1      -9.702  10.071  66.349  1.00  0.00    -0.210 C  
BRANCH  11  12
HETATM   12  C   UNL     1      -9.842  11.398  67.103  1.00  0.00    -0.190 C  
BRANCH  12  13
HETATM   13  S   UNL     1     -11.566  11.990  67.182  1.00  0.00    -0.277 SA 
BRANCH  13  14
HETATM   14  C   UNL     1     -11.337  13.689  66.561  1.00  0.00    -0.319 C  
BRANCH  14  15
HETATM   15  C   UNL     1     -11.385  14.661  67.676  1.00  0.00    -0.336 A  
HETATM   16  C   UNL     1     -10.717  15.834  67.944  1.00  0.00    -0.302 A  
HETATM   17  C   UNL     1     -11.213  16.294  69.188  1.00  0.00    -0.309 A  
HETATM   18  C   UNL     1     -12.146  15.370  69.606  1.00  0.00    -0.327 A  
HETATM   19  O   UNL     1     -12.246  14.366  68.690  1.00  0.00    -0.267 OA 
BRANCH  18  20
HETATM   20  C   UNL     1     -13.012  15.253  70.816  1.00  0.00    -0.436 C  
BRANCH  20  21
HETATM   21  N   UNL     1     -12.484  14.315  71.827  1.00  0.00    -0.337 NA 
HETATM   22  C   UNL     1     -12.032  15.023  73.030  1.00  0.00    -0.293 C  
HETATM   23  C   UNL     1     -13.529  13.354  72.188  1.00  0.00    -0.552 C  
ENDBRANCH  20  21
ENDBRANCH  18  20
ENDBRANCH  14  15
ENDBRANCH  13  14
ENDBRANCH  12  13
ENDBRANCH  11  12
ENDBRANCH   9  11
ENDBRANCH   4   9
ENDBRANCH   2   4
TORSDOF 9
ENDMDL
MODEL      178
REMARK 921   NORMALIZED FREE ENERGY PREDICTED BY IDOCK:   -4.03 KCAL/MOL
REMARK 922        TOTAL FREE ENERGY PREDICTED BY IDOCK:   -6.54 KCAL/MOL
REMARK 923 INTER-LIGAND FREE ENERGY PREDICTED BY IDOCK:   -5.88 KCAL/MOL
REMARK 924 INTRA-LIGAND FREE ENERGY PREDICTED BY IDOCK:   -0.66 KCAL/MOL
REMARK 927      BINDING AFFINITY PREDICTED BY RF-SCORE:    0.00 PKD
ROOT
HETATM    1  C   UNL     1     -12.577  12.255  64.936  1.00  0.00    -0.155 C  
HETATM    2  N   UNL     1     -11.747  12.915  65.919  1.00  0.00    -0.377 NA 
HETATM    3  H   UNL     1     -11.738  12.485  66.843  1.00  0.00     0.000 HD 
ENDROOT
BRANCH   2   4
HETATM    4  C   UNL     1     -10.962  14.047  65.781  1.00  0.00    -0.294 C  
HETATM    5  C   UNL     1     -11.487  15.144  65.190  1.00  0.00    -0.304 C  
HETATM    6  O   UNL     1      -9.622  16.505  65.460  1.00  0.00    -0.502 OA 
HETATM    7  N   UNL     1     -10.770  16.383  65.014  1.00  0.00    -0.344 N  
HETATM    8  O   UNL     1     -11.388  17.272  64.409  1.00  0.00    -1.052 OA 
BRANCH   4   9
HETATM    9  N   UNL     1      -9.660  13.993  66.238  1.00  0.00    -0.375 NA 
HETATM   10  H   UNL     1      -8.944  14.142  65.527  1.00  0.00     0.000 HD 
BRANCH   9  11
HETATM   11  C   UNL     1      -9.156  13.756  67.576  1.00  0.00    -0.209 C  
BRANCH  11  12
HETATM   12  C   UNL     1      -7.670  13.384  67.515  1.00  0.00    -0.176 C  
BRANCH  12  13
HETATM   13  S   UNL     1      -7.154  12.301  68.890  1.00  0.00    -0.054 SA 
BRANCH  13  14
HETATM   14  C   UNL     1      -7.305  10.677  68.076  1.00  0.00    -0.088 C  
BRANCH  14  15
HETATM   15  C   UNL     1      -8.713  10.221  68.082  1.00  0.00    -0.123 A  
HETATM   16  C   UNL     1      -9.725  10.246  67.150  1.00  0.00    -0.210 A  
HETATM   17  C   UNL     1     -10.850   9.656  67.775  1.00  0.00    -0.278 A  
HETATM   18  C   UNL     1     -10.459   9.314  69.051  1.00  0.00    -0.216 A  
HETATM   19  O   UNL     1      -9.157   9.668  69.246  1.00  0.00    -0.152 OA 
BRANCH  18  20
HETATM   20  C   UNL     1     -11.155   8.681  70.210  1.00  0.00    -0.217 C  
BRANCH  20  21
HETATM   21  N   UNL     1     -10.359   7.626  70.868  1.00  0.00    -0.201 NA 
HETATM   22  C   UNL     1     -10.189   7.896  72.299  1.00  0.00    -0.241 C  
HETATM   23  C   UNL     1     -11.027   6.334  70.689  1.00  0.00    -0.309 C  
ENDBRANCH  20  21
ENDBRANCH  18  20
ENDBRANCH  14  15
ENDBRANCH  13  14
ENDBRANCH  12  13
ENDBRANCH  11  12
ENDBRANCH   9  11
ENDBRANCH   4   9
ENDBRANCH   2   4
TORSDOF 9
ENDMDL
MODEL      179
REMARK 921   NORMALIZED FREE ENERGY PREDICTED BY IDOCK:   -4.03 KCAL/MOL
REMARK 922        TOTAL FREE ENERGY PREDICTED BY IDOCK:   -6.54 KCAL/MOL
REMARK 923 INTER-LIGAND FREE ENERGY PREDICTED BY IDOCK:   -5.72 KCAL/MOL
REMARK 924 INTRA-LIGAND FREE ENERGY PREDICTED BY IDOCK:   -0.81 KCAL/MOL
REMARK 927      BINDING AFFINITY PREDICTED BY RF-SCORE:    0.00 PKD
ROOT
HETATM    1  C   UNL     1     -11.243  16.338  68.993  1.00  0.00    -0.326 C  
HETATM    2  N   UNL     1     -11.841  15.206  68.322  1.00  0.00    -0.498 NA 
HETATM    3  H   UNL     1     -12.690  15.408  67.795  1.00  0.00     0.000 HD 
ENDROOT
BRANCH   2   4
HETATM    4  C   UNL     1     -11.423  13.886  68.294  1.00  0.00    -0.311 C  
HETATM    5  C   UNL     1     -11.972  13.003  69.157  1.00  0.00    -0.271 C  
HETATM    6  O   UNL     1     -10.825  11.134  68.385  1.00  0.00    -0.179 OA 
HETATM    7  N   UNL     1     -11.629  11.602  69.202  1.00  0.00    -0.285 N  
HETATM    8  O   UNL     1     -12.196  10.946  70.088  1.00  0.00    -0.300 OA 
BRANCH   4   9
HETATM    9  N   UNL     1     -10.437  13.538  67.391  1.00  0.00    -0.247 NA 
HETATM   10  H   UNL     1      -9.952  12.664  67.595  1.00  0.00     0.000 HD 
BRANCH   9  11
HETATM   11  C   UNL     1      -9.986  14.227  66.198  1.00  0.00    -0.314 C  
BRANCH  11  12
HETATM   12  C   UNL     1     -10.924  13.911  65.028  1.00  0.00    -0.368 C  
BRANCH  12  13
HETATM   13  S   UNL     1     -11.777  12.309  65.216  1.00  0.00    -0.333 SA 
BRANCH  13  14
HETATM   14  C   UNL     1     -10.900  11.344  63.943  1.00  0.00    -0.393 C  
BRANCH  14  15
HETATM   15  C   UNL     1      -9.775  10.592  64.542  1.00  0.00    -0.309 A  
HETATM   16  C   UNL     1      -8.412  10.609  64.353  1.00  0.00    -0.070 A  
HETATM   17  C   UNL     1      -7.880   9.637  65.235  1.00  0.00    -0.115 A  
HETATM   18  C   UNL     1      -8.951   9.082  65.903  1.00  0.00    -0.190 A  
HETATM   19  O   UNL     1     -10.111   9.655  65.474  1.00  0.00    -0.290 OA 
BRANCH  18  20
HETATM   20  C   UNL     1      -9.081   8.015  66.938  1.00  0.00    -0.152 C  
BRANCH  20  21
HETATM   21  N   UNL     1     -10.455   7.869  67.460  1.00  0.00    -0.259 NA 
HETATM   22  C   UNL     1     -11.070   6.617  67.005  1.00  0.00    -0.325 C  
HETATM   23  C   UNL     1     -10.421   7.894  68.925  1.00  0.00    -0.190 C  
ENDBRANCH  20  21
ENDBRANCH  18  20
ENDBRANCH  14  15
ENDBRANCH  13  14
ENDBRANCH  12  13
ENDBRANCH  11  12
ENDBRANCH   9  11
ENDBRANCH   4   9
ENDBRANCH   2   4
TORSDOF 9
ENDMDL
MODEL      180
REMARK 921   NORMALIZED FREE ENERGY PREDICTED BY IDOCK:   -4.02 KCAL/MOL
REMARK 922        TOTAL FREE ENERGY PREDICTED BY IDOCK:   -6.52 KCAL/MOL
REMARK 923 INTER-LIGAND FREE ENERGY PREDICTED BY IDOCK:   -6.23 KCAL/MOL
REMARK 924 INTRA-LIGAND FREE ENERGY PREDICTED BY IDOCK:   -0.29 KCAL/MOL
REMARK 927      BINDING AFFINITY PREDICTED BY RF-SCORE:    0.00 PKD
ROOT
HETATM    1  C   UNL     1     -10.510   8.582  66.855  1.00  0.00    -0.275 C  
HETATM    2  N   UNL     1     -11.037   7.262  67.113  1.00  0.00    -0.563 NA 
HETATM    3  H   UNL     1     -12.017   7.126  66.868  1.00  0.00     0.000 HD 
ENDROOT
BRANCH   2   4
HETATM    4  C   UNL     1     -10.399   6.155  67.648  1.00  0.00    -0.201 C  
HETATM    5  C   UNL     1     -10.071   5.127  66.834  1.00  0.00    -0.226 C  
HETATM    6  O   UNL     1      -9.018   3.834  68.455  1.00  0.00    -0.104 OA 
HETATM    7  N   UNL     1      -9.386   3.937  67.277  1.00  0.00    -0.178 N  
HETATM    8  O   UNL     1      -9.205   3.074  66.406  1.00  0.00    -0.156 OA 
BRANCH   4   9
HETATM    9  N   UNL     1     -10.148   6.145  69.007  1.00  0.00    -0.161 NA 
HETATM   10  H   UNL     1      -9.162   6.100  69.265  1.00  0.00     0.000 HD 
BRANCH   9  11
HETATM   11  C   UNL     1     -11.074   6.189  70.120  1.00  0.00    -0.378 C  
BRANCH  11  12
HETATM   12  C   UNL     1     -10.435   6.929  71.300  1.00  0.00    -0.208 C  
BRANCH  12  13
HETATM   13  S   UNL     1     -11.484   8.277  71.943  1.00  0.00    -0.336 SA 
BRANCH  13  14
HETATM   14  C   UNL     1     -11.527   9.358  70.475  1.00  0.00    -0.262 C  
BRANCH  14  15
HETATM   15  C   UNL     1     -12.090  10.682  70.821  1.00  0.00    -0.374 A  
HETATM   16  C   UNL     1     -12.993  11.115  71.765  1.00  0.00    -0.526 A  
HETATM   17  C   UNL     1     -13.120  12.513  71.578  1.00  0.00    -0.373 A  
HETATM   18  C   UNL     1     -12.294  12.846  70.526  1.00  0.00    -0.283 A  
HETATM   19  O   UNL     1     -11.672  11.729  70.054  1.00  0.00    -0.320 OA 
BRANCH  18  20
HETATM   20  C   UNL     1     -11.979  14.127  69.826  1.00  0.00    -0.339 C  
BRANCH  20  21
HETATM   21  N   UNL     1     -11.054  14.996  70.581  1.00  0.00    -0.239 NA 
HETATM   22  C   UNL     1     -10.641  16.157  69.786  1.00  0.00    -0.312 C  
HETATM   23  C   UNL     1     -11.711  15.451  71.808  1.00  0.00    -0.416 C  
ENDBRANCH  20  21
ENDBRANCH  18  20
ENDBRANCH  14  15
ENDBRANCH  13  14
ENDBRANCH  12  13
ENDBRANCH  11  12
ENDBRANCH   9  11
ENDBRANCH   4   9
ENDBRANCH   2   4
TORSDOF 9
ENDMDL
MODEL      181
REMARK 921   NORMALIZED FREE ENERGY PREDICTED BY IDOCK:   -4.01 KCAL/MOL
REMARK 922        TOTAL FREE ENERGY PREDICTED BY IDOCK:   -6.50 KCAL/MOL
REMARK 923 INTER-LIGAND FREE ENERGY PREDICTED BY IDOCK:   -6.54 KCAL/MOL
REMARK 924 INTRA-LIGAND FREE ENERGY PREDICTED BY IDOCK:    0.04 KCAL/MOL
REMARK 927      BINDING AFFINITY PREDICTED BY RF-SCORE:    0.00 PKD
ROOT
HETATM    1  C   UNL     1     -10.875  10.310  67.648  1.00  0.00    -0.307 C  
HETATM    2  N   UNL     1     -12.005  11.034  68.186  1.00  0.00    -0.763 NA 
HETATM    3  H   UNL     1     -12.754  11.232  67.523  1.00  0.00     0.000 HD 
ENDROOT
BRANCH   2   4
HETATM    4  C   UNL     1     -12.213  11.497  69.474  1.00  0.00    -0.221 C  
HETATM    5  C   UNL     1     -12.844  10.701  70.366  1.00  0.00    -0.207 C  
HETATM    6  O   UNL     1     -12.680  12.152  72.176  1.00  0.00    -0.120 OA 
HETATM    7  N   UNL     1     -13.095  11.071  71.738  1.00  0.00    -0.480 N  
HETATM    8  O   UNL     1     -13.728  10.238  72.404  1.00  0.00    -0.207 OA 
BRANCH   4   9
HETATM    9  N   UNL     1     -11.783  12.773  69.782  1.00  0.00    -0.442 NA 
HETATM   10  H   UNL     1     -11.091  12.829  70.529  1.00  0.00     0.000 HD 
BRANCH   9  11
HETATM   11  C   UNL     1     -12.166  14.045  69.203  1.00  0.00    -0.262 C  
BRANCH  11  12
HETATM   12  C   UNL     1     -11.752  14.091  67.728  1.00  0.00    -0.368 C  
BRANCH  12  13
HETATM   13  S   UNL     1      -9.975  14.435  67.499  1.00  0.00    -0.224 SA 
BRANCH  13  14
HETATM   14  C   UNL     1     -10.070  15.658  66.150  1.00  0.00    -0.313 C  
BRANCH  14  15
HETATM   15  C   UNL     1      -9.771  17.016  66.656  1.00  0.00    -0.277 A  
HETATM   16  C   UNL     1     -10.379  17.845  67.572  1.00  0.00    -0.383 A  
HETATM   17  C   UNL     1      -9.603  19.029  67.607  1.00  0.00    -0.362 A  
HETATM   18  C   UNL     1      -8.575  18.853  66.706  1.00  0.00    -0.299 A  
HETATM   19  O   UNL     1      -8.681  17.629  66.115  1.00  0.00    -0.445 OA 
BRANCH  18  20
HETATM   20  C   UNL     1      -7.436  19.709  66.259  1.00  0.00    -0.290 C  
BRANCH  20  21
HETATM   21  N   UNL     1      -6.170  19.414  66.959  1.00  0.00    -0.179 NA 
HETATM   22  C   UNL     1      -6.382  19.243  68.400  1.00  0.00    -0.233 C  
HETATM   23  C   UNL     1      -5.582  18.192  66.403  1.00  0.00    -0.161 C  
ENDBRANCH  20  21
ENDBRANCH  18  20
ENDBRANCH  14  15
ENDBRANCH  13  14
ENDBRANCH  12  13
ENDBRANCH  11  12
ENDBRANCH   9  11
ENDBRANCH   4   9
ENDBRANCH   2   4
TORSDOF 9
ENDMDL
MODEL      182
REMARK 921   NORMALIZED FREE ENERGY PREDICTED BY IDOCK:   -4.00 KCAL/MOL
REMARK 922        TOTAL FREE ENERGY PREDICTED BY IDOCK:   -6.50 KCAL/MOL
REMARK 923 INTER-LIGAND FREE ENERGY PREDICTED BY IDOCK:   -5.98 KCAL/MOL
REMARK 924 INTRA-LIGAND FREE ENERGY PREDICTED BY IDOCK:   -0.52 KCAL/MOL
REMARK 927      BINDING AFFINITY PREDICTED BY RF-SCORE:    0.00 PKD
ROOT
HETATM    1  C   UNL     1     -10.687   4.263  64.373  1.00  0.00    -0.043 C  
HETATM    2  N   UNL     1     -10.962   4.705  65.721  1.00  0.00    -0.812 NA 
HETATM    3  H   UNL     1     -11.876   5.133  65.864  1.00  0.00     0.000 HD 
ENDROOT
BRANCH   2   4
HETATM    4  C   UNL     1     -10.158   4.629  66.847  1.00  0.00    -0.191 C  
HETATM    5  C   UNL     1      -9.404   3.525  67.044  1.00  0.00    -0.194 C  
HETATM    6  O   UNL     1      -8.371   4.258  68.994  1.00  0.00    -0.077 OA 
HETATM    7  N   UNL     1      -8.516   3.347  68.167  1.00  0.00    -0.083 N  
HETATM    8  O   UNL     1      -7.936   2.253  68.216  1.00  0.00    -0.057 OA 
BRANCH   4   9
HETATM    9  N   UNL     1     -10.185   5.687  67.735  1.00  0.00    -0.176 NA 
HETATM   10  H   UNL     1      -9.309   6.201  67.823  1.00  0.00     0.000 HD 
BRANCH   9  11
HETATM   11  C   UNL     1     -11.271   6.177  68.560  1.00  0.00    -0.145 C  
BRANCH  11  12
HETATM   12  C   UNL     1     -10.747   6.527  69.957  1.00  0.00    -0.249 C  
BRANCH  12  13
HETATM   13  S   UNL     1     -12.076   6.993  71.117  1.00  0.00    -0.376 SA 
BRANCH  13  14
HETATM   14  C   UNL     1     -11.272   8.397  71.957  1.00  0.00    -0.334 C  
BRANCH  14  15
HETATM   15  C   UNL     1     -11.674   9.677  71.331  1.00  0.00    -0.404 A  
HETATM   16  C   UNL     1     -12.670  10.590  71.589  1.00  0.00    -0.550 A  
HETATM   17  C   UNL     1     -12.529  11.612  70.619  1.00  0.00    -0.386 A  
HETATM   18  C   UNL     1     -11.461  11.255  69.823  1.00  0.00    -0.310 A  
HETATM   19  O   UNL     1     -10.943  10.068  70.248  1.00  0.00    -0.271 OA 
BRANCH  18  20
HETATM   20  C   UNL     1     -10.806  11.876  68.634  1.00  0.00    -0.235 C  
BRANCH  20  21
HETATM   21  N   UNL     1     -11.692  11.964  67.456  1.00  0.00    -0.551 NA 
HETATM   22  C   UNL     1     -12.008  13.358  67.127  1.00  0.00    -0.366 C  
HETATM   23  C   UNL     1     -11.037  11.327  66.310  1.00  0.00    -0.166 C  
ENDBRANCH  20  21
ENDBRANCH  18  20
ENDBRANCH  14  15
ENDBRANCH  13  14
ENDBRANCH  12  13
ENDBRANCH  11  12
ENDBRANCH   9  11
ENDBRANCH   4   9
ENDBRANCH   2   4
TORSDOF 9
ENDMDL
MODEL      183
REMARK 921   NORMALIZED FREE ENERGY PREDICTED BY IDOCK:   -4.00 KCAL/MOL
REMARK 922        TOTAL FREE ENERGY PREDICTED BY IDOCK:   -6.50 KCAL/MOL
REMARK 923 INTER-LIGAND FREE ENERGY PREDICTED BY IDOCK:   -5.87 KCAL/MOL
REMARK 924 INTRA-LIGAND FREE ENERGY PREDICTED BY IDOCK:   -0.63 KCAL/MOL
REMARK 927      BINDING AFFINITY PREDICTED BY RF-SCORE:    0.00 PKD
ROOT
HETATM    1  C   UNL     1      -9.179   4.407  67.499  1.00  0.00    -0.143 C  
HETATM    2  N   UNL     1      -9.566   5.436  68.437  1.00  0.00    -0.123 NA 
HETATM    3  H   UNL     1      -9.463   5.193  69.422  1.00  0.00     0.000 HD 
ENDROOT
BRANCH   2   4
HETATM    4  C   UNL     1     -10.059   6.705  68.187  1.00  0.00    -0.158 C  
HETATM    5  C   UNL     1      -9.548   7.420  67.160  1.00  0.00    -0.159 C  
HETATM    6  O   UNL     1     -10.942   9.265  67.404  1.00  0.00    -0.188 OA 
HETATM    7  N   UNL     1     -10.000   8.741  66.795  1.00  0.00    -0.243 N  
HETATM    8  O   UNL     1      -9.388   9.269  65.854  1.00  0.00    -0.198 OA 
BRANCH   4   9
HETATM    9  N   UNL     1     -11.042   7.195  69.025  1.00  0.00    -0.455 NA 
HETATM   10  H   UNL     1     -11.385   8.128  68.792  1.00  0.00     0.000 HD 
BRANCH   9  11
HETATM   11  C   UNL     1     -11.662   6.585  70.184  1.00  0.00    -0.353 C  
BRANCH  11  12
HETATM   12  C   UNL     1     -10.930   7.023  71.457  1.00  0.00    -0.234 C  
BRANCH  12  13
HETATM   13  S   UNL     1     -10.572   8.812  71.489  1.00  0.00    -0.337 SA 
BRANCH  13  14
HETATM   14  C   UNL     1     -12.250   9.466  71.206  1.00  0.00    -0.345 C  
BRANCH  14  15
HETATM   15  C   UNL     1     -12.198  10.908  70.877  1.00  0.00    -0.381 A  
HETATM   16  C   UNL     1     -12.790  12.028  71.415  1.00  0.00    -0.391 A  
HETATM   17  C   UNL     1     -12.340  13.123  70.638  1.00  0.00    -0.405 A  
HETATM   18  C   UNL     1     -11.508  12.603  69.669  1.00  0.00    -0.182 A  
HETATM   19  O   UNL     1     -11.428  11.249  69.805  1.00  0.00    -0.274 OA 
BRANCH  18  20
HETATM   20  C   UNL     1     -10.732  13.204  68.544  1.00  0.00    -0.259 C  
BRANCH  20  21
HETATM   21  N   UNL     1     -11.567  13.970  67.598  1.00  0.00    -0.333 NA 
HETATM   22  C   UNL     1     -10.972  15.275  67.293  1.00  0.00    -0.327 C  
HETATM   23  C   UNL     1     -11.724  13.202  66.360  1.00  0.00    -0.379 C  
ENDBRANCH  20  21
ENDBRANCH  18  20
ENDBRANCH  14  15
ENDBRANCH  13  14
ENDBRANCH  12  13
ENDBRANCH  11  12
ENDBRANCH   9  11
ENDBRANCH   4   9
ENDBRANCH   2   4
TORSDOF 9
ENDMDL
MODEL      184
REMARK 921   NORMALIZED FREE ENERGY PREDICTED BY IDOCK:   -4.00 KCAL/MOL
REMARK 922        TOTAL FREE ENERGY PREDICTED BY IDOCK:   -6.50 KCAL/MOL
REMARK 923 INTER-LIGAND FREE ENERGY PREDICTED BY IDOCK:   -6.36 KCAL/MOL
REMARK 924 INTRA-LIGAND FREE ENERGY PREDICTED BY IDOCK:   -0.13 KCAL/MOL
REMARK 927      BINDING AFFINITY PREDICTED BY RF-SCORE:    0.00 PKD
ROOT
HETATM    1  C   UNL     1     -11.016   7.043  67.049  1.00  0.00    -0.287 C  
HETATM    2  N   UNL     1     -11.291   6.493  68.357  1.00  0.00    -0.566 NA 
HETATM    3  H   UNL     1     -12.038   5.800  68.393  1.00  0.00     0.000 HD 
ENDROOT
BRANCH   2   4
HETATM    4  C   UNL     1     -10.683   6.775  69.569  1.00  0.00    -0.257 C  
HETATM    5  C   UNL     1     -10.794   5.888  70.583  1.00  0.00    -0.292 C  
HETATM    6  O   UNL     1      -9.471   7.055  72.098  1.00  0.00    -0.139 OA 
HETATM    7  N   UNL     1     -10.185   6.068  71.879  1.00  0.00    -0.196 N  
HETATM    8  O   UNL     1     -10.429   5.177  72.707  1.00  0.00    -0.194 OA 
BRANCH   4   9
HETATM    9  N   UNL     1     -10.006   7.973  69.692  1.00  0.00    -0.185 NA 
HETATM   10  H   UNL     1      -9.028   7.891  69.969  1.00  0.00     0.000 HD 
BRANCH   9  11
HETATM   11  C   UNL     1     -10.476   9.328  69.486  1.00  0.00    -0.220 C  
BRANCH  11  12
HETATM   12  C   UNL     1     -11.392   9.743  70.643  1.00  0.00    -0.330 C  
BRANCH  12  13
HETATM   13  S   UNL     1     -12.144  11.387  70.396  1.00  0.00    -0.377 SA 
BRANCH  13  14
HETATM   14  C   UNL     1     -11.574  11.735  68.700  1.00  0.00    -0.309 C  
BRANCH  14  15
HETATM   15  C   UNL     1     -11.361  13.187  68.510  1.00  0.00    -0.286 A  
HETATM   16  C   UNL     1     -11.998  14.311  68.983  1.00  0.00    -0.360 A  
HETATM   17  C   UNL     1     -11.312  15.417  68.425  1.00  0.00    -0.345 A  
HETATM   18  C   UNL     1     -10.304  14.900  67.639  1.00  0.00    -0.242 A  
HETATM   19  O   UNL     1     -10.337  13.538  67.681  1.00  0.00    -0.234 OA 
BRANCH  18  20
HETATM   20  C   UNL     1      -9.247  15.511  66.780  1.00  0.00    -0.248 C  
BRANCH  20  21
HETATM   21  N   UNL     1      -9.788  16.310  65.663  1.00  0.00    -0.503 NA 
HETATM   22  C   UNL     1     -10.897  15.618  64.997  1.00  0.00    -0.450 C  
HETATM   23  C   UNL     1     -10.253  17.603  66.173  1.00  0.00    -0.343 C  
ENDBRANCH  20  21
ENDBRANCH  18  20
ENDBRANCH  14  15
ENDBRANCH  13  14
ENDBRANCH  12  13
ENDBRANCH  11  12
ENDBRANCH   9  11
ENDBRANCH   4   9
ENDBRANCH   2   4
TORSDOF 9
ENDMDL
MODEL      185
REMARK 921   NORMALIZED FREE ENERGY PREDICTED BY IDOCK:   -4.00 KCAL/MOL
REMARK 922        TOTAL FREE ENERGY PREDICTED BY IDOCK:   -6.49 KCAL/MOL
REMARK 923 INTER-LIGAND FREE ENERGY PREDICTED BY IDOCK:   -5.94 KCAL/MOL
REMARK 924 INTRA-LIGAND FREE ENERGY PREDICTED BY IDOCK:   -0.55 KCAL/MOL
REMARK 927      BINDING AFFINITY PREDICTED BY RF-SCORE:    0.00 PKD
ROOT
HETATM    1  C   UNL     1      -9.951   8.685  72.204  1.00  0.00    -0.316 C  
HETATM    2  N   UNL     1      -9.305   8.821  70.918  1.00  0.00    -0.194 NA 
HETATM    3  H   UNL     1      -8.337   9.141  70.947  1.00  0.00     0.000 HD 
ENDROOT
BRANCH   2   4
HETATM    4  C   UNL     1      -9.814   8.578  69.654  1.00  0.00    -0.183 C  
HETATM    5  C   UNL     1     -10.034   7.302  69.267  1.00  0.00    -0.170 C  
HETATM    6  O   UNL     1     -10.927   7.812  67.181  1.00  0.00    -0.245 OA 
HETATM    7  N   UNL     1     -10.581   6.934  67.983  1.00  0.00    -0.209 N  
HETATM    8  O   UNL     1     -10.674   5.715  67.776  1.00  0.00    -0.228 OA 
BRANCH   4   9
HETATM    9  N   UNL     1     -10.051   9.663  68.832  1.00  0.00    -0.180 NA 
HETATM   10  H   UNL     1      -9.750   9.547  67.864  1.00  0.00     0.000 HD 
BRANCH   9  11
HETATM   11  C   UNL     1     -10.663  10.940  69.136  1.00  0.00    -0.226 C  
BRANCH  11  12
HETATM   12  C   UNL     1     -11.632  11.334  68.015  1.00  0.00    -0.272 C  
BRANCH  12  13
HETATM   13  S   UNL     1     -10.829  11.410  66.378  1.00  0.00    -0.247 SA 
BRANCH  13  14
HETATM   14  C   UNL     1      -9.636  12.754  66.683  1.00  0.00    -0.255 C  
BRANCH  14  15
HETATM   15  C   UNL     1     -10.091  14.008  66.043  1.00  0.00    -0.315 A  
HETATM   16  C   UNL     1     -10.996  14.294  65.047  1.00  0.00    -0.394 A  
HETATM   17  C   UNL     1     -10.973  15.700  64.885  1.00  0.00    -0.447 A  
HETATM   18  C   UNL     1     -10.050  16.186  65.786  1.00  0.00    -0.363 A  
HETATM   19  O   UNL     1      -9.501  15.154  66.488  1.00  0.00    -0.246 OA 
BRANCH  18  20
HETATM   20  C   UNL     1      -9.546  17.552  66.114  1.00  0.00    -0.182 C  
BRANCH  20  21
HETATM   21  N   UNL     1     -10.528  18.382  66.838  1.00  0.00    -0.392 NA 
HETATM   22  C   UNL     1     -10.131  18.585  68.236  1.00  0.00    -0.390 C  
HETATM   23  C   UNL     1     -10.651  19.681  66.170  1.00  0.00    -0.483 C  
ENDBRANCH  20  21
ENDBRANCH  18  20
ENDBRANCH  14  15
ENDBRANCH  13  14
ENDBRANCH  12  13
ENDBRANCH  11  12
ENDBRANCH   9  11
ENDBRANCH   4   9
ENDBRANCH   2   4
TORSDOF 9
ENDMDL
MODEL      186
REMARK 921   NORMALIZED FREE ENERGY PREDICTED BY IDOCK:   -3.98 KCAL/MOL
REMARK 922        TOTAL FREE ENERGY PREDICTED BY IDOCK:   -6.47 KCAL/MOL
REMARK 923 INTER-LIGAND FREE ENERGY PREDICTED BY IDOCK:   -6.14 KCAL/MOL
REMARK 924 INTRA-LIGAND FREE ENERGY PREDICTED BY IDOCK:   -0.33 KCAL/MOL
REMARK 927      BINDING AFFINITY PREDICTED BY RF-SCORE:    0.00 PKD
ROOT
HETATM    1  C   UNL     1     -10.680   3.904  64.371  1.00  0.00    -0.181 C  
HETATM    2  N   UNL     1     -11.038   4.857  65.397  1.00  0.00    -0.842 NA 
HETATM    3  H   UNL     1     -11.876   5.408  65.209  1.00  0.00     0.000 HD 
ENDROOT
BRANCH   2   4
HETATM    4  C   UNL     1     -10.405   5.129  66.597  1.00  0.00    -0.281 C  
HETATM    5  C   UNL     1      -9.745   4.136  67.233  1.00  0.00    -0.170 C  
HETATM    6  O   UNL     1      -8.957   5.431  68.997  1.00  0.00    -0.106 OA 
HETATM    7  N   UNL     1      -9.033   4.310  68.476  1.00  0.00    -0.107 N  
HETATM    8  O   UNL     1      -8.523   3.281  68.943  1.00  0.00    -0.063 OA 
BRANCH   4   9
HETATM    9  N   UNL     1     -10.500   6.411  67.105  1.00  0.00    -0.237 NA 
HETATM   10  H   UNL     1     -11.169   6.527  67.866  1.00  0.00     0.000 HD 
BRANCH   9  11
HETATM   11  C   UNL     1      -9.793   7.615  66.719  1.00  0.00    -0.237 C  
BRANCH  11  12
HETATM   12  C   UNL     1     -10.624   8.849  67.089  1.00  0.00    -0.231 C  
BRANCH  12  13
HETATM   13  S   UNL     1      -9.940   9.765  68.510  1.00  0.00    -0.166 SA 
BRANCH  13  14
HETATM   14  C   UNL     1     -11.434  10.662  69.045  1.00  0.00    -0.274 C  
BRANCH  14  15
HETATM   15  C   UNL     1     -11.551  11.951  68.329  1.00  0.00    -0.327 A  
HETATM   16  C   UNL     1     -11.344  13.263  68.691  1.00  0.00    -0.324 A  
HETATM   17  C   UNL     1     -11.637  14.039  67.543  1.00  0.00    -0.397 A  
HETATM   18  C   UNL     1     -12.013  13.155  66.555  1.00  0.00    -0.398 A  
HETATM   19  O   UNL     1     -11.972  11.880  67.034  1.00  0.00    -0.615 OA 
BRANCH  18  20
HETATM   20  C   UNL     1     -12.452  13.317  65.137  1.00  0.00    -0.470 C  
BRANCH  20  21
HETATM   21  N   UNL     1     -11.934  12.266  64.238  1.00  0.00    -0.395 NA 
HETATM   22  C   UNL     1     -12.761  12.135  63.035  1.00  0.00     0.115 C  
HETATM   23  C   UNL     1     -10.558  12.593  63.855  1.00  0.00    -0.428 C  
ENDBRANCH  20  21
ENDBRANCH  18  20
ENDBRANCH  14  15
ENDBRANCH  13  14
ENDBRANCH  12  13
ENDBRANCH  11  12
ENDBRANCH   9  11
ENDBRANCH   4   9
ENDBRANCH   2   4
TORSDOF 9
ENDMDL
MODEL      187
REMARK 921   NORMALIZED FREE ENERGY PREDICTED BY IDOCK:   -3.97 KCAL/MOL
REMARK 922        TOTAL FREE ENERGY PREDICTED BY IDOCK:   -6.45 KCAL/MOL
REMARK 923 INTER-LIGAND FREE ENERGY PREDICTED BY IDOCK:   -6.36 KCAL/MOL
REMARK 924 INTRA-LIGAND FREE ENERGY PREDICTED BY IDOCK:   -0.09 KCAL/MOL
REMARK 927      BINDING AFFINITY PREDICTED BY RF-SCORE:    0.00 PKD
ROOT
HETATM    1  C   UNL     1     -10.047  18.291  66.440  1.00  0.00    -0.396 C  
HETATM    2  N   UNL     1     -10.191  17.271  65.427  1.00  0.00    -0.588 NA 
HETATM    3  H   UNL     1      -9.809  17.506  64.511  1.00  0.00     0.000 HD 
ENDROOT
BRANCH   2   4
HETATM    4  C   UNL     1     -10.774  16.019  65.524  1.00  0.00    -0.361 C  
HETATM    5  C   UNL     1     -11.433  15.515  64.457  1.00  0.00    -0.308 C  
HETATM    6  O   UNL     1     -11.966  13.467  65.421  1.00  0.00    -0.347 OA 
HETATM    7  N   UNL     1     -12.059  14.214  64.439  1.00  0.00    -0.461 N  
HETATM    8  O   UNL     1     -12.661  13.931  63.392  1.00  0.00    -0.853 OA 
BRANCH   4   9
HETATM    9  N   UNL     1     -10.673  15.348  66.728  1.00  0.00    -0.308 NA 
HETATM   10  H   UNL     1     -10.091  14.511  66.710  1.00  0.00     0.000 HD 
BRANCH   9  11
HETATM   11  C   UNL     1     -11.269  15.655  68.012  1.00  0.00    -0.339 C  
BRANCH  11  12
HETATM   12  C   UNL     1     -10.244  15.432  69.129  1.00  0.00    -0.239 C  
BRANCH  12  13
HETATM   13  S   UNL     1      -8.828  14.412  68.599  1.00  0.00    -0.133 SA 
BRANCH  13  14
HETATM   14  C   UNL     1      -9.681  12.825  68.319  1.00  0.00    -0.216 C  
BRANCH  14  15
HETATM   15  C   UNL     1      -8.868  11.943  67.452  1.00  0.00    -0.171 A  
HETATM   16  C   UNL     1      -7.515  11.786  67.256  1.00  0.00    -0.151 A  
HETATM   17  C   UNL     1      -7.374  10.773  66.276  1.00  0.00    -0.138 A  
HETATM   18  C   UNL     1      -8.648  10.381  65.928  1.00  0.00    -0.158 A  
HETATM   19  O   UNL     1      -9.564  11.101  66.636  1.00  0.00    -0.184 OA 
BRANCH  18  20
HETATM   20  C   UNL     1      -9.194   9.384  64.960  1.00  0.00    -0.218 C  
BRANCH  20  21
HETATM   21  N   UNL     1      -9.328   9.911  63.588  1.00  0.00    -0.252 NA 
HETATM   22  C   UNL     1     -10.191  11.096  63.551  1.00  0.00    -0.390 C  
HETATM   23  C   UNL     1      -8.002  10.254  63.069  1.00  0.00    -0.150 C  
ENDBRANCH  20  21
ENDBRANCH  18  20
ENDBRANCH  14  15
ENDBRANCH  13  14
ENDBRANCH  12  13
ENDBRANCH  11  12
ENDBRANCH   9  11
ENDBRANCH   4   9
ENDBRANCH   2   4
TORSDOF 9
ENDMDL
MODEL      188
REMARK 921   NORMALIZED FREE ENERGY PREDICTED BY IDOCK:   -3.97 KCAL/MOL
REMARK 922        TOTAL FREE ENERGY PREDICTED BY IDOCK:   -6.45 KCAL/MOL
REMARK 923 INTER-LIGAND FREE ENERGY PREDICTED BY IDOCK:   -5.77 KCAL/MOL
REMARK 924 INTRA-LIGAND FREE ENERGY PREDICTED BY IDOCK:   -0.68 KCAL/MOL
REMARK 927      BINDING AFFINITY PREDICTED BY RF-SCORE:    0.00 PKD
ROOT
HETATM    1  C   UNL     1      -5.772  19.976  63.805  1.00  0.00    -0.267 C  
HETATM    2  N   UNL     1      -6.270  18.858  64.573  1.00  0.00    -0.465 NA 
HETATM    3  H   UNL     1      -6.496  18.022  64.034  1.00  0.00     0.000 HD 
ENDROOT
BRANCH   2   4
HETATM    4  C   UNL     1      -6.486  18.761  65.938  1.00  0.00    -0.235 C  
HETATM    5  C   UNL     1      -5.801  17.838  66.648  1.00  0.00    -0.168 C  
HETATM    6  O   UNL     1      -6.663  18.416  68.729  1.00  0.00    -0.238 OA 
HETATM    7  N   UNL     1      -5.929  17.663  68.075  1.00  0.00    -0.156 N  
HETATM    8  O   UNL     1      -5.260  16.737  68.558  1.00  0.00    -0.115 OA 
BRANCH   4   9
HETATM    9  N   UNL     1      -7.419  19.605  66.508  1.00  0.00    -0.248 NA 
HETATM   10  H   UNL     1      -7.036  20.314  67.133  1.00  0.00     0.000 HD 
BRANCH   9  11
HETATM   11  C   UNL     1      -8.859  19.636  66.352  1.00  0.00    -0.376 C  
BRANCH  11  12
HETATM   12  C   UNL     1      -9.470  18.344  66.906  1.00  0.00    -0.291 C  
BRANCH  12  13
HETATM   13  S   UNL     1     -10.705  17.606  65.783  1.00  0.00     0.069 SA 
BRANCH  13  14
HETATM   14  C   UNL     1     -10.035  15.916  65.658  1.00  0.00    -0.334 C  
BRANCH  14  15
HETATM   15  C   UNL     1     -10.819  14.982  66.498  1.00  0.00    -0.320 A  
HETATM   16  C   UNL     1     -11.711  13.972  66.219  1.00  0.00    -0.401 A  
HETATM   17  C   UNL     1     -12.125  13.455  67.470  1.00  0.00    -0.323 A  
HETATM   18  C   UNL     1     -11.466  14.186  68.436  1.00  0.00    -0.302 A  
HETATM   19  O   UNL     1     -10.676  15.127  67.846  1.00  0.00    -0.256 OA 
BRANCH  18  20
HETATM   20  C   UNL     1     -11.466  14.161  69.929  1.00  0.00    -0.226 C  
BRANCH  20  21
HETATM   21  N   UNL     1     -12.463  15.067  70.531  1.00  0.00    -0.349 NA 
HETATM   22  C   UNL     1     -13.378  14.343  71.419  1.00  0.00    -0.349 C  
HETATM   23  C   UNL     1     -11.771  16.114  71.289  1.00  0.00    -0.425 C  
ENDBRANCH  20  21
ENDBRANCH  18  20
ENDBRANCH  14  15
ENDBRANCH  13  14
ENDBRANCH  12  13
ENDBRANCH  11  12
ENDBRANCH   9  11
ENDBRANCH   4   9
ENDBRANCH   2   4
TORSDOF 9
ENDMDL
MODEL      189
REMARK 921   NORMALIZED FREE ENERGY PREDICTED BY IDOCK:   -3.97 KCAL/MOL
REMARK 922        TOTAL FREE ENERGY PREDICTED BY IDOCK:   -6.44 KCAL/MOL
REMARK 923 INTER-LIGAND FREE ENERGY PREDICTED BY IDOCK:   -5.54 KCAL/MOL
REMARK 924 INTRA-LIGAND FREE ENERGY PREDICTED BY IDOCK:   -0.91 KCAL/MOL
REMARK 927      BINDING AFFINITY PREDICTED BY RF-SCORE:    0.00 PKD
ROOT
HETATM    1  C   UNL     1     -12.628  12.568  63.337  1.00  0.00    -0.312 C  
HETATM    2  N   UNL     1     -12.041  12.056  64.554  1.00  0.00    -0.297 NA 
HETATM    3  H   UNL     1     -12.704  11.800  65.286  1.00  0.00     0.000 HD 
ENDROOT
BRANCH   2   4
HETATM    4  C   UNL     1     -10.706  11.865  64.868  1.00  0.00    -0.301 C  
HETATM    5  C   UNL     1     -10.279  10.626  65.199  1.00  0.00    -0.299 C  
HETATM    6  O   UNL     1      -8.036  11.182  65.456  1.00  0.00     0.008 OA 
HETATM    7  N   UNL     1      -8.909  10.307  65.522  1.00  0.00    -0.164 N  
HETATM    8  O   UNL     1      -8.702   9.129  65.849  1.00  0.00    -0.141 OA 
BRANCH   4   9
HETATM    9  N   UNL     1      -9.872  12.966  64.851  1.00  0.00    -0.523 NA 
HETATM   10  H   UNL     1      -8.952  12.806  64.441  1.00  0.00     0.000 HD 
BRANCH   9  11
HETATM   11  C   UNL     1     -10.107  14.314  65.327  1.00  0.00    -0.349 C  
BRANCH  11  12
HETATM   12  C   UNL     1      -9.039  14.696  66.357  1.00  0.00    -0.209 C  
BRANCH  12  13
HETATM   13  S   UNL     1      -9.747  15.150  67.977  1.00  0.00    -0.210 SA 
BRANCH  13  14
HETATM   14  C   UNL     1     -11.261  14.136  67.945  1.00  0.00    -0.279 C  
BRANCH  14  15
HETATM   15  C   UNL     1     -11.006  12.801  68.530  1.00  0.00    -0.258 A  
HETATM   16  C   UNL     1      -9.893  11.995  68.612  1.00  0.00    -0.126 A  
HETATM   17  C   UNL     1     -10.303  10.825  69.297  1.00  0.00    -0.228 A  
HETATM   18  C   UNL     1     -11.642  10.986  69.584  1.00  0.00    -0.318 A  
HETATM   19  O   UNL     1     -12.077  12.186  69.108  1.00  0.00    -0.267 OA 
BRANCH  18  20
HETATM   20  C   UNL     1     -12.661  10.133  70.264  1.00  0.00    -0.073 C  
BRANCH  20  21
HETATM   21  N   UNL     1     -12.726  10.348  71.724  1.00  0.00    -0.435 NA 
HETATM   22  C   UNL     1     -13.394  11.611  72.051  1.00  0.00    -0.300 C  
HETATM   23  C   UNL     1     -13.450   9.235  72.344  1.00  0.00    -0.459 C  
ENDBRANCH  20  21
ENDBRANCH  18  20
ENDBRANCH  14  15
ENDBRANCH  13  14
ENDBRANCH  12  13
ENDBRANCH  11  12
ENDBRANCH   9  11
ENDBRANCH   4   9
ENDBRANCH   2   4
TORSDOF 9
ENDMDL
MODEL      190
REMARK 921   NORMALIZED FREE ENERGY PREDICTED BY IDOCK:   -3.96 KCAL/MOL
REMARK 922        TOTAL FREE ENERGY PREDICTED BY IDOCK:   -6.43 KCAL/MOL
REMARK 923 INTER-LIGAND FREE ENERGY PREDICTED BY IDOCK:   -5.74 KCAL/MOL
REMARK 924 INTRA-LIGAND FREE ENERGY PREDICTED BY IDOCK:   -0.69 KCAL/MOL
REMARK 927      BINDING AFFINITY PREDICTED BY RF-SCORE:    0.00 PKD
ROOT
HETATM    1  C   UNL     1     -11.846  12.668  65.820  1.00  0.00    -0.444 C  
HETATM    2  N   UNL     1     -11.962  12.637  67.261  1.00  0.00    -0.467 NA 
HETATM    3  H   UNL     1     -12.489  11.852  67.641  1.00  0.00     0.000 HD 
ENDROOT
BRANCH   2   4
HETATM    4  C   UNL     1     -11.457  13.524  68.197  1.00  0.00    -0.303 C  
HETATM    5  C   UNL     1     -12.311  14.152  69.036  1.00  0.00    -0.110 C  
HETATM    6  O   UNL     1     -10.692  15.298  70.249  1.00  0.00    -0.285 OA 
HETATM    7  N   UNL     1     -11.896  15.077  70.063  1.00  0.00    -0.298 N  
HETATM    8  O   UNL     1     -12.816  15.597  70.711  1.00  0.00    -0.469 OA 
BRANCH   4   9
HETATM    9  N   UNL     1     -10.094  13.745  68.212  1.00  0.00    -0.234 NA 
HETATM   10  H   UNL     1      -9.814  14.726  68.187  1.00  0.00     0.000 HD 
BRANCH   9  11
HETATM   11  C   UNL     1      -9.001  12.795  68.257  1.00  0.00    -0.175 C  
BRANCH  11  12
HETATM   12  C   UNL     1      -7.791  13.356  67.502  1.00  0.00    -0.176 C  
BRANCH  12  13
HETATM   13  S   UNL     1      -6.305  13.499  68.552  1.00  0.00    -0.099 SA 
BRANCH  13  14
HETATM   14  C   UNL     1      -6.938  14.639  69.826  1.00  0.00    -0.130 C  
BRANCH  14  15
HETATM   15  C   UNL     1      -6.983  16.025  69.309  1.00  0.00    -0.205 A  
HETATM   16  C   UNL     1      -6.037  17.011  69.148  1.00  0.00    -0.197 A  
HETATM   17  C   UNL     1      -6.719  18.126  68.603  1.00  0.00    -0.240 A  
HETATM   18  C   UNL     1      -8.040  17.755  68.472  1.00  0.00    -0.297 A  
HETATM   19  O   UNL     1      -8.208  16.476  68.913  1.00  0.00    -0.231 OA 
BRANCH  18  20
HETATM   20  C   UNL     1      -9.266  18.454  67.984  1.00  0.00    -0.293 C  
BRANCH  20  21
HETATM   21  N   UNL     1      -9.222  18.779  66.545  1.00  0.00    -0.325 NA 
HETATM   22  C   UNL     1     -10.561  19.069  66.021  1.00  0.00    -0.423 C  
HETATM   23  C   UNL     1      -8.353  19.939  66.337  1.00  0.00    -0.334 C  
ENDBRANCH  20  21
ENDBRANCH  18  20
ENDBRANCH  14  15
ENDBRANCH  13  14
ENDBRANCH  12  13
ENDBRANCH  11  12
ENDBRANCH   9  11
ENDBRANCH   4   9
ENDBRANCH   2   4
TORSDOF 9
ENDMDL
MODEL      191
REMARK 921   NORMALIZED FREE ENERGY PREDICTED BY IDOCK:   -3.96 KCAL/MOL
REMARK 922        TOTAL FREE ENERGY PREDICTED BY IDOCK:   -6.43 KCAL/MOL
REMARK 923 INTER-LIGAND FREE ENERGY PREDICTED BY IDOCK:   -6.26 KCAL/MOL
REMARK 924 INTRA-LIGAND FREE ENERGY PREDICTED BY IDOCK:   -0.17 KCAL/MOL
REMARK 927      BINDING AFFINITY PREDICTED BY RF-SCORE:    0.00 PKD
ROOT
HETATM    1  C   UNL     1     -12.542   7.095  71.375  1.00  0.00    -0.394 C  
HETATM    2  N   UNL     1     -12.214   6.826  69.993  1.00  0.00    -0.589 NA 
HETATM    3  H   UNL     1     -12.929   7.087  69.315  1.00  0.00     0.000 HD 
ENDROOT
BRANCH   2   4
HETATM    4  C   UNL     1     -11.067   6.262  69.460  1.00  0.00    -0.408 C  
HETATM    5  C   UNL     1     -10.238   5.567  70.270  1.00  0.00    -0.255 C  
HETATM    6  O   UNL     1      -8.725   4.940  68.619  1.00  0.00    -0.093 OA 
HETATM    7  N   UNL     1      -9.029   4.920  69.819  1.00  0.00    -0.096 N  
HETATM    8  O   UNL     1      -8.363   4.365  70.705  1.00  0.00    -0.076 OA 
BRANCH   4   9
HETATM    9  N   UNL     1     -10.811   6.462  68.117  1.00  0.00    -0.287 NA 
HETATM   10  H   UNL     1     -10.658   5.612  67.574  1.00  0.00     0.000 HD 
BRANCH   9  11
HETATM   11  C   UNL     1     -10.725   7.697  67.363  1.00  0.00    -0.248 C  
BRANCH  11  12
HETATM   12  C   UNL     1     -10.101   8.795  68.231  1.00  0.00    -0.188 C  
BRANCH  12  13
HETATM   13  S   UNL     1     -11.274  10.134  68.632  1.00  0.00    -0.114 SA 
BRANCH  13  14
HETATM   14  C   UNL     1     -10.105  11.520  68.822  1.00  0.00    -0.179 C  
BRANCH  14  15
HETATM   15  C   UNL     1     -10.633  12.739  68.170  1.00  0.00    -0.229 A  
HETATM   16  C   UNL     1     -10.519  14.085  68.435  1.00  0.00    -0.254 A  
HETATM   17  C   UNL     1     -11.272  14.748  67.436  1.00  0.00    -0.346 A  
HETATM   18  C   UNL     1     -11.806  13.767  66.628  1.00  0.00    -0.412 A  
HETATM   19  O   UNL     1     -11.427  12.538  67.080  1.00  0.00    -0.313 OA 
BRANCH  18  20
HETATM   20  C   UNL     1     -12.690  13.788  65.426  1.00  0.00    -0.472 C  
BRANCH  20  21
HETATM   21  N   UNL     1     -11.983  13.461  64.171  1.00  0.00    -0.430 NA 
HETATM   22  C   UNL     1     -10.528  13.474  64.357  1.00  0.00    -0.346 C  
HETATM   23  C   UNL     1     -12.407  12.137  63.708  1.00  0.00    -0.532 C  
ENDBRANCH  20  21
ENDBRANCH  18  20
ENDBRANCH  14  15
ENDBRANCH  13  14
ENDBRANCH  12  13
ENDBRANCH  11  12
ENDBRANCH   9  11
ENDBRANCH   4   9
ENDBRANCH   2   4
TORSDOF 9
ENDMDL
MODEL      192
REMARK 921   NORMALIZED FREE ENERGY PREDICTED BY IDOCK:   -3.96 KCAL/MOL
REMARK 922        TOTAL FREE ENERGY PREDICTED BY IDOCK:   -6.43 KCAL/MOL
REMARK 923 INTER-LIGAND FREE ENERGY PREDICTED BY IDOCK:   -5.82 KCAL/MOL
REMARK 924 INTRA-LIGAND FREE ENERGY PREDICTED BY IDOCK:   -0.61 KCAL/MOL
REMARK 927      BINDING AFFINITY PREDICTED BY RF-SCORE:    0.00 PKD
ROOT
HETATM    1  C   UNL     1     -10.786   8.546  72.068  1.00  0.00    -0.335 C  
HETATM    2  N   UNL     1      -9.858   8.389  70.972  1.00  0.00    -0.179 NA 
HETATM    3  H   UNL     1      -8.875   8.331  71.236  1.00  0.00     0.000 HD 
ENDROOT
BRANCH   2   4
HETATM    4  C   UNL     1     -10.115   8.305  69.614  1.00  0.00    -0.199 C  
HETATM    5  C   UNL     1     -10.307   7.091  69.053  1.00  0.00    -0.200 C  
HETATM    6  O   UNL     1     -10.744   7.860  66.903  1.00  0.00    -0.333 OA 
HETATM    7  N   UNL     1     -10.602   6.888  67.656  1.00  0.00    -0.231 N  
HETATM    8  O   UNL     1     -10.702   5.703  67.302  1.00  0.00    -0.256 OA 
BRANCH   4   9
HETATM    9  N   UNL     1     -10.138   9.479  68.886  1.00  0.00    -0.181 NA 
HETATM   10  H   UNL     1      -9.642   9.446  67.995  1.00  0.00     0.000 HD 
BRANCH   9  11
HETATM   11  C   UNL     1     -10.759  10.751  69.196  1.00  0.00    -0.227 C  
BRANCH  11  12
HETATM   12  C   UNL     1     -11.899  11.028  68.210  1.00  0.00    -0.148 C  
BRANCH  12  13
HETATM   13  S   UNL     1     -11.458  12.269  66.947  1.00  0.00    -0.354 SA 
BRANCH  13  14
HETATM   14  C   UNL     1     -10.180  13.195  67.860  1.00  0.00    -0.233 C  
BRANCH  14  15
HETATM   15  C   UNL     1     -10.740  14.450  68.409  1.00  0.00    -0.245 A  
HETATM   16  C   UNL     1     -10.650  15.773  68.040  1.00  0.00    -0.279 A  
HETATM   17  C   UNL     1     -11.416  16.499  68.985  1.00  0.00    -0.109 A  
HETATM   18  C   UNL     1     -11.919  15.576  69.876  1.00  0.00    -0.362 A  
HETATM   19  O   UNL     1     -11.499  14.325  69.534  1.00  0.00    -0.261 OA 
BRANCH  18  20
HETATM   20  C   UNL     1     -12.775  15.678  71.095  1.00  0.00    -0.465 C  
BRANCH  20  21
HETATM   21  N   UNL     1     -12.584  14.561  72.042  1.00  0.00    -0.327 NA 
HETATM   22  C   UNL     1     -12.527  15.038  73.428  1.00  0.00    -0.484 C  
HETATM   23  C   UNL     1     -13.688  13.609  71.896  1.00  0.00    -0.410 C  
ENDBRANCH  20  21
ENDBRANCH  18  20
ENDBRANCH  14  15
ENDBRANCH  13  14
ENDBRANCH  12  13
ENDBRANCH  11  12
ENDBRANCH   9  11
ENDBRANCH   4   9
ENDBRANCH   2   4
TORSDOF 9
ENDMDL
MODEL      193
REMARK 921   NORMALIZED FREE ENERGY PREDICTED BY IDOCK:   -3.94 KCAL/MOL
REMARK 922        TOTAL FREE ENERGY PREDICTED BY IDOCK:   -6.41 KCAL/MOL
REMARK 923 INTER-LIGAND FREE ENERGY PREDICTED BY IDOCK:   -5.95 KCAL/MOL
REMARK 924 INTRA-LIGAND FREE ENERGY PREDICTED BY IDOCK:   -0.46 KCAL/MOL
REMARK 927      BINDING AFFINITY PREDICTED BY RF-SCORE:    0.00 PKD
ROOT
HETATM    1  C   UNL     1     -11.296   6.317  69.720  1.00  0.00    -0.436 C  
HETATM    2  N   UNL     1     -11.479   6.460  68.294  1.00  0.00    -0.527 NA 
HETATM    3  H   UNL     1     -12.360   6.882  68.005  1.00  0.00     0.000 HD 
ENDROOT
BRANCH   2   4
HETATM    4  C   UNL     1     -10.625   6.103  67.263  1.00  0.00    -0.290 C  
HETATM    5  C   UNL     1     -10.245   4.812  67.141  1.00  0.00    -0.130 C  
HETATM    6  O   UNL     1      -8.978   5.094  65.211  1.00  0.00    -0.156 OA 
HETATM    7  N   UNL     1      -9.378   4.325  66.095  1.00  0.00    -0.151 N  
HETATM    8  O   UNL     1      -9.094   3.119  66.161  1.00  0.00    -0.143 OA 
BRANCH   4   9
HETATM    9  N   UNL     1     -10.180   7.099  66.416  1.00  0.00    -0.470 NA 
HETATM   10  H   UNL     1     -10.282   6.900  65.421  1.00  0.00     0.000 HD 
BRANCH   9  11
HETATM   11  C   UNL     1      -9.588   8.385  66.728  1.00  0.00    -0.219 C  
BRANCH  11  12
HETATM   12  C   UNL     1      -9.525   9.250  65.464  1.00  0.00    -0.240 C  
BRANCH  12  13
HETATM   13  S   UNL     1      -8.866  10.922  65.781  1.00  0.00    -0.187 SA 
BRANCH  13  14
HETATM   14  C   UNL     1      -9.898  11.392  67.209  1.00  0.00    -0.189 C  
BRANCH  14  15
HETATM   15  C   UNL     1     -10.742  12.562  66.878  1.00  0.00    -0.243 A  
HETATM   16  C   UNL     1     -12.098  12.744  66.731  1.00  0.00    -0.290 A  
HETATM   17  C   UNL     1     -12.278  14.110  66.400  1.00  0.00    -0.473 A  
HETATM   18  C   UNL     1     -11.021  14.674  66.359  1.00  0.00    -0.325 A  
HETATM   19  O   UNL     1     -10.080  13.729  66.640  1.00  0.00    -0.265 OA 
BRANCH  18  20
HETATM   20  C   UNL     1     -10.515  16.047  66.062  1.00  0.00    -0.345 C  
BRANCH  20  21
HETATM   21  N   UNL     1      -9.710  16.625  67.157  1.00  0.00    -0.245 NA 
HETATM   22  C   UNL     1      -8.363  16.981  66.700  1.00  0.00    -0.250 C  
HETATM   23  C   UNL     1     -10.384  17.818  67.674  1.00  0.00    -0.373 C  
ENDBRANCH  20  21
ENDBRANCH  18  20
ENDBRANCH  14  15
ENDBRANCH  13  14
ENDBRANCH  12  13
ENDBRANCH  11  12
ENDBRANCH   9  11
ENDBRANCH   4   9
ENDBRANCH   2   4
TORSDOF 9
ENDMDL
MODEL      194
REMARK 921   NORMALIZED FREE ENERGY PREDICTED BY IDOCK:   -3.94 KCAL/MOL
REMARK 922        TOTAL FREE ENERGY PREDICTED BY IDOCK:   -6.40 KCAL/MOL
REMARK 923 INTER-LIGAND FREE ENERGY PREDICTED BY IDOCK:   -6.07 KCAL/MOL
REMARK 924 INTRA-LIGAND FREE ENERGY PREDICTED BY IDOCK:   -0.34 KCAL/MOL
REMARK 927      BINDING AFFINITY PREDICTED BY RF-SCORE:    0.00 PKD
ROOT
HETATM    1  C   UNL     1      -9.668  11.482  63.217  1.00  0.00    -0.385 C  
HETATM    2  N   UNL     1     -10.915  11.419  63.945  1.00  0.00    -0.422 NA 
HETATM    3  H   UNL     1     -11.754  11.594  63.393  1.00  0.00     0.000 HD 
ENDROOT
BRANCH   2   4
HETATM    4  C   UNL     1     -11.132  11.153  65.287  1.00  0.00    -0.006 C  
HETATM    5  C   UNL     1     -10.419  10.175  65.888  1.00  0.00    -0.071 C  
HETATM    6  O   UNL     1     -11.306  10.474  68.016  1.00  0.00    -0.307 OA 
HETATM    7  N   UNL     1     -10.546   9.828  67.283  1.00  0.00    -0.264 N  
HETATM    8  O   UNL     1      -9.848   8.874  67.657  1.00  0.00    -0.164 OA 
BRANCH   4   9
HETATM    9  N   UNL     1     -12.094  11.893  65.946  1.00  0.00    -0.392 NA 
HETATM   10  H   UNL     1     -12.975  11.407  66.114  1.00  0.00     0.000 HD 
BRANCH   9  11
HETATM   11  C   UNL     1     -12.042  13.256  66.436  1.00  0.00    -0.394 C  
BRANCH  11  12
HETATM   12  C   UNL     1     -12.714  14.197  65.432  1.00  0.00    -0.431 C  
BRANCH  12  13
HETATM   13  S   UNL     1     -11.563  15.429  64.734  1.00  0.00    -0.209 SA 
BRANCH  13  14
HETATM   14  C   UNL     1      -9.975  14.647  65.170  1.00  0.00    -0.240 C  
BRANCH  14  15
HETATM   15  C   UNL     1      -9.137  15.577  65.959  1.00  0.00    -0.281 A  
HETATM   16  C   UNL     1      -8.087  15.403  66.832  1.00  0.00    -0.259 A  
HETATM   17  C   UNL     1      -7.717  16.699  67.266  1.00  0.00    -0.198 A  
HETATM   18  C   UNL     1      -8.568  17.583  66.638  1.00  0.00    -0.258 A  
HETATM   19  O   UNL     1      -9.444  16.900  65.848  1.00  0.00    -0.478 OA 
BRANCH  18  20
HETATM   20  C   UNL     1      -8.722  19.068  66.670  1.00  0.00    -0.310 C  
BRANCH  20  21
HETATM   21  N   UNL     1      -9.057  19.595  68.007  1.00  0.00    -0.321 NA 
HETATM   22  C   UNL     1     -10.058  18.759  68.678  1.00  0.00    -0.380 C  
HETATM   23  C   UNL     1      -7.841  19.654  68.822  1.00  0.00    -0.297 C  
ENDBRANCH  20  21
ENDBRANCH  18  20
ENDBRANCH  14  15
ENDBRANCH  13  14
ENDBRANCH  12  13
ENDBRANCH  11  12
ENDBRANCH   9  11
ENDBRANCH   4   9
ENDBRANCH   2   4
TORSDOF 9
ENDMDL
MODEL      195
REMARK 921   NORMALIZED FREE ENERGY PREDICTED BY IDOCK:   -3.94 KCAL/MOL
REMARK 922        TOTAL FREE ENERGY PREDICTED BY IDOCK:   -6.40 KCAL/MOL
REMARK 923 INTER-LIGAND FREE ENERGY PREDICTED BY IDOCK:   -5.86 KCAL/MOL
REMARK 924 INTRA-LIGAND FREE ENERGY PREDICTED BY IDOCK:   -0.54 KCAL/MOL
REMARK 927      BINDING AFFINITY PREDICTED BY RF-SCORE:    0.00 PKD
ROOT
HETATM    1  C   UNL     1     -10.382  10.099  66.286  1.00  0.00    -0.175 C  
HETATM    2  N   UNL     1     -11.057   9.289  67.273  1.00  0.00    -0.290 NA 
HETATM    3  H   UNL     1     -11.959   9.645  67.590  1.00  0.00     0.000 HD 
ENDROOT
BRANCH   2   4
HETATM    4  C   UNL     1     -10.653   8.097  67.851  1.00  0.00    -0.147 C  
HETATM    5  C   UNL     1     -10.651   6.971  67.103  1.00  0.00    -0.341 C  
HETATM    6  O   UNL     1      -9.792   5.567  68.746  1.00  0.00    -0.134 OA 
HETATM    7  N   UNL     1     -10.230   5.681  67.593  1.00  0.00    -0.180 N  
HETATM    8  O   UNL     1     -10.336   4.746  66.785  1.00  0.00    -0.231 OA 
BRANCH   4   9
HETATM    9  N   UNL     1     -10.292   8.112  69.184  1.00  0.00    -0.219 NA 
HETATM   10  H   UNL     1      -9.309   7.910  69.369  1.00  0.00     0.000 HD 
BRANCH   9  11
HETATM   11  C   UNL     1     -11.098   8.371  70.360  1.00  0.00    -0.231 C  
BRANCH  11  12
HETATM   12  C   UNL     1     -10.765   9.757  70.925  1.00  0.00    -0.305 C  
BRANCH  12  13
HETATM   13  S   UNL     1     -12.187  10.899  70.884  1.00  0.00    -0.379 SA 
BRANCH  13  14
HETATM   14  C   UNL     1     -11.767  11.859  69.393  1.00  0.00    -0.339 C  
BRANCH  14  15
HETATM   15  C   UNL     1     -11.883  13.311  69.658  1.00  0.00    -0.327 A  
HETATM   16  C   UNL     1     -12.482  14.051  70.652  1.00  0.00    -0.435 A  
HETATM   17  C   UNL     1     -12.241  15.409  70.332  1.00  0.00    -0.430 A  
HETATM   18  C   UNL     1     -11.518  15.414  69.158  1.00  0.00    -0.333 A  
HETATM   19  O   UNL     1     -11.307  14.135  68.738  1.00  0.00    -0.247 OA 
BRANCH  18  20
HETATM   20  C   UNL     1     -10.965  16.497  68.291  1.00  0.00    -0.346 C  
BRANCH  20  21
HETATM   21  N   UNL     1      -9.548  16.292  67.928  1.00  0.00    -0.226 NA 
HETATM   22  C   UNL     1      -9.355  16.340  66.476  1.00  0.00    -0.271 C  
HETATM   23  C   UNL     1      -8.731  17.328  68.566  1.00  0.00    -0.273 C  
ENDBRANCH  20  21
ENDBRANCH  18  20
ENDBRANCH  14  15
ENDBRANCH  13  14
ENDBRANCH  12  13
ENDBRANCH  11  12
ENDBRANCH   9  11
ENDBRANCH   4   9
ENDBRANCH   2   4
TORSDOF 9
ENDMDL
MODEL      196
REMARK 921   NORMALIZED FREE ENERGY PREDICTED BY IDOCK:   -3.93 KCAL/MOL
REMARK 922        TOTAL FREE ENERGY PREDICTED BY IDOCK:   -6.38 KCAL/MOL
REMARK 923 INTER-LIGAND FREE ENERGY PREDICTED BY IDOCK:   -5.85 KCAL/MOL
REMARK 924 INTRA-LIGAND FREE ENERGY PREDICTED BY IDOCK:   -0.53 KCAL/MOL
REMARK 927      BINDING AFFINITY PREDICTED BY RF-SCORE:    0.00 PKD
ROOT
HETATM    1  C   UNL     1      -9.407   8.490  66.170  1.00  0.00    -0.214 C  
HETATM    2  N   UNL     1      -9.853   9.033  67.433  1.00  0.00    -0.177 NA 
HETATM    3  H   UNL     1      -9.747  10.042  67.538  1.00  0.00     0.000 HD 
ENDROOT
BRANCH   2   4
HETATM    4  C   UNL     1     -10.404   8.378  68.521  1.00  0.00    -0.200 C  
HETATM    5  C   UNL     1     -10.236   7.042  68.639  1.00  0.00    -0.176 C  
HETATM    6  O   UNL     1     -11.337   6.818  70.675  1.00  0.00    -0.290 OA 
HETATM    7  N   UNL     1     -10.746   6.261  69.740  1.00  0.00    -0.263 N  
HETATM    8  O   UNL     1     -10.539   5.041  69.665  1.00  0.00    -0.212 OA 
BRANCH   4   9
HETATM    9  N   UNL     1     -11.129   9.125  69.429  1.00  0.00    -0.428 NA 
HETATM   10  H   UNL     1     -11.876   8.621  69.907  1.00  0.00     0.000 HD 
BRANCH   9  11
HETATM   11  C   UNL     1     -10.988  10.517  69.806  1.00  0.00    -0.294 C  
BRANCH  11  12
HETATM   12  C   UNL     1     -12.101  11.348  69.159  1.00  0.00    -0.264 C  
BRANCH  12  13
HETATM   13  S   UNL     1     -11.549  12.227  67.658  1.00  0.00    -0.344 SA 
BRANCH  13  14
HETATM   14  C   UNL     1     -10.038  13.017  68.304  1.00  0.00    -0.239 C  
BRANCH  14  15
HETATM   15  C   UNL     1     -10.300  14.429  68.659  1.00  0.00    -0.245 A  
HETATM   16  C   UNL     1     -10.644  15.067  69.829  1.00  0.00    -0.232 A  
HETATM   17  C   UNL     1     -10.758  16.442  69.509  1.00  0.00    -0.325 A  
HETATM   18  C   UNL     1     -10.485  16.557  68.163  1.00  0.00    -0.313 A  
HETATM   19  O   UNL     1     -10.216  15.329  67.638  1.00  0.00    -0.238 OA 
BRANCH  18  20
HETATM   20  C   UNL     1     -10.448  17.707  67.212  1.00  0.00    -0.338 C  
BRANCH  20  21
HETATM   21  N   UNL     1      -9.887  18.939  67.801  1.00  0.00    -0.323 NA 
HETATM   22  C   UNL     1      -8.428  18.856  67.929  1.00  0.00    -0.290 C  
HETATM   23  C   UNL     1     -10.241  20.083  66.958  1.00  0.00    -0.451 C  
ENDBRANCH  20  21
ENDBRANCH  18  20
ENDBRANCH  14  15
ENDBRANCH  13  14
ENDBRANCH  12  13
ENDBRANCH  11  12
ENDBRANCH   9  11
ENDBRANCH   4   9
ENDBRANCH   2   4
TORSDOF 9
ENDMDL
MODEL      197
REMARK 921   NORMALIZED FREE ENERGY PREDICTED BY IDOCK:   -3.92 KCAL/MOL
REMARK 922        TOTAL FREE ENERGY PREDICTED BY IDOCK:   -6.37 KCAL/MOL
REMARK 923 INTER-LIGAND FREE ENERGY PREDICTED BY IDOCK:   -6.05 KCAL/MOL
REMARK 924 INTRA-LIGAND FREE ENERGY PREDICTED BY IDOCK:   -0.32 KCAL/MOL
REMARK 927      BINDING AFFINITY PREDICTED BY RF-SCORE:    0.00 PKD
ROOT
HETATM    1  C   UNL     1     -10.822  19.522  66.952  1.00  0.00    -0.411 C  
HETATM    2  N   UNL     1     -10.595  18.274  67.645  1.00  0.00    -0.419 NA 
HETATM    3  H   UNL     1     -11.369  17.947  68.223  1.00  0.00     0.000 HD 
ENDROOT
BRANCH   2   4
HETATM    4  C   UNL     1      -9.475  17.460  67.636  1.00  0.00    -0.251 C  
HETATM    5  C   UNL     1      -8.486  17.690  68.528  1.00  0.00    -0.289 C  
HETATM    6  O   UNL     1      -7.140  15.903  67.895  1.00  0.00    -0.116 OA 
HETATM    7  N   UNL     1      -7.287  16.893  68.623  1.00  0.00    -0.210 N  
HETATM    8  O   UNL     1      -6.464  17.274  69.469  1.00  0.00    -0.240 OA 
BRANCH   4   9
HETATM    9  N   UNL     1      -9.411  16.457  66.688  1.00  0.00    -0.243 NA 
HETATM   10  H   UNL     1      -8.549  16.430  66.143  1.00  0.00     0.000 HD 
BRANCH   9  11
HETATM   11  C   UNL     1     -10.383  15.437  66.350  1.00  0.00    -0.296 C  
BRANCH  11  12
HETATM   12  C   UNL     1     -10.131  14.179  67.187  1.00  0.00    -0.258 C  
BRANCH  12  13
HETATM   13  S   UNL     1     -11.610  13.123  67.345  1.00  0.00    -0.374 SA 
BRANCH  13  14
HETATM   14  C   UNL     1     -11.877  13.234  69.145  1.00  0.00    -0.329 C  
BRANCH  14  15
HETATM   15  C   UNL     1     -11.701  11.909  69.780  1.00  0.00    -0.331 A  
HETATM   16  C   UNL     1     -12.426  11.195  70.707  1.00  0.00    -0.479 A  
HETATM   17  C   UNL     1     -11.722   9.983  70.909  1.00  0.00    -0.462 A  
HETATM   18  C   UNL     1     -10.608  10.035  70.099  1.00  0.00    -0.296 A  
HETATM   19  O   UNL     1     -10.586  11.214  69.416  1.00  0.00    -0.208 OA 
BRANCH  18  20
HETATM   20  C   UNL     1      -9.467   9.104  69.851  1.00  0.00    -0.186 C  
BRANCH  20  21
HETATM   21  N   UNL     1      -9.784   8.031  68.887  1.00  0.00    -0.156 NA 
HETATM   22  C   UNL     1     -10.726   7.062  69.455  1.00  0.00    -0.241 C  
HETATM   23  C   UNL     1     -10.359   8.623  67.676  1.00  0.00    -0.254 C  
ENDBRANCH  20  21
ENDBRANCH  18  20
ENDBRANCH  14  15
ENDBRANCH  13  14
ENDBRANCH  12  13
ENDBRANCH  11  12
ENDBRANCH   9  11
ENDBRANCH   4   9
ENDBRANCH   2   4
TORSDOF 9
ENDMDL
MODEL      198
REMARK 921   NORMALIZED FREE ENERGY PREDICTED BY IDOCK:   -3.92 KCAL/MOL
REMARK 922        TOTAL FREE ENERGY PREDICTED BY IDOCK:   -6.37 KCAL/MOL
REMARK 923 INTER-LIGAND FREE ENERGY PREDICTED BY IDOCK:   -5.81 KCAL/MOL
REMARK 924 INTRA-LIGAND FREE ENERGY PREDICTED BY IDOCK:   -0.56 KCAL/MOL
REMARK 927      BINDING AFFINITY PREDICTED BY RF-SCORE:    0.00 PKD
ROOT
HETATM    1  C   UNL     1     -12.598  13.857  70.158  1.00  0.00    -0.224 C  
HETATM    2  N   UNL     1     -12.379  14.253  68.786  1.00  0.00    -0.573 NA 
HETATM    3  H   UNL     1     -13.186  14.660  68.313  1.00  0.00     0.000 HD 
ENDROOT
BRANCH   2   4
HETATM    4  C   UNL     1     -11.229  14.157  68.021  1.00  0.00    -0.281 C  
HETATM    5  C   UNL     1     -10.252  13.305  68.405  1.00  0.00    -0.249 C  
HETATM    6  O   UNL     1      -8.836  13.700  66.604  1.00  0.00    -0.181 OA 
HETATM    7  N   UNL     1      -9.023  13.108  67.675  1.00  0.00    -0.181 N  
HETATM    8  O   UNL     1      -8.218  12.322  68.195  1.00  0.00    -0.152 OA 
BRANCH   4   9
HETATM    9  N   UNL     1     -11.123  14.965  66.906  1.00  0.00    -0.332 NA 
HETATM   10  H   UNL     1     -10.704  15.881  67.072  1.00  0.00     0.000 HD 
BRANCH   9  11
HETATM   11  C   UNL     1     -11.516  14.709  65.535  1.00  0.00    -0.341 C  
BRANCH  11  12
HETATM   12  C   UNL     1     -12.765  13.820  65.509  1.00  0.00    -0.488 C  
BRANCH  12  13
HETATM   13  S   UNL     1     -12.613  12.418  64.351  1.00  0.00    -0.308 SA 
BRANCH  13  14
HETATM   14  C   UNL     1     -10.946  12.744  63.691  1.00  0.00    -0.358 C  
BRANCH  14  15
HETATM   15  C   UNL     1     -10.116  11.520  63.745  1.00  0.00    -0.366 A  
HETATM   16  C   UNL     1      -9.263  10.909  62.855  1.00  0.00    -0.348 A  
HETATM   17  C   UNL     1      -8.776   9.750  63.507  1.00  0.00    -0.234 A  
HETATM   18  C   UNL     1      -9.367   9.721  64.752  1.00  0.00    -0.265 A  
HETATM   19  O   UNL     1     -10.195  10.794  64.897  1.00  0.00    -0.295 OA 
BRANCH  18  20
HETATM   20  C   UNL     1      -9.295   8.779  65.908  1.00  0.00    -0.218 C  
BRANCH  20  21
HETATM   21  N   UNL     1      -9.016   9.448  67.194  1.00  0.00    -0.130 NA 
HETATM   22  C   UNL     1     -10.077   9.191  68.173  1.00  0.00    -0.189 C  
HETATM   23  C   UNL     1      -7.736   8.967  67.721  1.00  0.00    -0.097 C  
ENDBRANCH  20  21
ENDBRANCH  18  20
ENDBRANCH  14  15
ENDBRANCH  13  14
ENDBRANCH  12  13
ENDBRANCH  11  12
ENDBRANCH   9  11
ENDBRANCH   4   9
ENDBRANCH   2   4
TORSDOF 9
ENDMDL
MODEL      199
REMARK 921   NORMALIZED FREE ENERGY PREDICTED BY IDOCK:   -3.91 KCAL/MOL
REMARK 922        TOTAL FREE ENERGY PREDICTED BY IDOCK:   -6.35 KCAL/MOL
REMARK 923 INTER-LIGAND FREE ENERGY PREDICTED BY IDOCK:   -5.85 KCAL/MOL
REMARK 924 INTRA-LIGAND FREE ENERGY PREDICTED BY IDOCK:   -0.50 KCAL/MOL
REMARK 927      BINDING AFFINITY PREDICTED BY RF-SCORE:    0.00 PKD
ROOT
HETATM    1  C   UNL     1      -8.007   5.828  65.348  1.00  0.00    -0.117 C  
HETATM    2  N   UNL     1      -7.744   7.188  65.761  1.00  0.00    -0.094 NA 
HETATM    3  H   UNL     1      -6.831   7.349  66.185  1.00  0.00     0.000 HD 
ENDROOT
BRANCH   2   4
HETATM    4  C   UNL     1      -8.558   8.304  65.663  1.00  0.00    -0.166 C  
HETATM    5  C   UNL     1      -8.498   9.067  64.548  1.00  0.00    -0.175 C  
HETATM    6  O   UNL     1     -10.165  10.566  65.166  1.00  0.00    -0.305 OA 
HETATM    7  N   UNL     1      -9.314  10.237  64.329  1.00  0.00    -0.254 N  
HETATM    8  O   UNL     1      -9.096  10.845  63.271  1.00  0.00    -0.219 OA 
BRANCH   4   9
HETATM    9  N   UNL     1      -9.383   8.601  66.731  1.00  0.00    -0.166 NA 
HETATM   10  H   UNL     1      -9.143   9.451  67.241  1.00  0.00     0.000 HD 
BRANCH   9  11
HETATM   11  C   UNL     1     -10.539   7.887  67.236  1.00  0.00    -0.295 C  
BRANCH  11  12
HETATM   12  C   UNL     1     -10.108   6.913  68.338  1.00  0.00    -0.168 C  
BRANCH  12  13
HETATM   13  S   UNL     1     -10.981   7.197  69.915  1.00  0.00    -0.234 SA 
BRANCH  13  14
HETATM   14  C   UNL     1     -10.357   8.862  70.315  1.00  0.00    -0.206 C  
BRANCH  14  15
HETATM   15  C   UNL     1     -11.445   9.710  70.853  1.00  0.00    -0.353 A  
HETATM   16  C   UNL     1     -12.564   9.453  71.612  1.00  0.00    -0.460 A  
HETATM   17  C   UNL     1     -13.213  10.699  71.790  1.00  0.00    -0.526 A  
HETATM   18  C   UNL     1     -12.457  11.637  71.121  1.00  0.00    -0.307 A  
HETATM   19  O   UNL     1     -11.382  11.035  70.538  1.00  0.00    -0.253 OA 
BRANCH  18  20
HETATM   20  C   UNL     1     -12.590  13.108  70.906  1.00  0.00    -0.295 C  
BRANCH  20  21
HETATM   21  N   UNL     1     -12.965  13.849  72.126  1.00  0.00    -0.353 NA 
HETATM   22  C   UNL     1     -12.105  15.020  72.328  1.00  0.00    -0.362 C  
HETATM   23  C   UNL     1     -14.362  14.278  72.021  1.00  0.00    -0.544 C  
ENDBRANCH  20  21
ENDBRANCH  18  20
ENDBRANCH  14  15
ENDBRANCH  13  14
ENDBRANCH  12  13
ENDBRANCH  11  12
ENDBRANCH   9  11
ENDBRANCH   4   9
ENDBRANCH   2   4
TORSDOF 9
ENDMDL
MODEL      200
REMARK 921   NORMALIZED FREE ENERGY PREDICTED BY IDOCK:   -3.90 KCAL/MOL
REMARK 922        TOTAL FREE ENERGY PREDICTED BY IDOCK:   -6.35 KCAL/MOL
REMARK 923 INTER-LIGAND FREE ENERGY PREDICTED BY IDOCK:   -5.65 KCAL/MOL
REMARK 924 INTRA-LIGAND FREE ENERGY PREDICTED BY IDOCK:   -0.70 KCAL/MOL
REMARK 927      BINDING AFFINITY PREDICTED BY RF-SCORE:    0.00 PKD
ROOT
HETATM    1  C   UNL     1     -10.634  19.594  66.588  1.00  0.00    -0.487 C  
HETATM    2  N   UNL     1     -10.417  19.010  67.892  1.00  0.00    -0.402 NA 
HETATM    3  H   UNL     1     -11.188  19.111  68.552  1.00  0.00     0.000 HD 
ENDROOT
BRANCH   2   4
HETATM    4  C   UNL     1      -9.309  18.333  68.373  1.00  0.00    -0.314 C  
HETATM    5  C   UNL     1      -8.171  19.020  68.617  1.00  0.00    -0.364 C  
HETATM    6  O   UNL     1      -6.948  17.222  69.439  1.00  0.00    -0.225 OA 
HETATM    7  N   UNL     1      -6.966  18.423  69.138  1.00  0.00    -0.258 N  
HETATM    8  O   UNL     1      -6.001  19.193  69.256  1.00  0.00    -0.234 OA 
BRANCH   4   9
HETATM    9  N   UNL     1      -9.414  16.968  68.560  1.00  0.00    -0.261 NA 
HETATM   10  H   UNL     1      -9.504  16.669  69.531  1.00  0.00     0.000 HD 
BRANCH   9  11
HETATM   11  C   UNL     1      -9.417  15.896  67.584  1.00  0.00    -0.219 C  
BRANCH  11  12
HETATM   12  C   UNL     1     -10.800  15.788  66.933  1.00  0.00    -0.265 C  
BRANCH  12  13
HETATM   13  S   UNL     1     -10.775  14.849  65.369  1.00  0.00    -0.408 SA 
BRANCH  13  14
HETATM   14  C   UNL     1     -11.835  13.442  65.838  1.00  0.00    -0.376 C  
BRANCH  14  15
HETATM   15  C   UNL     1     -11.305  12.771  67.046  1.00  0.00    -0.314 A  
HETATM   16  C   UNL     1     -11.818  12.523  68.299  1.00  0.00    -0.361 A  
HETATM   17  C   UNL     1     -10.804  11.840  69.012  1.00  0.00    -0.239 A  
HETATM   18  C   UNL     1      -9.731  11.720  68.155  1.00  0.00    -0.192 A  
HETATM   19  O   UNL     1     -10.030  12.298  66.957  1.00  0.00    -0.208 OA 
BRANCH  18  20
HETATM   20  C   UNL     1      -8.367  11.128  68.283  1.00  0.00    -0.143 C  
BRANCH  20  21
HETATM   21  N   UNL     1      -7.315  12.128  68.549  1.00  0.00    -0.101 NA 
HETATM   22  C   UNL     1      -6.433  11.702  69.641  1.00  0.00    -0.124 C  
HETATM   23  C   UNL     1      -6.524  12.334  67.333  1.00  0.00    -0.157 C  
ENDBRANCH  20  21
ENDBRANCH  18  20
ENDBRANCH  14  15
ENDBRANCH  13  14
ENDBRANCH  12  13
ENDBRANCH  11  12
ENDBRANCH   9  11
ENDBRANCH   4   9
ENDBRANCH   2   4
TORSDOF 9
ENDMDL
MODEL      201
REMARK 921   NORMALIZED FREE ENERGY PREDICTED BY IDOCK:   -3.90 KCAL/MOL
REMARK 922        TOTAL FREE ENERGY PREDICTED BY IDOCK:   -6.34 KCAL/MOL
REMARK 923 INTER-LIGAND FREE ENERGY PREDICTED BY IDOCK:   -5.86 KCAL/MOL
REMARK 924 INTRA-LIGAND FREE ENERGY PREDICTED BY IDOCK:   -0.48 KCAL/MOL
REMARK 927      BINDING AFFINITY PREDICTED BY RF-SCORE:    0.00 PKD
ROOT
HETATM    1  C   UNL     1     -10.726  17.135  65.121  1.00  0.00     0.004 C  
HETATM    2  N   UNL     1     -11.159  16.012  64.321  1.00  0.00    -1.044 NA 
HETATM    3  H   UNL     1     -11.148  16.163  63.313  1.00  0.00     0.000 HD 
ENDROOT
BRANCH   2   4
HETATM    4  C   UNL     1     -11.587  14.761  64.730  1.00  0.00    -0.418 C  
HETATM    5  C   UNL     1     -12.175  13.940  63.832  1.00  0.00    -0.328 C  
HETATM    6  O   UNL     1     -12.462  12.137  65.272  1.00  0.00    -0.520 OA 
HETATM    7  N   UNL     1     -12.639  12.609  64.142  1.00  0.00    -0.379 N  
HETATM    8  O   UNL     1     -13.197  12.012  63.209  1.00  0.00    -0.628 OA 
BRANCH   4   9
HETATM    9  N   UNL     1     -11.413  14.418  66.057  1.00  0.00    -0.343 NA 
HETATM   10  H   UNL     1     -10.548  13.919  66.266  1.00  0.00     0.000 HD 
BRANCH   9  11
HETATM   11  C   UNL     1     -12.273  14.660  67.198  1.00  0.00    -0.062 C  
BRANCH  11  12
HETATM   12  C   UNL     1     -11.565  14.227  68.486  1.00  0.00    -0.320 C  
BRANCH  12  13
HETATM   13  S   UNL     1     -10.207  13.045  68.186  1.00  0.00    -0.242 SA 
BRANCH  13  14
HETATM   14  C   UNL     1     -11.085  11.481  68.512  1.00  0.00    -0.236 C  
BRANCH  14  15
HETATM   15  C   UNL     1     -10.139  10.440  68.973  1.00  0.00    -0.213 A  
HETATM   16  C   UNL     1      -9.908   9.835  70.187  1.00  0.00    -0.306 A  
HETATM   17  C   UNL     1      -8.853   8.915  69.974  1.00  0.00    -0.165 A  
HETATM   18  C   UNL     1      -8.499   9.020  68.646  1.00  0.00    -0.128 A  
HETATM   19  O   UNL     1      -9.276   9.959  68.033  1.00  0.00    -0.125 OA 
BRANCH  18  20
HETATM   20  C   UNL     1      -7.470   8.354  67.794  1.00  0.00    -0.098 C  
BRANCH  20  21
HETATM   21  N   UNL     1      -8.011   7.250  66.976  1.00  0.00    -0.108 NA 
HETATM   22  C   UNL     1      -8.002   7.587  65.549  1.00  0.00    -0.121 C  
HETATM   23  C   UNL     1      -7.209   6.044  67.200  1.00  0.00    -0.075 C  
ENDBRANCH  20  21
ENDBRANCH  18  20
ENDBRANCH  14  15
ENDBRANCH  13  14
ENDBRANCH  12  13
ENDBRANCH  11  12
ENDBRANCH   9  11
ENDBRANCH   4   9
ENDBRANCH   2   4
TORSDOF 9
ENDMDL
MODEL      202
REMARK 921   NORMALIZED FREE ENERGY PREDICTED BY IDOCK:   -3.89 KCAL/MOL
REMARK 922        TOTAL FREE ENERGY PREDICTED BY IDOCK:   -6.32 KCAL/MOL
REMARK 923 INTER-LIGAND FREE ENERGY PREDICTED BY IDOCK:   -5.16 KCAL/MOL
REMARK 924 INTRA-LIGAND FREE ENERGY PREDICTED BY IDOCK:   -1.16 KCAL/MOL
REMARK 927      BINDING AFFINITY PREDICTED BY RF-SCORE:    0.00 PKD
ROOT
HETATM    1  C   UNL     1     -11.125  10.511  69.717  1.00  0.00    -0.295 C  
HETATM    2  N   UNL     1     -10.968   9.236  69.056  1.00  0.00    -0.420 NA 
HETATM    3  H   UNL     1     -11.028   9.259  68.038  1.00  0.00     0.000 HD 
ENDROOT
BRANCH   2   4
HETATM    4  C   UNL     1     -10.749   7.985  69.609  1.00  0.00    -0.207 C  
HETATM    5  C   UNL     1     -11.571   7.546  70.589  1.00  0.00    -0.248 C  
HETATM    6  O   UNL     1     -10.586   5.454  70.838  1.00  0.00    -0.246 OA 
HETATM    7  N   UNL     1     -11.449   6.254  71.221  1.00  0.00    -0.303 N  
HETATM    8  O   UNL     1     -12.259   6.033  72.133  1.00  0.00    -0.288 OA 
BRANCH   4   9
HETATM    9  N   UNL     1      -9.675   7.251  69.146  1.00  0.00    -0.159 NA 
HETATM   10  H   UNL     1      -9.862   6.260  68.993  1.00  0.00     0.000 HD 
BRANCH   9  11
HETATM   11  C   UNL     1      -8.323   7.675  68.844  1.00  0.00    -0.129 C  
BRANCH  11  12
HETATM   12  C   UNL     1      -7.711   8.372  70.065  1.00  0.00    -0.090 C  
BRANCH  12  13
HETATM   13  S   UNL     1      -7.299  10.121  69.750  1.00  0.00    -0.170 SA 
BRANCH  13  14
HETATM   14  C   UNL     1      -7.481  10.158  67.936  1.00  0.00    -0.088 C  
BRANCH  14  15
HETATM   15  C   UNL     1      -8.370  11.267  67.525  1.00  0.00    -0.131 A  
HETATM   16  C   UNL     1      -8.438  12.603  67.851  1.00  0.00    -0.173 A  
HETATM   17  C   UNL     1      -9.528  13.132  67.119  1.00  0.00    -0.239 A  
HETATM   18  C   UNL     1     -10.063  12.087  66.397  1.00  0.00    -0.218 A  
HETATM   19  O   UNL     1      -9.366  10.944  66.651  1.00  0.00    -0.166 OA 
BRANCH  18  20
HETATM   20  C   UNL     1     -11.213  11.965  65.454  1.00  0.00    -0.295 C  
BRANCH  20  21
HETATM   21  N   UNL     1     -10.950  12.559  64.128  1.00  0.00    -0.351 NA 
HETATM   22  C   UNL     1     -10.140  11.666  63.292  1.00  0.00    -0.423 C  
HETATM   23  C   UNL     1     -12.225  12.833  63.459  1.00  0.00    -0.525 C  
ENDBRANCH  20  21
ENDBRANCH  18  20
ENDBRANCH  14  15
ENDBRANCH  13  14
ENDBRANCH  12  13
ENDBRANCH  11  12
ENDBRANCH   9  11
ENDBRANCH   4   9
ENDBRANCH   2   4
TORSDOF 9
ENDMDL
MODEL      203
REMARK 921   NORMALIZED FREE ENERGY PREDICTED BY IDOCK:   -3.88 KCAL/MOL
REMARK 922        TOTAL FREE ENERGY PREDICTED BY IDOCK:   -6.31 KCAL/MOL
REMARK 923 INTER-LIGAND FREE ENERGY PREDICTED BY IDOCK:   -5.71 KCAL/MOL
REMARK 924 INTRA-LIGAND FREE ENERGY PREDICTED BY IDOCK:   -0.60 KCAL/MOL
REMARK 927      BINDING AFFINITY PREDICTED BY RF-SCORE:    0.00 PKD
ROOT
HETATM    1  C   UNL     1     -12.540  13.873  70.979  1.00  0.00    -0.371 C  
HETATM    2  N   UNL     1     -12.767  14.703  69.817  1.00  0.00    -0.574 NA 
HETATM    3  H   UNL     1     -13.745  14.888  69.596  1.00  0.00     0.000 HD 
ENDROOT
BRANCH   2   4
HETATM    4  C   UNL     1     -11.844  15.282  68.963  1.00  0.00    -0.318 C  
HETATM    5  C   UNL     1     -11.328  16.493  69.274  1.00  0.00    -0.133 C  
HETATM    6  O   UNL     1      -9.886  16.638  67.455  1.00  0.00    -0.245 OA 
HETATM    7  N   UNL     1     -10.345  17.178  68.470  1.00  0.00    -0.341 N  
HETATM    8  O   UNL     1     -10.017  18.302  68.879  1.00  0.00    -0.375 OA 
BRANCH   4   9
HETATM    9  N   UNL     1     -11.509  14.598  67.811  1.00  0.00    -0.325 NA 
HETATM   10  H   UNL     1     -11.714  15.090  66.940  1.00  0.00     0.000 HD 
BRANCH   9  11
HETATM   11  C   UNL     1     -10.911  13.288  67.651  1.00  0.00    -0.262 C  
BRANCH  11  12
HETATM   12  C   UNL     1     -11.908  12.339  66.975  1.00  0.00    -0.259 C  
BRANCH  12  13
HETATM   13  S   UNL     1     -12.274  12.808  65.250  1.00  0.00    -0.478 SA 
BRANCH  13  14
HETATM   14  C   UNL     1     -10.578  13.086  64.641  1.00  0.00    -0.378 C  
BRANCH  14  15
HETATM   15  C   UNL     1     -10.024  11.843  64.057  1.00  0.00    -0.293 A  
HETATM   16  C   UNL     1      -9.855  11.391  62.769  1.00  0.00    -0.208 A  
HETATM   17  C   UNL     1      -9.269  10.106  62.876  1.00  0.00    -0.316 A  
HETATM   18  C   UNL     1      -9.124   9.850  64.223  1.00  0.00    -0.253 A  
HETATM   19  O   UNL     1      -9.594  10.904  64.947  1.00  0.00    -0.216 OA 
BRANCH  18  20
HETATM   20  C   UNL     1      -8.596   8.692  65.003  1.00  0.00    -0.158 C  
BRANCH  20  21
HETATM   21  N   UNL     1      -7.165   8.818  65.343  1.00  0.00    -0.083 NA 
HETATM   22  C   UNL     1      -6.970   8.984  66.787  1.00  0.00    -0.081 C  
HETATM   23  C   UNL     1      -6.452   7.621  64.888  1.00  0.00    -0.041 C  
ENDBRANCH  20  21
ENDBRANCH  18  20
ENDBRANCH  14  15
ENDBRANCH  13  14
ENDBRANCH  12  13
ENDBRANCH  11  12
ENDBRANCH   9  11
ENDBRANCH   4   9
ENDBRANCH   2   4
TORSDOF 9
ENDMDL
MODEL      204
REMARK 921   NORMALIZED FREE ENERGY PREDICTED BY IDOCK:   -3.88 KCAL/MOL
REMARK 922        TOTAL FREE ENERGY PREDICTED BY IDOCK:   -6.30 KCAL/MOL
REMARK 923 INTER-LIGAND FREE ENERGY PREDICTED BY IDOCK:   -5.69 KCAL/MOL
REMARK 924 INTRA-LIGAND FREE ENERGY PREDICTED BY IDOCK:   -0.61 KCAL/MOL
REMARK 927      BINDING AFFINITY PREDICTED BY RF-SCORE:    0.00 PKD
ROOT
HETATM    1  C   UNL     1      -9.193  20.252  66.782  1.00  0.00    -0.327 C  
HETATM    2  N   UNL     1     -10.009  19.219  67.379  1.00  0.00    -0.349 NA 
HETATM    3  H   UNL     1     -10.450  19.466  68.264  1.00  0.00     0.000 HD 
ENDROOT
BRANCH   2   4
HETATM    4  C   UNL     1     -10.277  17.941  66.917  1.00  0.00    -0.358 C  
HETATM    5  C   UNL     1     -10.741  17.780  65.658  1.00  0.00    -0.064 C  
HETATM    6  O   UNL     1     -10.811  15.456  65.701  1.00  0.00    -0.331 OA 
HETATM    7  N   UNL     1     -11.033  16.496  65.067  1.00  0.00    -0.308 N  
HETATM    8  O   UNL     1     -11.496  16.535  63.918  1.00  0.00    -1.145 OA 
BRANCH   4   9
HETATM    9  N   UNL     1     -10.077  16.884  67.784  1.00  0.00    -0.281 NA 
HETATM   10  H   UNL     1     -10.721  16.102  67.668  1.00  0.00     0.000 HD 
BRANCH   9  11
HETATM   11  C   UNL     1      -9.091  16.719  68.834  1.00  0.00    -0.230 C  
BRANCH  11  12
HETATM   12  C   UNL     1      -9.238  15.335  69.474  1.00  0.00    -0.194 C  
BRANCH  12  13
HETATM   13  S   UNL     1      -8.990  13.974  68.285  1.00  0.00    -0.188 SA 
BRANCH  13  14
HETATM   14  C   UNL     1     -10.587  13.114  68.465  1.00  0.00    -0.259 C  
BRANCH  14  15
HETATM   15  C   UNL     1     -10.462  11.694  68.066  1.00  0.00    -0.194 A  
HETATM   16  C   UNL     1     -11.326  10.623  68.075  1.00  0.00    -0.350 A  
HETATM   17  C   UNL     1     -10.595   9.522  67.568  1.00  0.00    -0.338 A  
HETATM   18  C   UNL     1      -9.328   9.986  67.288  1.00  0.00    -0.148 A  
HETATM   19  O   UNL     1      -9.239  11.309  67.601  1.00  0.00    -0.153 OA 
BRANCH  18  20
HETATM   20  C   UNL     1      -8.089   9.347  66.753  1.00  0.00    -0.109 C  
BRANCH  20  21
HETATM   21  N   UNL     1      -7.626   9.936  65.481  1.00  0.00    -0.119 NA 
HETATM   22  C   UNL     1      -6.261  10.459  65.598  1.00  0.00    -0.126 C  
HETATM   23  C   UNL     1      -7.672   8.916  64.430  1.00  0.00    -0.120 C  
ENDBRANCH  20  21
ENDBRANCH  18  20
ENDBRANCH  14  15
ENDBRANCH  13  14
ENDBRANCH  12  13
ENDBRANCH  11  12
ENDBRANCH   9  11
ENDBRANCH   4   9
ENDBRANCH   2   4
TORSDOF 9
ENDMDL
MODEL      205
REMARK 921   NORMALIZED FREE ENERGY PREDICTED BY IDOCK:   -3.86 KCAL/MOL
REMARK 922        TOTAL FREE ENERGY PREDICTED BY IDOCK:   -6.29 KCAL/MOL
REMARK 923 INTER-LIGAND FREE ENERGY PREDICTED BY IDOCK:   -5.68 KCAL/MOL
REMARK 924 INTRA-LIGAND FREE ENERGY PREDICTED BY IDOCK:   -0.61 KCAL/MOL
REMARK 927      BINDING AFFINITY PREDICTED BY RF-SCORE:    0.00 PKD
ROOT
HETATM    1  C   UNL     1     -12.125  14.367  70.888  1.00  0.00    -0.344 C  
HETATM    2  N   UNL     1     -11.768  13.110  70.270  1.00  0.00    -0.541 NA 
HETATM    3  H   UNL     1     -11.381  12.407  70.899  1.00  0.00     0.000 HD 
ENDROOT
BRANCH   2   4
HETATM    4  C   UNL     1     -11.878  12.726  68.944  1.00  0.00    -0.308 C  
HETATM    5  C   UNL     1     -11.849  13.673  67.980  1.00  0.00    -0.362 C  
HETATM    6  O   UNL     1     -11.986  12.214  66.175  1.00  0.00    -0.593 OA 
HETATM    7  N   UNL     1     -11.933  13.386  66.568  1.00  0.00    -0.393 N  
HETATM    8  O   UNL     1     -11.939  14.379  65.825  1.00  0.00    -0.372 OA 
BRANCH   4   9
HETATM    9  N   UNL     1     -12.037  11.381  68.670  1.00  0.00    -0.542 NA 
HETATM   10  H   UNL     1     -12.760  11.162  67.984  1.00  0.00     0.000 HD 
BRANCH   9  11
HETATM   11  C   UNL     1     -11.332  10.236  69.209  1.00  0.00    -0.196 C  
BRANCH  11  12
HETATM   12  C   UNL     1      -9.823  10.410  69.007  1.00  0.00    -0.212 C  
BRANCH  12  13
HETATM   13  S   UNL     1      -9.203   9.548  67.523  1.00  0.00    -0.126 SA 
BRANCH  13  14
HETATM   14  C   UNL     1     -10.553   8.349  67.277  1.00  0.00    -0.257 C  
BRANCH  14  15
HETATM   15  C   UNL     1     -10.248   7.074  67.963  1.00  0.00    -0.182 A  
HETATM   16  C   UNL     1     -10.806   6.413  69.034  1.00  0.00    -0.385 A  
HETATM   17  C   UNL     1     -10.047   5.231  69.207  1.00  0.00    -0.300 A  
HETATM   18  C   UNL     1      -9.067   5.246  68.237  1.00  0.00    -0.110 A  
HETATM   19  O   UNL     1      -9.180   6.376  67.483  1.00  0.00    -0.115 OA 
BRANCH  18  20
HETATM   20  C   UNL     1      -7.950   4.321  67.882  1.00  0.00    -0.087 C  
BRANCH  20  21
HETATM   21  N   UNL     1      -7.705   4.228  66.429  1.00  0.00    -0.093 NA 
HETATM   22  C   UNL     1      -6.366   3.702  66.145  1.00  0.00    -0.033 C  
HETATM   23  C   UNL     1      -8.713   3.354  65.824  1.00  0.00    -0.123 C  
ENDBRANCH  20  21
ENDBRANCH  18  20
ENDBRANCH  14  15
ENDBRANCH  13  14
ENDBRANCH  12  13
ENDBRANCH  11  12
ENDBRANCH   9  11
ENDBRANCH   4   9
ENDBRANCH   2   4
TORSDOF 9
ENDMDL
MODEL      206
REMARK 921   NORMALIZED FREE ENERGY PREDICTED BY IDOCK:   -3.86 KCAL/MOL
REMARK 922        TOTAL FREE ENERGY PREDICTED BY IDOCK:   -6.27 KCAL/MOL
REMARK 923 INTER-LIGAND FREE ENERGY PREDICTED BY IDOCK:   -5.65 KCAL/MOL
REMARK 924 INTRA-LIGAND FREE ENERGY PREDICTED BY IDOCK:   -0.63 KCAL/MOL
REMARK 927      BINDING AFFINITY PREDICTED BY RF-SCORE:    0.00 PKD
ROOT
HETATM    1  C   UNL     1     -11.787  11.648  68.318  1.00  0.00    -0.265 C  
HETATM    2  N   UNL     1     -10.906  12.135  67.281  1.00  0.00    -0.235 NA 
HETATM    3  H   UNL     1      -9.978  12.419  67.593  1.00  0.00     0.000 HD 
ENDROOT
BRANCH   2   4
HETATM    4  C   UNL     1     -11.144  12.272  65.924  1.00  0.00    -0.322 C  
HETATM    5  C   UNL     1     -11.710  13.411  65.466  1.00  0.00    -0.340 C  
HETATM    6  O   UNL     1     -11.650  12.846  63.211  1.00  0.00    -0.488 OA 
HETATM    7  N   UNL     1     -11.984  13.669  64.073  1.00  0.00    -0.446 N  
HETATM    8  O   UNL     1     -12.550  14.747  63.836  1.00  0.00    -0.834 OA 
BRANCH   4   9
HETATM    9  N   UNL     1     -10.811  11.216  65.098  1.00  0.00    -0.210 NA 
HETATM   10  H   UNL     1     -11.106  11.316  64.127  1.00  0.00     0.000 HD 
BRANCH   9  11
HETATM   11  C   UNL     1     -10.104   9.988  65.403  1.00  0.00    -0.247 C  
BRANCH  11  12
HETATM   12  C   UNL     1      -8.645  10.099  64.948  1.00  0.00    -0.178 C  
BRANCH  12  13
HETATM   13  S   UNL     1      -7.499  10.452  66.323  1.00  0.00    -0.133 SA 
BRANCH  13  14
HETATM   14  C   UNL     1      -7.613   8.874  67.230  1.00  0.00    -0.089 C  
BRANCH  14  15
HETATM   15  C   UNL     1      -8.199   9.087  68.572  1.00  0.00    -0.112 A  
HETATM   16  C   UNL     1      -7.761   9.724  69.711  1.00  0.00    -0.145 A  
HETATM   17  C   UNL     1      -8.792   9.569  70.669  1.00  0.00    -0.208 A  
HETATM   18  C   UNL     1      -9.791   8.841  70.060  1.00  0.00    -0.178 A  
HETATM   19  O   UNL     1      -9.428   8.535  68.782  1.00  0.00    -0.143 OA 
BRANCH  18  20
HETATM   20  C   UNL     1     -11.119   8.331  70.511  1.00  0.00    -0.249 C  
BRANCH  20  21
HETATM   21  N   UNL     1     -11.039   7.048  71.238  1.00  0.00    -0.246 NA 
HETATM   22  C   UNL     1     -12.349   6.645  71.760  1.00  0.00    -0.337 C  
HETATM   23  C   UNL     1     -10.531   6.011  70.336  1.00  0.00    -0.246 C  
ENDBRANCH  20  21
ENDBRANCH  18  20
ENDBRANCH  14  15
ENDBRANCH  13  14
ENDBRANCH  12  13
ENDBRANCH  11  12
ENDBRANCH   9  11
ENDBRANCH   4   9
ENDBRANCH   2   4
TORSDOF 9
ENDMDL
MODEL      207
REMARK 921   NORMALIZED FREE ENERGY PREDICTED BY IDOCK:   -3.86 KCAL/MOL
REMARK 922        TOTAL FREE ENERGY PREDICTED BY IDOCK:   -6.27 KCAL/MOL
REMARK 923 INTER-LIGAND FREE ENERGY PREDICTED BY IDOCK:   -6.37 KCAL/MOL
REMARK 924 INTRA-LIGAND FREE ENERGY PREDICTED BY IDOCK:    0.10 KCAL/MOL
REMARK 927      BINDING AFFINITY PREDICTED BY RF-SCORE:    0.00 PKD
ROOT
HETATM    1  C   UNL     1     -12.020  14.514  70.659  1.00  0.00    -0.319 C  
HETATM    2  N   UNL     1     -11.735  13.254  70.011  1.00  0.00    -0.490 NA 
HETATM    3  H   UNL     1     -11.363  12.524  70.618  1.00  0.00     0.000 HD 
ENDROOT
BRANCH   2   4
HETATM    4  C   UNL     1     -11.894  12.898  68.683  1.00  0.00    -0.312 C  
HETATM    5  C   UNL     1     -11.892  13.865  67.738  1.00  0.00    -0.380 C  
HETATM    6  O   UNL     1     -12.105  12.444  65.909  1.00  0.00    -0.580 OA 
HETATM    7  N   UNL     1     -12.028  13.608  66.324  1.00  0.00    -0.398 N  
HETATM    8  O   UNL     1     -12.052  14.616  65.603  1.00  0.00    -0.311 OA 
BRANCH   4   9
HETATM    9  N   UNL     1     -12.075  11.561  68.387  1.00  0.00    -0.560 NA 
HETATM   10  H   UNL     1     -12.599  11.373  67.532  1.00  0.00     0.000 HD 
BRANCH   9  11
HETATM   11  C   UNL     1     -11.631  10.384  69.107  1.00  0.00    -0.164 C  
BRANCH  11  12
HETATM   12  C   UNL     1     -10.107  10.412  69.263  1.00  0.00    -0.230 C  
BRANCH  12  13
HETATM   13  S   UNL     1      -9.239   9.570  67.896  1.00  0.00    -0.124 SA 
BRANCH  13  14
HETATM   14  C   UNL     1     -10.373   8.168  67.630  1.00  0.00    -0.247 C  
BRANCH  14  15
HETATM   15  C   UNL     1     -10.348   7.251  68.791  1.00  0.00    -0.200 A  
HETATM   16  C   UNL     1     -11.013   6.085  69.097  1.00  0.00    -0.429 A  
HETATM   17  C   UNL     1     -10.549   5.691  70.375  1.00  0.00    -0.364 A  
HETATM   18  C   UNL     1      -9.636   6.643  70.774  1.00  0.00    -0.175 A  
HETATM   19  O   UNL     1      -9.519   7.604  69.814  1.00  0.00    -0.157 OA 
BRANCH  18  20
HETATM   20  C   UNL     1      -8.806   6.828  72.001  1.00  0.00    -0.134 C  
BRANCH  20  21
HETATM   21  N   UNL     1      -9.423   7.727  72.997  1.00  0.00    -0.223 NA 
HETATM   22  C   UNL     1     -10.822   7.367  73.249  1.00  0.00    -0.368 C  
HETATM   23  C   UNL     1      -8.666   7.654  74.249  1.00  0.00    -0.210 C  
ENDBRANCH  20  21
ENDBRANCH  18  20
ENDBRANCH  14  15
ENDBRANCH  13  14
ENDBRANCH  12  13
ENDBRANCH  11  12
ENDBRANCH   9  11
ENDBRANCH   4   9
ENDBRANCH   2   4
TORSDOF 9
ENDMDL
MODEL      208
REMARK 921   NORMALIZED FREE ENERGY PREDICTED BY IDOCK:   -3.85 KCAL/MOL
REMARK 922        TOTAL FREE ENERGY PREDICTED BY IDOCK:   -6.26 KCAL/MOL
REMARK 923 INTER-LIGAND FREE ENERGY PREDICTED BY IDOCK:   -6.24 KCAL/MOL
REMARK 924 INTRA-LIGAND FREE ENERGY PREDICTED BY IDOCK:   -0.02 KCAL/MOL
REMARK 927      BINDING AFFINITY PREDICTED BY RF-SCORE:    0.00 PKD
ROOT
HETATM    1  C   UNL     1     -10.500  12.149  68.556  1.00  0.00    -0.233 C  
HETATM    2  N   UNL     1     -11.414  11.990  67.449  1.00  0.00    -0.365 NA 
HETATM    3  H   UNL     1     -12.159  11.308  67.590  1.00  0.00     0.000 HD 
ENDROOT
BRANCH   2   4
HETATM    4  C   UNL     1     -11.422  12.633  66.223  1.00  0.00    -0.364 C  
HETATM    5  C   UNL     1     -12.238  12.178  65.246  1.00  0.00    -0.104 C  
HETATM    6  O   UNL     1     -11.703  13.809  63.676  1.00  0.00    -0.266 OA 
HETATM    7  N   UNL     1     -12.344  12.783  63.940  1.00  0.00    -0.427 N  
HETATM    8  O   UNL     1     -13.108  12.208  63.150  1.00  0.00    -0.615 OA 
BRANCH   4   9
HETATM    9  N   UNL     1     -10.568  13.705  66.048  1.00  0.00    -0.285 NA 
HETATM   10  H   UNL     1      -9.798  13.544  65.399  1.00  0.00     0.000 HD 
BRANCH   9  11
HETATM   11  C   UNL     1     -10.602  15.024  66.646  1.00  0.00    -0.301 C  
BRANCH  11  12
HETATM   12  C   UNL     1      -9.321  15.789  66.293  1.00  0.00    -0.325 C  
BRANCH  12  13
HETATM   13  S   UNL     1      -7.904  15.321  67.342  1.00  0.00    -0.209 SA 
BRANCH  13  14
HETATM   14  C   UNL     1      -7.743  16.840  68.338  1.00  0.00    -0.208 C  
BRANCH  14  15
HETATM   15  C   UNL     1      -8.081  18.031  67.528  1.00  0.00    -0.230 A  
HETATM   16  C   UNL     1      -9.253  18.707  67.273  1.00  0.00    -0.297 A  
HETATM   17  C   UNL     1      -8.912  19.773  66.405  1.00  0.00    -0.440 A  
HETATM   18  C   UNL     1      -7.556  19.677  66.176  1.00  0.00    -0.316 A  
HETATM   19  O   UNL     1      -7.047  18.608  66.852  1.00  0.00    -0.198 OA 
BRANCH  18  20
HETATM   20  C   UNL     1      -6.588  20.466  65.358  1.00  0.00    -0.268 C  
BRANCH  20  21
HETATM   21  N   UNL     1      -6.379  19.916  64.004  1.00  0.00    -0.290 NA 
HETATM   22  C   UNL     1      -6.143  20.981  63.024  1.00  0.00    -0.256 C  
HETATM   23  C   UNL     1      -5.232  19.005  64.024  1.00  0.00    -0.242 C  
ENDBRANCH  20  21
ENDBRANCH  18  20
ENDBRANCH  14  15
ENDBRANCH  13  14
ENDBRANCH  12  13
ENDBRANCH  11  12
ENDBRANCH   9  11
ENDBRANCH   4   9
ENDBRANCH   2   4
TORSDOF 9
ENDMDL
MODEL      209
REMARK 921   NORMALIZED FREE ENERGY PREDICTED BY IDOCK:   -3.83 KCAL/MOL
REMARK 922        TOTAL FREE ENERGY PREDICTED BY IDOCK:   -6.24 KCAL/MOL
REMARK 923 INTER-LIGAND FREE ENERGY PREDICTED BY IDOCK:   -5.56 KCAL/MOL
REMARK 924 INTRA-LIGAND FREE ENERGY PREDICTED BY IDOCK:   -0.67 KCAL/MOL
REMARK 927      BINDING AFFINITY PREDICTED BY RF-SCORE:    0.00 PKD
ROOT
HETATM    1  C   UNL     1     -12.777   8.886  72.284  1.00  0.00    -0.397 C  
HETATM    2  N   UNL     1     -12.571   8.052  71.122  1.00  0.00    -0.484 NA 
HETATM    3  H   UNL     1     -13.417   7.780  70.622  1.00  0.00     0.000 HD 
ENDROOT
BRANCH   2   4
HETATM    4  C   UNL     1     -11.386   7.569  70.592  1.00  0.00    -0.281 C  
HETATM    5  C   UNL     1     -11.250   6.240  70.387  1.00  0.00    -0.373 C  
HETATM    6  O   UNL     1      -9.126   6.337  69.444  1.00  0.00    -0.138 OA 
HETATM    7  N   UNL     1     -10.071   5.631  69.821  1.00  0.00    -0.197 N  
HETATM    8  O   UNL     1     -10.098   4.393  69.746  1.00  0.00    -0.214 OA 
BRANCH   4   9
HETATM    9  N   UNL     1     -10.381   8.477  70.319  1.00  0.00    -0.200 NA 
HETATM   10  H   UNL     1      -9.463   8.232  70.692  1.00  0.00     0.000 HD 
BRANCH   9  11
HETATM   11  C   UNL     1     -10.432   9.724  69.584  1.00  0.00    -0.242 C  
BRANCH  11  12
HETATM   12  C   UNL     1     -11.119   9.503  68.231  1.00  0.00     0.009 C  
BRANCH  12  13
HETATM   13  S   UNL     1     -10.443  10.566  66.911  1.00  0.00    -0.236 SA 
BRANCH  13  14
HETATM   14  C   UNL     1      -9.620  11.835  67.929  1.00  0.00    -0.187 C  
BRANCH  14  15
HETATM   15  C   UNL     1     -10.489  13.023  68.082  1.00  0.00    -0.245 A  
HETATM   16  C   UNL     1     -10.607  14.210  67.395  1.00  0.00    -0.279 A  
HETATM   17  C   UNL     1     -11.629  14.942  68.046  1.00  0.00    -0.363 A  
HETATM   18  C   UNL     1     -12.066  14.161  69.095  1.00  0.00    -0.325 A  
HETATM   19  O   UNL     1     -11.365  12.993  69.127  1.00  0.00    -0.261 OA 
BRANCH  18  20
HETATM   20  C   UNL     1     -13.095  14.346  70.161  1.00  0.00     0.172 C  
BRANCH  20  21
HETATM   21  N   UNL     1     -12.518  14.622  71.492  1.00  0.00    -0.329 NA 
HETATM   22  C   UNL     1     -12.036  16.003  71.590  1.00  0.00    -0.499 C  
HETATM   23  C   UNL     1     -13.536  14.384  72.519  1.00  0.00    -0.497 C  
ENDBRANCH  20  21
ENDBRANCH  18  20
ENDBRANCH  14  15
ENDBRANCH  13  14
ENDBRANCH  12  13
ENDBRANCH  11  12
ENDBRANCH   9  11
ENDBRANCH   4   9
ENDBRANCH   2   4
TORSDOF 9
ENDMDL
MODEL      210
REMARK 921   NORMALIZED FREE ENERGY PREDICTED BY IDOCK:   -3.83 KCAL/MOL
REMARK 922        TOTAL FREE ENERGY PREDICTED BY IDOCK:   -6.23 KCAL/MOL
REMARK 923 INTER-LIGAND FREE ENERGY PREDICTED BY IDOCK:   -5.66 KCAL/MOL
REMARK 924 INTRA-LIGAND FREE ENERGY PREDICTED BY IDOCK:   -0.56 KCAL/MOL
REMARK 927      BINDING AFFINITY PREDICTED BY RF-SCORE:    0.00 PKD
ROOT
HETATM    1  C   UNL     1     -12.025  13.037  63.858  1.00  0.00    -0.485 C  
HETATM    2  N   UNL     1     -12.493  12.661  65.172  1.00  0.00    -0.609 NA 
HETATM    3  H   UNL     1     -13.499  12.516  65.254  1.00  0.00     0.000 HD 
ENDROOT
BRANCH   2   4
HETATM    4  C   UNL     1     -11.768  12.470  66.337  1.00  0.00    -0.397 C  
HETATM    5  C   UNL     1     -11.358  11.224  66.660  1.00  0.00    -0.079 C  
HETATM    6  O   UNL     1     -10.205  11.819  68.590  1.00  0.00    -0.214 OA 
HETATM    7  N   UNL     1     -10.580  10.912  67.835  1.00  0.00    -0.193 N  
HETATM    8  O   UNL     1     -10.331   9.709  68.001  1.00  0.00    -0.193 OA 
BRANCH   4   9
HETATM    9  N   UNL     1     -11.518  13.572  67.132  1.00  0.00    -0.321 NA 
HETATM   10  H   UNL     1     -11.632  13.417  68.134  1.00  0.00     0.000 HD 
BRANCH   9  11
HETATM   11  C   UNL     1     -11.118  14.913  66.758  1.00  0.00    -0.335 C  
BRANCH  11  12
HETATM   12  C   UNL     1     -11.258  15.853  67.961  1.00  0.00    -0.319 C  
BRANCH  12  13
HETATM   13  S   UNL     1     -10.228  15.349  69.380  1.00  0.00    -0.277 SA 
BRANCH  13  14
HETATM   14  C   UNL     1      -8.668  14.981  68.511  1.00  0.00    -0.175 C  
BRANCH  14  15
HETATM   15  C   UNL     1      -7.589  15.880  68.977  1.00  0.00    -0.202 A  
HETATM   16  C   UNL     1      -6.465  15.696  69.749  1.00  0.00    -0.169 A  
HETATM   17  C   UNL     1      -5.836  16.962  69.839  1.00  0.00    -0.226 A  
HETATM   18  C   UNL     1      -6.620  17.842  69.123  1.00  0.00    -0.246 A  
HETATM   19  O   UNL     1      -7.697  17.187  68.605  1.00  0.00    -0.240 OA 
BRANCH  18  20
HETATM   20  C   UNL     1      -6.532  19.304  68.837  1.00  0.00    -0.274 C  
BRANCH  20  21
HETATM   21  N   UNL     1      -6.573  19.624  67.396  1.00  0.00    -0.199 NA 
HETATM   22  C   UNL     1      -7.139  20.956  67.158  1.00  0.00    -0.351 C  
HETATM   23  C   UNL     1      -5.215  19.563  66.848  1.00  0.00    -0.161 C  
ENDBRANCH  20  21
ENDBRANCH  18  20
ENDBRANCH  14  15
ENDBRANCH  13  14
ENDBRANCH  12  13
ENDBRANCH  11  12
ENDBRANCH   9  11
ENDBRANCH   4   9
ENDBRANCH   2   4
TORSDOF 9
ENDMDL
MODEL      211
REMARK 921   NORMALIZED FREE ENERGY PREDICTED BY IDOCK:   -3.81 KCAL/MOL
REMARK 922        TOTAL FREE ENERGY PREDICTED BY IDOCK:   -6.20 KCAL/MOL
REMARK 923 INTER-LIGAND FREE ENERGY PREDICTED BY IDOCK:   -5.34 KCAL/MOL
REMARK 924 INTRA-LIGAND FREE ENERGY PREDICTED BY IDOCK:   -0.86 KCAL/MOL
REMARK 927      BINDING AFFINITY PREDICTED BY RF-SCORE:    0.00 PKD
ROOT
HETATM    1  C   UNL     1     -12.331  13.991  64.626  1.00  0.00    -0.397 C  
HETATM    2  N   UNL     1     -12.041  12.694  65.194  1.00  0.00    -0.433 NA 
HETATM    3  H   UNL     1     -12.764  12.311  65.802  1.00  0.00     0.000 HD 
ENDROOT
BRANCH   2   4
HETATM    4  C   UNL     1     -10.920  11.898  65.029  1.00  0.00    -0.312 C  
HETATM    5  C   UNL     1     -10.675  11.348  63.819  1.00  0.00    -0.403 C  
HETATM    6  O   UNL     1      -8.670  10.322  64.397  1.00  0.00    -0.175 OA 
HETATM    7  N   UNL     1      -9.528  10.522  63.527  1.00  0.00    -0.286 N  
HETATM    8  O   UNL     1      -9.485  10.063  62.376  1.00  0.00    -0.295 OA 
BRANCH   4   9
HETATM    9  N   UNL     1     -10.111  11.682  66.128  1.00  0.00    -0.217 NA 
HETATM   10  H   UNL     1     -10.061  10.715  66.445  1.00  0.00     0.000 HD 
BRANCH   9  11
HETATM   11  C   UNL     1      -9.322  12.624  66.897  1.00  0.00    -0.228 C  
BRANCH  11  12
HETATM   12  C   UNL     1      -9.606  12.442  68.392  1.00  0.00    -0.180 C  
BRANCH  12  13
HETATM   13  S   UNL     1     -11.207  13.155  68.901  1.00  0.00    -0.281 SA 
BRANCH  13  14
HETATM   14  C   UNL     1     -12.231  11.647  68.894  1.00  0.00    -0.050 C  
BRANCH  14  15
HETATM   15  C   UNL     1     -11.496  10.516  69.504  1.00  0.00    -0.272 A  
HETATM   16  C   UNL     1     -11.268  10.120  70.802  1.00  0.00    -0.414 A  
HETATM   17  C   UNL     1     -10.478   8.947  70.723  1.00  0.00    -0.283 A  
HETATM   18  C   UNL     1     -10.266   8.704  69.383  1.00  0.00    -0.210 A  
HETATM   19  O   UNL     1     -10.877   9.666  68.636  1.00  0.00    -0.219 OA 
BRANCH  18  20
HETATM   20  C   UNL     1      -9.519   7.655  68.629  1.00  0.00    -0.151 C  
BRANCH  20  21
HETATM   21  N   UNL     1     -10.111   7.343  67.313  1.00  0.00    -0.203 NA 
HETATM   22  C   UNL     1      -9.115   6.777  66.398  1.00  0.00    -0.152 C  
HETATM   23  C   UNL     1     -11.211   6.391  67.490  1.00  0.00    -0.179 C  
ENDBRANCH  20  21
ENDBRANCH  18  20
ENDBRANCH  14  15
ENDBRANCH  13  14
ENDBRANCH  12  13
ENDBRANCH  11  12
ENDBRANCH   9  11
ENDBRANCH   4   9
ENDBRANCH   2   4
TORSDOF 9
ENDMDL
MODEL      212
REMARK 921   NORMALIZED FREE ENERGY PREDICTED BY IDOCK:   -3.80 KCAL/MOL
REMARK 922        TOTAL FREE ENERGY PREDICTED BY IDOCK:   -6.19 KCAL/MOL
REMARK 923 INTER-LIGAND FREE ENERGY PREDICTED BY IDOCK:   -5.20 KCAL/MOL
REMARK 924 INTRA-LIGAND FREE ENERGY PREDICTED BY IDOCK:   -0.99 KCAL/MOL
REMARK 927      BINDING AFFINITY PREDICTED BY RF-SCORE:    0.00 PKD
ROOT
HETATM    1  C   UNL     1      -5.584  16.231  67.843  1.00  0.00    -0.123 C  
HETATM    2  N   UNL     1      -5.701  14.824  67.534  1.00  0.00    -0.345 NA 
HETATM    3  H   UNL     1      -5.571  14.579  66.553  1.00  0.00     0.000 HD 
ENDROOT
BRANCH   2   4
HETATM    4  C   UNL     1      -5.964  13.761  68.382  1.00  0.00    -0.099 C  
HETATM    5  C   UNL     1      -5.622  13.859  69.686  1.00  0.00    -0.092 C  
HETATM    6  O   UNL     1      -6.470  11.793  70.335  1.00  0.00    -0.184 OA 
HETATM    7  N   UNL     1      -5.868  12.825  70.662  1.00  0.00    -0.153 N  
HETATM    8  O   UNL     1      -5.446  13.062  71.803  1.00  0.00    -0.376 OA 
BRANCH   4   9
HETATM    9  N   UNL     1      -6.549  12.632  67.843  1.00  0.00    -0.096 NA 
HETATM   10  H   UNL     1      -6.041  11.762  68.005  1.00  0.00     0.000 HD 
BRANCH   9  11
HETATM   11  C   UNL     1      -7.775  12.495  67.082  1.00  0.00    -0.108 C  
BRANCH  11  12
HETATM   12  C   UNL     1      -8.339  11.080  67.252  1.00  0.00    -0.125 C  
BRANCH  12  13
HETATM   13  S   UNL     1      -9.733  11.009  68.427  1.00  0.00    -0.185 SA 
BRANCH  13  14
HETATM   14  C   UNL     1     -11.123  10.941  67.250  1.00  0.00    -0.283 C  
BRANCH  14  15
HETATM   15  C   UNL     1     -11.476  12.301  66.783  1.00  0.00    -0.361 A  
HETATM   16  C   UNL     1     -12.155  12.784  65.687  1.00  0.00    -0.514 A  
HETATM   17  C   UNL     1     -12.150  14.194  65.811  1.00  0.00    -0.433 A  
HETATM   18  C   UNL     1     -11.462  14.486  66.969  1.00  0.00    -0.370 A  
HETATM   19  O   UNL     1     -11.039  13.332  67.560  1.00  0.00    -0.257 OA 
BRANCH  18  20
HETATM   20  C   UNL     1     -11.091  15.757  67.658  1.00  0.00    -0.283 C  
BRANCH  20  21
HETATM   21  N   UNL     1      -9.633  15.972  67.751  1.00  0.00    -0.218 NA 
HETATM   22  C   UNL     1      -9.026  16.103  66.422  1.00  0.00    -0.318 C  
HETATM   23  C   UNL     1      -9.371  17.184  68.531  1.00  0.00    -0.274 C  
ENDBRANCH  20  21
ENDBRANCH  18  20
ENDBRANCH  14  15
ENDBRANCH  13  14
ENDBRANCH  12  13
ENDBRANCH  11  12
ENDBRANCH   9  11
ENDBRANCH   4   9
ENDBRANCH   2   4
TORSDOF 9
ENDMDL
MODEL      213
REMARK 921   NORMALIZED FREE ENERGY PREDICTED BY IDOCK:   -3.79 KCAL/MOL
REMARK 922        TOTAL FREE ENERGY PREDICTED BY IDOCK:   -6.18 KCAL/MOL
REMARK 923 INTER-LIGAND FREE ENERGY PREDICTED BY IDOCK:   -5.62 KCAL/MOL
REMARK 924 INTRA-LIGAND FREE ENERGY PREDICTED BY IDOCK:   -0.56 KCAL/MOL
REMARK 927      BINDING AFFINITY PREDICTED BY RF-SCORE:    0.00 PKD
ROOT
HETATM    1  C   UNL     1     -11.964  13.027  64.070  1.00  0.00    -0.456 C  
HETATM    2  N   UNL     1     -12.326  12.351  65.295  1.00  0.00    -0.595 NA 
HETATM    3  H   UNL     1     -12.828  11.472  65.178  1.00  0.00     0.000 HD 
ENDROOT
BRANCH   2   4
HETATM    4  C   UNL     1     -12.087  12.729  66.606  1.00  0.00    -0.246 C  
HETATM    5  C   UNL     1     -12.012  14.044  66.908  1.00  0.00    -0.447 C  
HETATM    6  O   UNL     1     -11.706  13.769  69.197  1.00  0.00    -0.286 OA 
HETATM    7  N   UNL     1     -11.789  14.551  68.241  1.00  0.00    -0.326 N  
HETATM    8  O   UNL     1     -11.702  15.785  68.330  1.00  0.00    -0.366 OA 
BRANCH   4   9
HETATM    9  N   UNL     1     -11.910  11.732  67.546  1.00  0.00    -0.617 NA 
HETATM   10  H   UNL     1     -12.522  11.791  68.360  1.00  0.00     0.000 HD 
BRANCH   9  11
HETATM   11  C   UNL     1     -10.987  10.615  67.550  1.00  0.00    -0.310 C  
BRANCH  11  12
HETATM   12  C   UNL     1     -10.255  10.549  68.895  1.00  0.00    -0.208 C  
BRANCH  12  13
HETATM   13  S   UNL     1     -10.076   8.846  69.522  1.00  0.00    -0.204 SA 
BRANCH  13  14
HETATM   14  C   UNL     1      -8.904   8.186  68.291  1.00  0.00    -0.133 C  
BRANCH  14  15
HETATM   15  C   UNL     1      -9.495   7.032  67.577  1.00  0.00    -0.126 A  
HETATM   16  C   UNL     1     -10.745   6.768  67.067  1.00  0.00    -0.435 A  
HETATM   17  C   UNL     1     -10.674   5.472  66.501  1.00  0.00    -0.309 A  
HETATM   18  C   UNL     1      -9.388   5.021  66.708  1.00  0.00    -0.135 A  
HETATM   19  O   UNL     1      -8.668   5.967  67.375  1.00  0.00    -0.107 OA 
BRANCH  18  20
HETATM   20  C   UNL     1      -8.671   3.754  66.377  1.00  0.00    -0.118 C  
BRANCH  20  21
HETATM   21  N   UNL     1      -7.943   3.175  67.523  1.00  0.00    -0.076 NA 
HETATM   22  C   UNL     1      -8.646   2.011  68.072  1.00  0.00    -0.080 C  
HETATM   23  C   UNL     1      -6.600   2.778  67.092  1.00  0.00    -0.037 C  
ENDBRANCH  20  21
ENDBRANCH  18  20
ENDBRANCH  14  15
ENDBRANCH  13  14
ENDBRANCH  12  13
ENDBRANCH  11  12
ENDBRANCH   9  11
ENDBRANCH   4   9
ENDBRANCH   2   4
TORSDOF 9
ENDMDL
MODEL      214
REMARK 921   NORMALIZED FREE ENERGY PREDICTED BY IDOCK:   -3.79 KCAL/MOL
REMARK 922        TOTAL FREE ENERGY PREDICTED BY IDOCK:   -6.17 KCAL/MOL
REMARK 923 INTER-LIGAND FREE ENERGY PREDICTED BY IDOCK:   -5.61 KCAL/MOL
REMARK 924 INTRA-LIGAND FREE ENERGY PREDICTED BY IDOCK:   -0.56 KCAL/MOL
REMARK 927      BINDING AFFINITY PREDICTED BY RF-SCORE:    0.00 PKD
ROOT
HETATM    1  C   UNL     1     -10.936   6.507  67.339  1.00  0.00    -0.378 C  
HETATM    2  N   UNL     1     -10.125   5.440  66.799  1.00  0.00    -0.189 NA 
HETATM    3  H   UNL     1      -9.628   4.876  67.487  1.00  0.00     0.000 HD 
ENDROOT
BRANCH   2   4
HETATM    4  C   UNL     1      -9.927   5.076  65.478  1.00  0.00    -0.012 C  
HETATM    5  C   UNL     1     -10.726   4.135  64.927  1.00  0.00    -0.114 C  
HETATM    6  O   UNL     1      -9.802   4.221  62.795  1.00  0.00    -0.152 OA 
HETATM    7  N   UNL     1     -10.625   3.695  63.556  1.00  0.00    -0.252 N  
HETATM    8  O   UNL     1     -11.408   2.791  63.231  1.00  0.00    -0.281 OA 
BRANCH   4   9
HETATM    9  N   UNL     1      -8.894   5.680  64.787  1.00  0.00    -0.358 NA 
HETATM   10  H   UNL     1      -8.797   5.391  63.813  1.00  0.00     0.000 HD 
BRANCH   9  11
HETATM   11  C   UNL     1      -7.929   6.663  65.235  1.00  0.00    -0.123 C  
BRANCH  11  12
HETATM   12  C   UNL     1      -8.145   7.984  64.489  1.00  0.00    -0.132 C  
BRANCH  12  13
HETATM   13  S   UNL     1      -9.172   9.167  65.425  1.00  0.00    -0.165 SA 
BRANCH  13  14
HETATM   14  C   UNL     1      -9.650  10.295  64.075  1.00  0.00    -0.304 C  
BRANCH  14  15
HETATM   15  C   UNL     1     -10.608  11.312  64.560  1.00  0.00    -0.336 A  
HETATM   16  C   UNL     1     -11.476  12.177  63.934  1.00  0.00    -0.519 A  
HETATM   17  C   UNL     1     -12.119  12.905  64.964  1.00  0.00    -0.480 A  
HETATM   18  C   UNL     1     -11.599  12.446  66.155  1.00  0.00    -0.396 A  
HETATM   19  O   UNL     1     -10.668  11.480  65.912  1.00  0.00    -0.265 OA 
BRANCH  18  20
HETATM   20  C   UNL     1     -11.831  12.797  67.587  1.00  0.00    -0.339 C  
BRANCH  20  21
HETATM   21  N   UNL     1     -11.312  14.129  67.957  1.00  0.00    -0.283 NA 
HETATM   22  C   UNL     1     -12.032  14.684  69.108  1.00  0.00    -0.294 C  
HETATM   23  C   UNL     1      -9.886  14.020  68.278  1.00  0.00    -0.233 C  
ENDBRANCH  20  21
ENDBRANCH  18  20
ENDBRANCH  14  15
ENDBRANCH  13  14
ENDBRANCH  12  13
ENDBRANCH  11  12
ENDBRANCH   9  11
ENDBRANCH   4   9
ENDBRANCH   2   4
TORSDOF 9
ENDMDL
MODEL      215
REMARK 921   NORMALIZED FREE ENERGY PREDICTED BY IDOCK:   -3.78 KCAL/MOL
REMARK 922        TOTAL FREE ENERGY PREDICTED BY IDOCK:   -6.16 KCAL/MOL
REMARK 923 INTER-LIGAND FREE ENERGY PREDICTED BY IDOCK:   -5.89 KCAL/MOL
REMARK 924 INTRA-LIGAND FREE ENERGY PREDICTED BY IDOCK:   -0.27 KCAL/MOL
REMARK 927      BINDING AFFINITY PREDICTED BY RF-SCORE:    0.00 PKD
ROOT
HETATM    1  C   UNL     1     -10.907   3.634  63.724  1.00  0.00    -0.200 C  
HETATM    2  N   UNL     1     -11.097   4.320  64.982  1.00  0.00    -0.911 NA 
HETATM    3  H   UNL     1     -12.042   4.660  65.157  1.00  0.00     0.000 HD 
ENDROOT
BRANCH   2   4
HETATM    4  C   UNL     1     -10.177   4.581  65.983  1.00  0.00    -0.260 C  
HETATM    5  C   UNL     1      -9.468   3.558  66.509  1.00  0.00    -0.153 C  
HETATM    6  O   UNL     1      -8.181   4.847  67.955  1.00  0.00    -0.096 OA 
HETATM    7  N   UNL     1      -8.469   3.717  67.538  1.00  0.00    -0.094 N  
HETATM    8  O   UNL     1      -7.948   2.665  67.939  1.00  0.00    -0.059 OA 
BRANCH   4   9
HETATM    9  N   UNL     1     -10.044   5.887  66.416  1.00  0.00    -0.334 NA 
HETATM   10  H   UNL     1      -9.107   6.280  66.324  1.00  0.00     0.000 HD 
BRANCH   9  11
HETATM   11  C   UNL     1     -11.034   6.781  66.982  1.00  0.00    -0.368 C  
BRANCH  11  12
HETATM   12  C   UNL     1     -10.513   8.222  66.951  1.00  0.00    -0.295 C  
BRANCH  12  13
HETATM   13  S   UNL     1      -9.022   8.414  65.917  1.00  0.00    -0.157 SA 
BRANCH  13  14
HETATM   14  C   UNL     1      -8.598  10.144  66.309  1.00  0.00    -0.131 C  
BRANCH  14  15
HETATM   15  C   UNL     1      -9.720  11.045  65.967  1.00  0.00    -0.224 A  
HETATM   16  C   UNL     1     -10.409  11.308  64.804  1.00  0.00    -0.366 A  
HETATM   17  C   UNL     1     -11.378  12.286  65.133  1.00  0.00    -0.376 A  
HETATM   18  C   UNL     1     -11.217  12.566  66.473  1.00  0.00    -0.307 A  
HETATM   19  O   UNL     1     -10.199  11.818  66.983  1.00  0.00    -0.210 OA 
BRANCH  18  20
HETATM   20  C   UNL     1     -11.896  13.497  67.423  1.00  0.00    -0.384 C  
BRANCH  20  21
HETATM   21  N   UNL     1     -11.430  14.893  67.309  1.00  0.00    -0.352 NA 
HETATM   22  C   UNL     1     -11.643  15.632  68.558  1.00  0.00    -0.370 C  
HETATM   23  C   UNL     1     -10.004  14.902  66.973  1.00  0.00    -0.240 C  
ENDBRANCH  20  21
ENDBRANCH  18  20
ENDBRANCH  14  15
ENDBRANCH  13  14
ENDBRANCH  12  13
ENDBRANCH  11  12
ENDBRANCH   9  11
ENDBRANCH   4   9
ENDBRANCH   2   4
TORSDOF 9
ENDMDL
MODEL      216
REMARK 921   NORMALIZED FREE ENERGY PREDICTED BY IDOCK:   -3.78 KCAL/MOL
REMARK 922        TOTAL FREE ENERGY PREDICTED BY IDOCK:   -6.16 KCAL/MOL
REMARK 923 INTER-LIGAND FREE ENERGY PREDICTED BY IDOCK:   -6.00 KCAL/MOL
REMARK 924 INTRA-LIGAND FREE ENERGY PREDICTED BY IDOCK:   -0.16 KCAL/MOL
REMARK 927      BINDING AFFINITY PREDICTED BY RF-SCORE:    0.00 PKD
ROOT
HETATM    1  C   UNL     1      -6.001  11.244  66.222  1.00  0.00    -0.100 C  
HETATM    2  N   UNL     1      -7.160  11.033  65.385  1.00  0.00    -0.353 NA 
HETATM    3  H   UNL     1      -6.965  10.886  64.395  1.00  0.00     0.000 HD 
ENDROOT
BRANCH   2   4
HETATM    4  C   UNL     1      -8.499  11.002  65.739  1.00  0.00    -0.119 C  
HETATM    5  C   UNL     1      -8.970   9.947  66.442  1.00  0.00    -0.147 C  
HETATM    6  O   UNL     1     -11.147  10.732  66.664  1.00  0.00    -0.181 OA 
HETATM    7  N   UNL     1     -10.338   9.821  66.881  1.00  0.00    -0.240 N  
HETATM    8  O   UNL     1     -10.609   8.766  67.475  1.00  0.00    -0.267 OA 
BRANCH   4   9
HETATM    9  N   UNL     1      -9.301  12.049  65.330  1.00  0.00    -0.431 NA 
HETATM   10  H   UNL     1      -9.519  12.065  64.334  1.00  0.00     0.000 HD 
BRANCH   9  11
HETATM   11  C   UNL     1      -9.881  13.129  66.103  1.00  0.00    -0.280 C  
BRANCH  11  12
HETATM   12  C   UNL     1      -8.788  13.835  66.913  1.00  0.00    -0.188 C  
BRANCH  12  13
HETATM   13  S   UNL     1      -9.372  14.408  68.543  1.00  0.00    -0.191 SA 
BRANCH  13  14
HETATM   14  C   UNL     1     -11.168  14.180  68.324  1.00  0.00    -0.272 C  
BRANCH  14  15
HETATM   15  C   UNL     1     -11.731  13.382  69.436  1.00  0.00    -0.325 A  
HETATM   16  C   UNL     1     -12.433  13.701  70.576  1.00  0.00    -0.394 A  
HETATM   17  C   UNL     1     -12.680  12.476  71.242  1.00  0.00    -0.350 A  
HETATM   18  C   UNL     1     -12.106  11.486  70.473  1.00  0.00    -0.378 A  
HETATM   19  O   UNL     1     -11.516  12.037  69.375  1.00  0.00    -0.273 OA 
BRANCH  18  20
HETATM   20  C   UNL     1     -11.995  10.004  70.613  1.00  0.00    -0.313 C  
BRANCH  20  21
HETATM   21  N   UNL     1     -12.308   9.518  71.971  1.00  0.00    -0.356 NA 
HETATM   22  C   UNL     1     -13.703   9.078  72.075  1.00  0.00    -0.461 C  
HETATM   23  C   UNL     1     -11.417   8.403  72.303  1.00  0.00    -0.384 C  
ENDBRANCH  20  21
ENDBRANCH  18  20
ENDBRANCH  14  15
ENDBRANCH  13  14
ENDBRANCH  12  13
ENDBRANCH  11  12
ENDBRANCH   9  11
ENDBRANCH   4   9
ENDBRANCH   2   4
TORSDOF 9
ENDMDL
MODEL      217
REMARK 921   NORMALIZED FREE ENERGY PREDICTED BY IDOCK:   -3.77 KCAL/MOL
REMARK 922        TOTAL FREE ENERGY PREDICTED BY IDOCK:   -6.15 KCAL/MOL
REMARK 923 INTER-LIGAND FREE ENERGY PREDICTED BY IDOCK:   -5.05 KCAL/MOL
REMARK 924 INTRA-LIGAND FREE ENERGY PREDICTED BY IDOCK:   -1.10 KCAL/MOL
REMARK 927      BINDING AFFINITY PREDICTED BY RF-SCORE:    0.00 PKD
ROOT
HETATM    1  C   UNL     1      -7.034  12.939  68.470  1.00  0.00    -0.098 C  
HETATM    2  N   UNL     1      -8.262  12.383  68.992  1.00  0.00    -0.327 NA 
HETATM    3  H   UNL     1      -8.363  12.419  70.006  1.00  0.00     0.000 HD 
ENDROOT
BRANCH   2   4
HETATM    4  C   UNL     1      -9.320  11.807  68.310  1.00  0.00    -0.193 C  
HETATM    5  C   UNL     1      -9.539  10.479  68.433  1.00  0.00    -0.160 C  
HETATM    6  O   UNL     1     -11.450  10.403  67.110  1.00  0.00    -0.250 OA 
HETATM    7  N   UNL     1     -10.622   9.778  67.786  1.00  0.00    -0.250 N  
HETATM    8  O   UNL     1     -10.645   8.552  67.972  1.00  0.00    -0.207 OA 
BRANCH   4   9
HETATM    9  N   UNL     1     -10.095  12.623  67.507  1.00  0.00    -0.210 NA 
HETATM   10  H   UNL     1     -11.012  12.859  67.886  1.00  0.00     0.000 HD 
BRANCH   9  11
HETATM   11  C   UNL     1      -9.801  13.194  66.208  1.00  0.00    -0.283 C  
BRANCH  11  12
HETATM   12  C   UNL     1     -10.484  14.559  66.073  1.00  0.00    -0.308 C  
BRANCH  12  13
HETATM   13  S   UNL     1      -9.300  15.947  66.077  1.00  0.00    -0.331 SA 
BRANCH  13  14
HETATM   14  C   UNL     1      -8.654  15.795  67.775  1.00  0.00    -0.159 C  
BRANCH  14  15
HETATM   15  C   UNL     1      -9.718  16.077  68.763  1.00  0.00    -0.226 A  
HETATM   16  C   UNL     1     -10.339  17.229  69.190  1.00  0.00    -0.290 A  
HETATM   17  C   UNL     1     -11.279  16.830  70.171  1.00  0.00     0.163 A  
HETATM   18  C   UNL     1     -11.169  15.461  70.289  1.00  0.00    -0.309 A  
HETATM   19  O   UNL     1     -10.209  14.999  69.438  1.00  0.00    -0.234 OA 
BRANCH  18  20
HETATM   20  C   UNL     1     -11.849  14.439  71.138  1.00  0.00    -0.251 C  
BRANCH  20  21
HETATM   21  N   UNL     1     -12.733  15.024  72.165  1.00  0.00    -0.314 NA 
HETATM   22  C   UNL     1     -14.095  14.487  72.070  1.00  0.00    -0.516 C  
HETATM   23  C   UNL     1     -12.186  14.738  73.494  1.00  0.00    -0.297 C  
ENDBRANCH  20  21
ENDBRANCH  18  20
ENDBRANCH  14  15
ENDBRANCH  13  14
ENDBRANCH  12  13
ENDBRANCH  11  12
ENDBRANCH   9  11
ENDBRANCH   4   9
ENDBRANCH   2   4
TORSDOF 9
ENDMDL
MODEL      218
REMARK 921   NORMALIZED FREE ENERGY PREDICTED BY IDOCK:   -3.77 KCAL/MOL
REMARK 922        TOTAL FREE ENERGY PREDICTED BY IDOCK:   -6.15 KCAL/MOL
REMARK 923 INTER-LIGAND FREE ENERGY PREDICTED BY IDOCK:   -5.69 KCAL/MOL
REMARK 924 INTRA-LIGAND FREE ENERGY PREDICTED BY IDOCK:   -0.46 KCAL/MOL
REMARK 927      BINDING AFFINITY PREDICTED BY RF-SCORE:    0.00 PKD
ROOT
HETATM    1  C   UNL     1      -8.773   9.096  65.099  1.00  0.00    -0.195 C  
HETATM    2  N   UNL     1      -9.631  10.172  64.657  1.00  0.00    -0.299 NA 
HETATM    3  H   UNL     1      -9.660  10.323  63.649  1.00  0.00     0.000 HD 
ENDROOT
BRANCH   2   4
HETATM    4  C   UNL     1     -10.420  11.026  65.408  1.00  0.00    -0.241 C  
HETATM    5  C   UNL     1     -11.282  11.853  64.776  1.00  0.00    -0.297 C  
HETATM    6  O   UNL     1     -12.201  12.791  66.696  1.00  0.00    -0.481 OA 
HETATM    7  N   UNL     1     -12.166  12.768  65.458  1.00  0.00    -0.465 N  
HETATM    8  O   UNL     1     -12.857  13.486  64.721  1.00  0.00    -0.677 OA 
BRANCH   4   9
HETATM    9  N   UNL     1     -10.268  11.009  66.781  1.00  0.00    -0.220 NA 
HETATM   10  H   UNL     1      -9.677  11.748  67.161  1.00  0.00     0.000 HD 
BRANCH   9  11
HETATM   11  C   UNL     1     -10.822  10.099  67.764  1.00  0.00    -0.292 C  
BRANCH  11  12
HETATM   12  C   UNL     1     -10.171  10.348  69.129  1.00  0.00    -0.222 C  
BRANCH  12  13
HETATM   13  S   UNL     1     -11.346  10.178  70.515  1.00  0.00    -0.355 SA 
BRANCH  13  14
HETATM   14  C   UNL     1     -10.413   9.020  71.569  1.00  0.00    -0.339 C  
BRANCH  14  15
HETATM   15  C   UNL     1     -10.539   7.636  71.061  1.00  0.00    -0.217 A  
HETATM   16  C   UNL     1     -11.505   6.664  71.182  1.00  0.00    -0.370 A  
HETATM   17  C   UNL     1     -11.027   5.542  70.462  1.00  0.00    -0.196 A  
HETATM   18  C   UNL     1      -9.796   5.896  69.953  1.00  0.00    -0.174 A  
HETATM   19  O   UNL     1      -9.490   7.170  70.326  1.00  0.00    -0.162 OA 
BRANCH  18  20
HETATM   20  C   UNL     1      -8.775   5.183  69.129  1.00  0.00    -0.092 C  
BRANCH  20  21
HETATM   21  N   UNL     1      -9.216   4.921  67.745  1.00  0.00    -0.117 NA 
HETATM   22  C   UNL     1      -8.399   5.656  66.774  1.00  0.00    -0.108 C  
HETATM   23  C   UNL     1      -9.127   3.484  67.473  1.00  0.00    -0.167 C  
ENDBRANCH  20  21
ENDBRANCH  18  20
ENDBRANCH  14  15
ENDBRANCH  13  14
ENDBRANCH  12  13
ENDBRANCH  11  12
ENDBRANCH   9  11
ENDBRANCH   4   9
ENDBRANCH   2   4
TORSDOF 9
ENDMDL
MODEL      219
REMARK 921   NORMALIZED FREE ENERGY PREDICTED BY IDOCK:   -3.76 KCAL/MOL
REMARK 922        TOTAL FREE ENERGY PREDICTED BY IDOCK:   -6.13 KCAL/MOL
REMARK 923 INTER-LIGAND FREE ENERGY PREDICTED BY IDOCK:   -5.28 KCAL/MOL
REMARK 924 INTRA-LIGAND FREE ENERGY PREDICTED BY IDOCK:   -0.85 KCAL/MOL
REMARK 927      BINDING AFFINITY PREDICTED BY RF-SCORE:    0.00 PKD
ROOT
HETATM    1  C   UNL     1     -12.052  14.736  71.745  1.00  0.00    -0.348 C  
HETATM    2  N   UNL     1     -11.206  14.982  70.600  1.00  0.00    -0.420 NA 
HETATM    3  H   UNL     1     -10.261  15.302  70.814  1.00  0.00     0.000 HD 
ENDROOT
BRANCH   2   4
HETATM    4  C   UNL     1     -11.496  14.845  69.253  1.00  0.00    -0.303 C  
HETATM    5  C   UNL     1     -11.598  13.605  68.724  1.00  0.00    -0.324 C  
HETATM    6  O   UNL     1     -12.168  14.282  66.574  1.00  0.00    -0.441 OA 
HETATM    7  N   UNL     1     -11.917  13.343  67.342  1.00  0.00    -0.364 N  
HETATM    8  O   UNL     1     -11.923  12.147  67.016  1.00  0.00    -0.593 OA 
BRANCH   4   9
HETATM    9  N   UNL     1     -11.645  15.994  68.502  1.00  0.00    -0.367 NA 
HETATM   10  H   UNL     1     -12.369  15.952  67.784  1.00  0.00     0.000 HD 
BRANCH   9  11
HETATM   11  C   UNL     1     -10.929  17.252  68.579  1.00  0.00    -0.146 C  
BRANCH  11  12
HETATM   12  C   UNL     1      -9.663  17.184  67.718  1.00  0.00    -0.271 C  
BRANCH  12  13
HETATM   13  S   UNL     1      -8.290  16.311  68.543  1.00  0.00    -0.216 SA 
BRANCH  13  14
HETATM   14  C   UNL     1      -7.850  15.123  67.232  1.00  0.00    -0.211 C  
BRANCH  14  15
HETATM   15  C   UNL     1      -7.791  13.748  67.774  1.00  0.00    -0.172 A  
HETATM   16  C   UNL     1      -7.099  13.162  68.809  1.00  0.00    -0.098 A  
HETATM   17  C   UNL     1      -7.475  11.797  68.813  1.00  0.00    -0.109 A  
HETATM   18  C   UNL     1      -8.368  11.631  67.775  1.00  0.00    -0.143 A  
HETATM   19  O   UNL     1      -8.555  12.818  67.132  1.00  0.00    -0.191 OA 
BRANCH  18  20
HETATM   20  C   UNL     1      -9.117  10.459  67.235  1.00  0.00    -0.135 C  
BRANCH  20  21
HETATM   21  N   UNL     1      -8.246   9.440  66.616  1.00  0.00    -0.111 NA 
HETATM   22  C   UNL     1      -9.031   8.346  66.034  1.00  0.00    -0.184 C  
HETATM   23  C   UNL     1      -7.433  10.069  65.571  1.00  0.00    -0.137 C  
ENDBRANCH  20  21
ENDBRANCH  18  20
ENDBRANCH  14  15
ENDBRANCH  13  14
ENDBRANCH  12  13
ENDBRANCH  11  12
ENDBRANCH   9  11
ENDBRANCH   4   9
ENDBRANCH   2   4
TORSDOF 9
ENDMDL
MODEL      220
REMARK 921   NORMALIZED FREE ENERGY PREDICTED BY IDOCK:   -3.76 KCAL/MOL
REMARK 922        TOTAL FREE ENERGY PREDICTED BY IDOCK:   -6.13 KCAL/MOL
REMARK 923 INTER-LIGAND FREE ENERGY PREDICTED BY IDOCK:   -5.73 KCAL/MOL
REMARK 924 INTRA-LIGAND FREE ENERGY PREDICTED BY IDOCK:   -0.40 KCAL/MOL
REMARK 927      BINDING AFFINITY PREDICTED BY RF-SCORE:    0.00 PKD
ROOT
HETATM    1  C   UNL     1     -12.086  13.569  69.520  1.00  0.00    -0.297 C  
HETATM    2  N   UNL     1     -12.152  12.707  70.678  1.00  0.00    -0.507 NA 
HETATM    3  H   UNL     1     -11.900  13.143  71.564  1.00  0.00     0.000 HD 
ENDROOT
BRANCH   2   4
HETATM    4  C   UNL     1     -12.509  11.371  70.754  1.00  0.00    -0.365 C  
HETATM    5  C   UNL     1     -13.198  10.934  71.832  1.00  0.00    -0.403 C  
HETATM    6  O   UNL     1     -13.438   8.735  71.116  1.00  0.00    -0.192 OA 
HETATM    7  N   UNL     1     -13.640   9.571  72.006  1.00  0.00    -0.420 N  
HETATM    8  O   UNL     1     -14.218   9.334  73.077  1.00  0.00    -0.387 OA 
BRANCH   4   9
HETATM    9  N   UNL     1     -12.118  10.536  69.725  1.00  0.00    -0.478 NA 
HETATM   10  H   UNL     1     -12.881  10.081  69.223  1.00  0.00     0.000 HD 
BRANCH   9  11
HETATM   11  C   UNL     1     -10.789  10.208  69.251  1.00  0.00    -0.235 C  
BRANCH  11  12
HETATM   12  C   UNL     1     -10.825   9.935  67.744  1.00  0.00    -0.264 C  
BRANCH  12  13
HETATM   13  S   UNL     1      -9.898   8.436  67.272  1.00  0.00    -0.227 SA 
BRANCH  13  14
HETATM   14  C   UNL     1      -8.835   8.258  68.743  1.00  0.00    -0.137 C  
BRANCH  14  15
HETATM   15  C   UNL     1      -9.123   6.986  69.442  1.00  0.00    -0.145 A  
HETATM   16  C   UNL     1      -8.635   5.704  69.325  1.00  0.00    -0.106 A  
HETATM   17  C   UNL     1      -9.328   4.929  70.286  1.00  0.00    -0.216 A  
HETATM   18  C   UNL     1     -10.202   5.783  70.925  1.00  0.00    -0.216 A  
HETATM   19  O   UNL     1     -10.088   7.037  70.404  1.00  0.00    -0.187 OA 
BRANCH  18  20
HETATM   20  C   UNL     1     -11.213   5.605  72.009  1.00  0.00    -0.207 C  
BRANCH  20  21
HETATM   21  N   UNL     1     -10.658   5.785  73.365  1.00  0.00    -0.242 NA 
HETATM   22  C   UNL     1      -9.419   5.021  73.542  1.00  0.00    -0.132 C  
HETATM   23  C   UNL     1     -10.394   7.208  73.594  1.00  0.00    -0.368 C  
ENDBRANCH  20  21
ENDBRANCH  18  20
ENDBRANCH  14  15
ENDBRANCH  13  14
ENDBRANCH  12  13
ENDBRANCH  11  12
ENDBRANCH   9  11
ENDBRANCH   4   9
ENDBRANCH   2   4
TORSDOF 9
ENDMDL
MODEL      221
REMARK 921   NORMALIZED FREE ENERGY PREDICTED BY IDOCK:   -3.76 KCAL/MOL
REMARK 922        TOTAL FREE ENERGY PREDICTED BY IDOCK:   -6.12 KCAL/MOL
REMARK 923 INTER-LIGAND FREE ENERGY PREDICTED BY IDOCK:   -5.57 KCAL/MOL
REMARK 924 INTRA-LIGAND FREE ENERGY PREDICTED BY IDOCK:   -0.56 KCAL/MOL
REMARK 927      BINDING AFFINITY PREDICTED BY RF-SCORE:    0.00 PKD
ROOT
HETATM    1  C   UNL     1     -10.908  16.461  69.688  1.00  0.00    -0.346 C  
HETATM    2  N   UNL     1     -10.394  16.166  68.370  1.00  0.00    -0.248 NA 
HETATM    3  H   UNL     1     -10.417  16.941  67.708  1.00  0.00     0.000 HD 
ENDROOT
BRANCH   2   4
HETATM    4  C   UNL     1      -9.874  14.980  67.880  1.00  0.00    -0.217 C  
HETATM    5  C   UNL     1      -8.609  14.631  68.205  1.00  0.00    -0.167 C  
HETATM    6  O   UNL     1      -8.609  12.585  67.099  1.00  0.00    -0.188 OA 
HETATM    7  N   UNL     1      -7.975  13.410  67.770  1.00  0.00    -0.151 N  
HETATM    8  O   UNL     1      -6.794  13.272  68.123  1.00  0.00    -0.087 OA 
BRANCH   4   9
HETATM    9  N   UNL     1     -10.674  14.215  67.053  1.00  0.00    -0.283 NA 
HETATM   10  H   UNL     1     -10.357  14.146  66.086  1.00  0.00     0.000 HD 
BRANCH   9  11
HETATM   11  C   UNL     1     -11.895  13.495  67.352  1.00  0.00    -0.384 C  
BRANCH  11  12
HETATM   12  C   UNL     1     -11.908  13.079  68.828  1.00  0.00    -0.317 C  
BRANCH  12  13
HETATM   13  S   UNL     1     -11.907  11.269  69.055  1.00  0.00    -0.336 SA 
BRANCH  13  14
HETATM   14  C   UNL     1     -12.510  11.175  70.772  1.00  0.00    -0.384 C  
BRANCH  14  15
HETATM   15  C   UNL     1     -12.165   9.868  71.374  1.00  0.00    -0.408 A  
HETATM   16  C   UNL     1     -12.898   8.885  72.000  1.00  0.00    -0.456 A  
HETATM   17  C   UNL     1     -11.974   7.873  72.360  1.00  0.00    -0.373 A  
HETATM   18  C   UNL     1     -10.734   8.304  71.938  1.00  0.00    -0.283 A  
HETATM   19  O   UNL     1     -10.845   9.526  71.346  1.00  0.00    -0.347 OA 
BRANCH  18  20
HETATM   20  C   UNL     1      -9.359   7.728  72.018  1.00  0.00    -0.152 C  
BRANCH  20  21
HETATM   21  N   UNL     1      -9.290   6.480  72.805  1.00  0.00    -0.140 NA 
HETATM   22  C   UNL     1      -8.318   5.542  72.236  1.00  0.00    -0.119 C  
HETATM   23  C   UNL     1      -8.914   6.799  74.184  1.00  0.00    -0.183 C  
ENDBRANCH  20  21
ENDBRANCH  18  20
ENDBRANCH  14  15
ENDBRANCH  13  14
ENDBRANCH  12  13
ENDBRANCH  11  12
ENDBRANCH   9  11
ENDBRANCH   4   9
ENDBRANCH   2   4
TORSDOF 9
ENDMDL
MODEL      222
REMARK 921   NORMALIZED FREE ENERGY PREDICTED BY IDOCK:   -3.76 KCAL/MOL
REMARK 922        TOTAL FREE ENERGY PREDICTED BY IDOCK:   -6.12 KCAL/MOL
REMARK 923 INTER-LIGAND FREE ENERGY PREDICTED BY IDOCK:   -5.79 KCAL/MOL
REMARK 924 INTRA-LIGAND FREE ENERGY PREDICTED BY IDOCK:   -0.33 KCAL/MOL
REMARK 927      BINDING AFFINITY PREDICTED BY RF-SCORE:    0.00 PKD
ROOT
HETATM    1  C   UNL     1     -11.585  14.620  69.931  1.00  0.00    -0.285 C  
HETATM    2  N   UNL     1     -10.743  14.889  68.787  1.00  0.00    -0.244 NA 
HETATM    3  H   UNL     1      -9.791  15.183  69.004  1.00  0.00     0.000 HD 
ENDROOT
BRANCH   2   4
HETATM    4  C   UNL     1     -11.047  14.804  67.439  1.00  0.00    -0.324 C  
HETATM    5  C   UNL     1     -10.904  15.900  66.662  1.00  0.00    -0.213 C  
HETATM    6  O   UNL     1     -11.503  14.882  64.659  1.00  0.00    -0.398 OA 
HETATM    7  N   UNL     1     -11.169  15.921  65.244  1.00  0.00    -0.210 N  
HETATM    8  O   UNL     1     -11.030  17.024  64.695  1.00  0.00    -0.968 OA 
BRANCH   4   9
HETATM    9  N   UNL     1     -11.511  13.596  66.954  1.00  0.00    -0.330 NA 
HETATM   10  H   UNL     1     -12.323  13.659  66.341  1.00  0.00     0.000 HD 
BRANCH   9  11
HETATM   11  C   UNL     1     -11.018  12.253  67.185  1.00  0.00    -0.262 C  
BRANCH  11  12
HETATM   12  C   UNL     1     -10.877  11.513  65.850  1.00  0.00    -0.260 C  
BRANCH  12  13
HETATM   13  S   UNL     1     -10.032   9.905  66.017  1.00  0.00    -0.254 SA 
BRANCH  13  14
HETATM   14  C   UNL     1     -10.779   9.326  67.576  1.00  0.00    -0.203 C  
BRANCH  14  15
HETATM   15  C   UNL     1     -10.512   7.884  67.776  1.00  0.00    -0.212 A  
HETATM   16  C   UNL     1     -10.936   6.741  67.138  1.00  0.00    -0.458 A  
HETATM   17  C   UNL     1     -10.324   5.660  67.818  1.00  0.00    -0.260 A  
HETATM   18  C   UNL     1      -9.571   6.209  68.834  1.00  0.00    -0.129 A  
HETATM   19  O   UNL     1      -9.693   7.566  68.818  1.00  0.00    -0.148 OA 
BRANCH  18  20
HETATM   20  C   UNL     1      -8.707   5.633  69.906  1.00  0.00    -0.125 C  
BRANCH  20  21
HETATM   21  N   UNL     1      -9.470   4.964  70.978  1.00  0.00    -0.155 NA 
HETATM   22  C   UNL     1      -8.602   4.586  72.098  1.00  0.00    -0.114 C  
HETATM   23  C   UNL     1     -10.523   5.864  71.457  1.00  0.00    -0.233 C  
ENDBRANCH  20  21
ENDBRANCH  18  20
ENDBRANCH  14  15
ENDBRANCH  13  14
ENDBRANCH  12  13
ENDBRANCH  11  12
ENDBRANCH   9  11
ENDBRANCH   4   9
ENDBRANCH   2   4
TORSDOF 9
ENDMDL
MODEL      223
REMARK 921   NORMALIZED FREE ENERGY PREDICTED BY IDOCK:   -3.74 KCAL/MOL
REMARK 922        TOTAL FREE ENERGY PREDICTED BY IDOCK:   -6.09 KCAL/MOL
REMARK 923 INTER-LIGAND FREE ENERGY PREDICTED BY IDOCK:   -5.56 KCAL/MOL
REMARK 924 INTRA-LIGAND FREE ENERGY PREDICTED BY IDOCK:   -0.53 KCAL/MOL
REMARK 927      BINDING AFFINITY PREDICTED BY RF-SCORE:    0.00 PKD
ROOT
HETATM    1  C   UNL     1      -9.491  20.221  67.119  1.00  0.00    -0.422 C  
HETATM    2  N   UNL     1     -10.335  19.093  67.443  1.00  0.00    -0.401 NA 
HETATM    3  H   UNL     1     -10.980  19.238  68.220  1.00  0.00     0.000 HD 
ENDROOT
BRANCH   2   4
HETATM    4  C   UNL     1     -10.391  17.844  66.849  1.00  0.00    -0.355 C  
HETATM    5  C   UNL     1     -10.970  17.719  65.634  1.00  0.00     0.226 C  
HETATM    6  O   UNL     1     -10.555  15.445  65.379  1.00  0.00    -0.350 OA 
HETATM    7  N   UNL     1     -11.064  16.472  64.913  1.00  0.00    -0.298 N  
HETATM    8  O   UNL     1     -11.668  16.530  63.831  1.00  0.00    -1.148 OA 
BRANCH   4   9
HETATM    9  N   UNL     1      -9.870  16.771  67.545  1.00  0.00    -0.250 NA 
HETATM   10  H   UNL     1     -10.359  15.886  67.407  1.00  0.00     0.000 HD 
BRANCH   9  11
HETATM   11  C   UNL     1      -8.734  16.712  68.443  1.00  0.00    -0.225 C  
BRANCH  11  12
HETATM   12  C   UNL     1      -8.564  15.284  68.975  1.00  0.00    -0.226 C  
BRANCH  12  13
HETATM   13  S   UNL     1      -8.273  14.064  67.651  1.00  0.00    -0.195 SA 
BRANCH  13  14
HETATM   14  C   UNL     1      -9.633  12.902  68.000  1.00  0.00    -0.221 C  
BRANCH  14  15
HETATM   15  C   UNL     1      -9.448  11.642  67.245  1.00  0.00    -0.168 A  
HETATM   16  C   UNL     1      -8.649  11.276  66.186  1.00  0.00    -0.156 A  
HETATM   17  C   UNL     1      -8.945   9.917  65.920  1.00  0.00    -0.183 A  
HETATM   18  C   UNL     1      -9.912   9.540  66.827  1.00  0.00    -0.233 A  
HETATM   19  O   UNL     1     -10.230  10.593  67.631  1.00  0.00    -0.180 OA 
BRANCH  18  20
HETATM   20  C   UNL     1     -10.655   8.269  67.075  1.00  0.00    -0.258 C  
BRANCH  20  21
HETATM   21  N   UNL     1      -9.979   7.369  68.030  1.00  0.00    -0.158 NA 
HETATM   22  C   UNL     1     -10.624   7.402  69.346  1.00  0.00    -0.226 C  
HETATM   23  C   UNL     1     -10.003   6.001  67.506  1.00  0.00    -0.137 C  
ENDBRANCH  20  21
ENDBRANCH  18  20
ENDBRANCH  14  15
ENDBRANCH  13  14
ENDBRANCH  12  13
ENDBRANCH  11  12
ENDBRANCH   9  11
ENDBRANCH   4   9
ENDBRANCH   2   4
TORSDOF 9
ENDMDL
MODEL      224
REMARK 921   NORMALIZED FREE ENERGY PREDICTED BY IDOCK:   -3.74 KCAL/MOL
REMARK 922        TOTAL FREE ENERGY PREDICTED BY IDOCK:   -6.09 KCAL/MOL
REMARK 923 INTER-LIGAND FREE ENERGY PREDICTED BY IDOCK:   -4.79 KCAL/MOL
REMARK 924 INTRA-LIGAND FREE ENERGY PREDICTED BY IDOCK:   -1.30 KCAL/MOL
REMARK 927      BINDING AFFINITY PREDICTED BY RF-SCORE:    0.00 PKD
ROOT
HETATM    1  C   UNL     1     -11.637  11.202  70.169  1.00  0.00    -0.323 C  
HETATM    2  N   UNL     1     -12.130  10.881  68.849  1.00  0.00    -0.725 NA 
HETATM    3  H   UNL     1     -13.084  10.525  68.812  1.00  0.00     0.000 HD 
ENDROOT
BRANCH   2   4
HETATM    4  C   UNL     1     -11.488  10.990  67.626  1.00  0.00    -0.224 C  
HETATM    5  C   UNL     1     -10.658  10.001  67.228  1.00  0.00    -0.257 C  
HETATM    6  O   UNL     1     -10.136  10.914  65.155  1.00  0.00    -0.256 OA 
HETATM    7  N   UNL     1      -9.956   9.998  65.968  1.00  0.00    -0.258 N  
HETATM    8  O   UNL     1      -9.199   9.033  65.785  1.00  0.00    -0.206 OA 
BRANCH   4   9
HETATM    9  N   UNL     1     -11.712  12.128  66.876  1.00  0.00    -0.552 NA 
HETATM   10  H   UNL     1     -11.440  12.061  65.895  1.00  0.00     0.000 HD 
BRANCH   9  11
HETATM   11  C   UNL     1     -12.274  13.404  67.272  1.00  0.00    -0.233 C  
BRANCH  11  12
HETATM   12  C   UNL     1     -11.149  14.421  67.498  1.00  0.00    -0.302 C  
BRANCH  12  13
HETATM   13  S   UNL     1      -9.635  14.023  66.562  1.00  0.00    -0.285 SA 
BRANCH  13  14
HETATM   14  C   UNL     1      -8.448  13.893  67.939  1.00  0.00    -0.177 C  
BRANCH  14  15
HETATM   15  C   UNL     1      -7.911  12.517  68.036  1.00  0.00    -0.153 A  
HETATM   16  C   UNL     1      -7.056  11.773  67.256  1.00  0.00    -0.140 A  
HETATM   17  C   UNL     1      -6.942  10.511  67.888  1.00  0.00    -0.077 A  
HETATM   18  C   UNL     1      -7.742  10.560  69.010  1.00  0.00    -0.125 A  
HETATM   19  O   UNL     1      -8.343  11.779  69.098  1.00  0.00     0.110 OA 
BRANCH  18  20
HETATM   20  C   UNL     1      -8.075   9.578  70.084  1.00  0.00    -0.174 C  
BRANCH  20  21
HETATM   21  N   UNL     1      -8.771   8.375  69.585  1.00  0.00    -0.132 NA 
HETATM   22  C   UNL     1      -7.864   7.226  69.502  1.00  0.00    -0.118 C  
HETATM   23  C   UNL     1      -9.886   8.056  70.480  1.00  0.00    -0.182 C  
ENDBRANCH  20  21
ENDBRANCH  18  20
ENDBRANCH  14  15
ENDBRANCH  13  14
ENDBRANCH  12  13
ENDBRANCH  11  12
ENDBRANCH   9  11
ENDBRANCH   4   9
ENDBRANCH   2   4
TORSDOF 9
ENDMDL
MODEL      225
REMARK 921   NORMALIZED FREE ENERGY PREDICTED BY IDOCK:   -3.73 KCAL/MOL
REMARK 922        TOTAL FREE ENERGY PREDICTED BY IDOCK:   -6.08 KCAL/MOL
REMARK 923 INTER-LIGAND FREE ENERGY PREDICTED BY IDOCK:   -5.84 KCAL/MOL
REMARK 924 INTRA-LIGAND FREE ENERGY PREDICTED BY IDOCK:   -0.25 KCAL/MOL
REMARK 927      BINDING AFFINITY PREDICTED BY RF-SCORE:    0.00 PKD
ROOT
HETATM    1  C   UNL     1     -12.017  13.045  64.002  1.00  0.00    -0.456 C  
HETATM    2  N   UNL     1     -12.408  12.530  65.294  1.00  0.00    -0.612 NA 
HETATM    3  H   UNL     1     -13.025  11.719  65.273  1.00  0.00     0.000 HD 
ENDROOT
BRANCH   2   4
HETATM    4  C   UNL     1     -12.062  12.982  66.556  1.00  0.00    -0.341 C  
HETATM    5  C   UNL     1     -11.807  14.297  66.737  1.00  0.00    -0.426 C  
HETATM    6  O   UNL     1     -11.432  14.178  69.029  1.00  0.00    -0.249 OA 
HETATM    7  N   UNL     1     -11.460  14.881  68.010  1.00  0.00    -0.326 N  
HETATM    8  O   UNL     1     -11.213  16.096  67.986  1.00  0.00    -0.348 OA 
BRANCH   4   9
HETATM    9  N   UNL     1     -11.970  12.053  67.575  1.00  0.00    -0.578 NA 
HETATM   10  H   UNL     1     -12.575  12.229  68.377  1.00  0.00     0.000 HD 
BRANCH   9  11
HETATM   11  C   UNL     1     -11.144  10.867  67.676  1.00  0.00    -0.313 C  
BRANCH  11  12
HETATM   12  C   UNL     1      -9.725  11.255  68.104  1.00  0.00    -0.185 C  
BRANCH  12  13
HETATM   13  S   UNL     1      -9.066  10.184  69.426  1.00  0.00    -0.187 SA 
BRANCH  13  14
HETATM   14  C   UNL     1      -8.956   8.607  68.518  1.00  0.00    -0.139 C  
BRANCH  14  15
HETATM   15  C   UNL     1      -9.766   7.565  69.187  1.00  0.00    -0.166 A  
HETATM   16  C   UNL     1     -11.033   7.543  69.724  1.00  0.00    -0.195 A  
HETATM   17  C   UNL     1     -11.226   6.233  70.227  1.00  0.00    -0.455 A  
HETATM   18  C   UNL     1     -10.062   5.539  69.974  1.00  0.00    -0.241 A  
HETATM   19  O   UNL     1      -9.164   6.352  69.349  1.00  0.00    -0.142 OA 
BRANCH  18  20
HETATM   20  C   UNL     1      -9.610   4.144  70.255  1.00  0.00    -0.199 C  
BRANCH  20  21
HETATM   21  N   UNL     1      -8.674   4.049  71.393  1.00  0.00    -0.099 NA 
HETATM   22  C   UNL     1      -7.342   4.547  71.035  1.00  0.00    -0.051 C  
HETATM   23  C   UNL     1      -9.201   4.824  72.519  1.00  0.00    -0.128 C  
ENDBRANCH  20  21
ENDBRANCH  18  20
ENDBRANCH  14  15
ENDBRANCH  13  14
ENDBRANCH  12  13
ENDBRANCH  11  12
ENDBRANCH   9  11
ENDBRANCH   4   9
ENDBRANCH   2   4
TORSDOF 9
ENDMDL
MODEL      226
REMARK 921   NORMALIZED FREE ENERGY PREDICTED BY IDOCK:   -3.72 KCAL/MOL
REMARK 922        TOTAL FREE ENERGY PREDICTED BY IDOCK:   -6.06 KCAL/MOL
REMARK 923 INTER-LIGAND FREE ENERGY PREDICTED BY IDOCK:   -5.62 KCAL/MOL
REMARK 924 INTRA-LIGAND FREE ENERGY PREDICTED BY IDOCK:   -0.44 KCAL/MOL
REMARK 927      BINDING AFFINITY PREDICTED BY RF-SCORE:    0.00 PKD
ROOT
HETATM    1  C   UNL     1     -11.161  11.970  63.444  1.00  0.00    -0.398 C  
HETATM    2  N   UNL     1     -10.696  11.317  64.646  1.00  0.00    -0.321 NA 
HETATM    3  H   UNL     1     -10.712  10.298  64.626  1.00  0.00     0.000 HD 
ENDROOT
BRANCH   2   4
HETATM    4  C   UNL     1     -10.231  11.880  65.823  1.00  0.00    -0.242 C  
HETATM    5  C   UNL     1     -11.089  12.571  66.606  1.00  0.00    -0.283 C  
HETATM    6  O   UNL     1      -9.573  13.043  68.305  1.00  0.00    -0.219 OA 
HETATM    7  N   UNL     1     -10.721  13.180  67.862  1.00  0.00    -0.231 N  
HETATM    8  O   UNL     1     -11.623  13.814  68.428  1.00  0.00    -0.291 OA 
BRANCH   4   9
HETATM    9  N   UNL     1      -8.893  11.729  66.130  1.00  0.00    -0.350 NA 
HETATM   10  H   UNL     1      -8.322  12.564  66.003  1.00  0.00     0.000 HD 
BRANCH   9  11
HETATM   11  C   UNL     1      -8.177  10.562  66.604  1.00  0.00    -0.129 C  
BRANCH  11  12
HETATM   12  C   UNL     1      -9.171   9.456  66.976  1.00  0.00    -0.142 C  
BRANCH  12  13
HETATM   13  S   UNL     1      -8.726   8.591  68.519  1.00  0.00    -0.139 SA 
BRANCH  13  14
HETATM   14  C   UNL     1      -9.140   9.890  69.729  1.00  0.00    -0.225 C  
BRANCH  14  15
HETATM   15  C   UNL     1     -10.153   9.401  70.691  1.00  0.00    -0.291 A  
HETATM   16  C   UNL     1     -11.498   9.641  70.859  1.00  0.00    -0.427 A  
HETATM   17  C   UNL     1     -11.900   8.867  71.975  1.00  0.00    -0.438 A  
HETATM   18  C   UNL     1     -10.775   8.209  72.424  1.00  0.00    -0.334 A  
HETATM   19  O   UNL     1      -9.704   8.541  71.649  1.00  0.00    -0.201 OA 
BRANCH  18  20
HETATM   20  C   UNL     1     -10.511   7.265  73.549  1.00  0.00    -0.374 C  
BRANCH  20  21
HETATM   21  N   UNL     1      -9.941   5.975  73.113  1.00  0.00    -0.173 NA 
HETATM   22  C   UNL     1      -8.543   5.837  73.535  1.00  0.00    -0.120 C  
HETATM   23  C   UNL     1     -10.734   4.880  73.677  1.00  0.00    -0.292 C  
ENDBRANCH  20  21
ENDBRANCH  18  20
ENDBRANCH  14  15
ENDBRANCH  13  14
ENDBRANCH  12  13
ENDBRANCH  11  12
ENDBRANCH   9  11
ENDBRANCH   4   9
ENDBRANCH   2   4
TORSDOF 9
ENDMDL
MODEL      227
REMARK 921   NORMALIZED FREE ENERGY PREDICTED BY IDOCK:   -3.71 KCAL/MOL
REMARK 922        TOTAL FREE ENERGY PREDICTED BY IDOCK:   -6.06 KCAL/MOL
REMARK 923 INTER-LIGAND FREE ENERGY PREDICTED BY IDOCK:   -5.62 KCAL/MOL
REMARK 924 INTRA-LIGAND FREE ENERGY PREDICTED BY IDOCK:   -0.44 KCAL/MOL
REMARK 927      BINDING AFFINITY PREDICTED BY RF-SCORE:    0.00 PKD
ROOT
HETATM    1  C   UNL     1     -11.557  14.701  69.700  1.00  0.00    -0.307 C  
HETATM    2  N   UNL     1     -10.743  14.942  68.530  1.00  0.00    -0.239 NA 
HETATM    3  H   UNL     1      -9.814  15.320  68.714  1.00  0.00     0.000 HD 
ENDROOT
BRANCH   2   4
HETATM    4  C   UNL     1     -11.046  14.733  67.196  1.00  0.00    -0.333 C  
HETATM    5  C   UNL     1     -10.994  15.775  66.337  1.00  0.00    -0.159 C  
HETATM    6  O   UNL     1     -11.522  14.566  64.422  1.00  0.00    -0.346 OA 
HETATM    7  N   UNL     1     -11.268  15.669  64.924  1.00  0.00    -0.399 N  
HETATM    8  O   UNL     1     -11.219  16.735  64.293  1.00  0.00    -1.163 OA 
BRANCH   4   9
HETATM    9  N   UNL     1     -11.416  13.460  66.807  1.00  0.00    -0.328 NA 
HETATM   10  H   UNL     1     -12.266  13.408  66.245  1.00  0.00     0.000 HD 
BRANCH   9  11
HETATM   11  C   UNL     1     -10.780  12.186  67.077  1.00  0.00    -0.238 C  
BRANCH  11  12
HETATM   12  C   UNL     1     -10.603  11.404  65.771  1.00  0.00    -0.260 C  
BRANCH  12  13
HETATM   13  S   UNL     1      -9.546   9.930  65.965  1.00  0.00    -0.244 SA 
BRANCH  13  14
HETATM   14  C   UNL     1     -10.642   8.898  66.991  1.00  0.00    -0.209 C  
BRANCH  14  15
HETATM   15  C   UNL     1     -10.203   7.485  66.965  1.00  0.00    -0.298 A  
HETATM   16  C   UNL     1     -10.864   6.281  67.053  1.00  0.00    -0.458 A  
HETATM   17  C   UNL     1      -9.868   5.278  66.968  1.00  0.00    -0.187 A  
HETATM   18  C   UNL     1      -8.661   5.930  66.840  1.00  0.00    -0.111 A  
HETATM   19  O   UNL     1      -8.860   7.279  66.849  1.00  0.00    -0.124 OA 
BRANCH  18  20
HETATM   20  C   UNL     1      -7.246   5.470  66.719  1.00  0.00    -0.078 C  
BRANCH  20  21
HETATM   21  N   UNL     1      -7.067   4.370  65.751  1.00  0.00    -0.069 NA 
HETATM   22  C   UNL     1      -6.486   4.851  64.494  1.00  0.00    -0.038 C  
HETATM   23  C   UNL     1      -6.194   3.348  66.335  1.00  0.00    -0.028 C  
ENDBRANCH  20  21
ENDBRANCH  18  20
ENDBRANCH  14  15
ENDBRANCH  13  14
ENDBRANCH  12  13
ENDBRANCH  11  12
ENDBRANCH   9  11
ENDBRANCH   4   9
ENDBRANCH   2   4
TORSDOF 9
ENDMDL
MODEL      228
REMARK 921   NORMALIZED FREE ENERGY PREDICTED BY IDOCK:   -3.71 KCAL/MOL
REMARK 922        TOTAL FREE ENERGY PREDICTED BY IDOCK:   -6.06 KCAL/MOL
REMARK 923 INTER-LIGAND FREE ENERGY PREDICTED BY IDOCK:   -5.48 KCAL/MOL
REMARK 924 INTRA-LIGAND FREE ENERGY PREDICTED BY IDOCK:   -0.57 KCAL/MOL
REMARK 927      BINDING AFFINITY PREDICTED BY RF-SCORE:    0.00 PKD
ROOT
HETATM    1  C   UNL     1     -11.647   7.455  71.648  1.00  0.00    -0.270 C  
HETATM    2  N   UNL     1     -11.426   7.811  70.265  1.00  0.00    -0.456 NA 
HETATM    3  H   UNL     1     -12.216   8.251  69.794  1.00  0.00     0.000 HD 
ENDROOT
BRANCH   2   4
HETATM    4  C   UNL     1     -10.292   7.639  69.489  1.00  0.00    -0.217 C  
HETATM    5  C   UNL     1      -9.102   7.439  70.098  1.00  0.00    -0.148 C  
HETATM    6  O   UNL     1      -7.855   7.169  68.153  1.00  0.00    -0.114 OA 
HETATM    7  N   UNL     1      -7.862   7.227  69.390  1.00  0.00    -0.120 N  
HETATM    8  O   UNL     1      -6.857   7.106  70.106  1.00  0.00    -0.056 OA 
BRANCH   4   9
HETATM    9  N   UNL     1     -10.430   7.706  68.116  1.00  0.00    -0.281 NA 
HETATM   10  H   UNL     1     -10.380   6.810  67.631  1.00  0.00     0.000 HD 
BRANCH   9  11
HETATM   11  C   UNL     1     -10.634   8.857  67.260  1.00  0.00    -0.234 C  
BRANCH  11  12
HETATM   12  C   UNL     1     -10.199  10.133  67.989  1.00  0.00    -0.173 C  
BRANCH  12  13
HETATM   13  S   UNL     1     -11.496  11.416  68.008  1.00  0.00    -0.298 SA 
BRANCH  13  14
HETATM   14  C   UNL     1     -11.935  11.383  69.777  1.00  0.00    -0.353 C  
BRANCH  14  15
HETATM   15  C   UNL     1     -12.126  12.757  70.292  1.00  0.00    -0.297 A  
HETATM   16  C   UNL     1     -12.826  13.286  71.353  1.00  0.00    -0.411 A  
HETATM   17  C   UNL     1     -12.614  14.686  71.305  1.00  0.00    -0.403 A  
HETATM   18  C   UNL     1     -11.805  14.925  70.215  1.00  0.00    -0.307 A  
HETATM   19  O   UNL     1     -11.514  13.750  69.588  1.00  0.00    -0.264 OA 
BRANCH  18  20
HETATM   20  C   UNL     1     -11.230  16.161  69.607  1.00  0.00    -0.331 C  
BRANCH  20  21
HETATM   21  N   UNL     1     -10.177  15.889  68.608  1.00  0.00    -0.217 NA 
HETATM   22  C   UNL     1     -10.655  16.140  67.245  1.00  0.00    -0.305 C  
HETATM   23  C   UNL     1      -9.017  16.740  68.885  1.00  0.00    -0.227 C  
ENDBRANCH  20  21
ENDBRANCH  18  20
ENDBRANCH  14  15
ENDBRANCH  13  14
ENDBRANCH  12  13
ENDBRANCH  11  12
ENDBRANCH   9  11
ENDBRANCH   4   9
ENDBRANCH   2   4
TORSDOF 9
ENDMDL
MODEL      229
REMARK 921   NORMALIZED FREE ENERGY PREDICTED BY IDOCK:   -3.71 KCAL/MOL
REMARK 922        TOTAL FREE ENERGY PREDICTED BY IDOCK:   -6.05 KCAL/MOL
REMARK 923 INTER-LIGAND FREE ENERGY PREDICTED BY IDOCK:   -5.78 KCAL/MOL
REMARK 924 INTRA-LIGAND FREE ENERGY PREDICTED BY IDOCK:   -0.28 KCAL/MOL
REMARK 927      BINDING AFFINITY PREDICTED BY RF-SCORE:    0.00 PKD
ROOT
HETATM    1  C   UNL     1      -8.993   9.450  66.775  1.00  0.00    -0.131 C  
HETATM    2  N   UNL     1     -10.251  10.007  67.217  1.00  0.00    -0.208 NA 
HETATM    3  H   UNL     1     -10.715  10.624  66.551  1.00  0.00     0.000 HD 
ENDROOT
BRANCH   2   4
HETATM    4  C   UNL     1     -10.915   9.823  68.418  1.00  0.00    -0.152 C  
HETATM    5  C   UNL     1     -10.461   8.891  69.285  1.00  0.00    -0.224 C  
HETATM    6  O   UNL     1     -12.018   9.310  70.961  1.00  0.00    -0.291 OA 
HETATM    7  N   UNL     1     -11.060   8.629  70.572  1.00  0.00    -0.242 N  
HETATM    8  O   UNL     1     -10.542   7.707  71.220  1.00  0.00    -0.218 OA 
BRANCH   4   9
HETATM    9  N   UNL     1     -12.037  10.591  68.663  1.00  0.00    -0.791 NA 
HETATM   10  H   UNL     1     -12.928  10.115  68.519  1.00  0.00     0.000 HD 
BRANCH   9  11
HETATM   11  C   UNL     1     -12.140  11.970  69.094  1.00  0.00    -0.183 C  
BRANCH  11  12
HETATM   12  C   UNL     1     -11.785  12.907  67.934  1.00  0.00    -0.357 C  
BRANCH  12  13
HETATM   13  S   UNL     1     -10.132  13.659  68.109  1.00  0.00    -0.250 SA 
BRANCH  13  14
HETATM   14  C   UNL     1     -10.267  14.989  66.870  1.00  0.00    -0.258 C  
BRANCH  14  15
HETATM   15  C   UNL     1      -9.010  15.767  66.802  1.00  0.00    -0.260 A  
HETATM   16  C   UNL     1      -7.695  15.477  67.089  1.00  0.00    -0.257 A  
HETATM   17  C   UNL     1      -6.964  16.659  66.821  1.00  0.00    -0.264 A  
HETATM   18  C   UNL     1      -7.877  17.600  66.396  1.00  0.00    -0.283 A  
HETATM   19  O   UNL     1      -9.129  17.062  66.394  1.00  0.00    -0.254 OA 
BRANCH  18  20
HETATM   20  C   UNL     1      -7.768  19.029  65.977  1.00  0.00    -0.229 C  
BRANCH  20  21
HETATM   21  N   UNL     1      -7.798  19.976  67.109  1.00  0.00    -0.291 NA 
HETATM   22  C   UNL     1      -6.810  21.047  66.937  1.00  0.00    -0.291 C  
HETATM   23  C   UNL     1      -9.138  20.559  67.217  1.00  0.00    -0.343 C  
ENDBRANCH  20  21
ENDBRANCH  18  20
ENDBRANCH  14  15
ENDBRANCH  13  14
ENDBRANCH  12  13
ENDBRANCH  11  12
ENDBRANCH   9  11
ENDBRANCH   4   9
ENDBRANCH   2   4
TORSDOF 9
ENDMDL
MODEL      230
REMARK 921   NORMALIZED FREE ENERGY PREDICTED BY IDOCK:   -3.70 KCAL/MOL
REMARK 922        TOTAL FREE ENERGY PREDICTED BY IDOCK:   -6.04 KCAL/MOL
REMARK 923 INTER-LIGAND FREE ENERGY PREDICTED BY IDOCK:   -5.84 KCAL/MOL
REMARK 924 INTRA-LIGAND FREE ENERGY PREDICTED BY IDOCK:   -0.20 KCAL/MOL
REMARK 927      BINDING AFFINITY PREDICTED BY RF-SCORE:    0.00 PKD
ROOT
HETATM    1  C   UNL     1      -8.848  18.104  67.725  1.00  0.00    -0.256 C  
HETATM    2  N   UNL     1      -9.070  16.676  67.706  1.00  0.00    -0.211 NA 
HETATM    3  H   UNL     1      -8.813  16.182  68.560  1.00  0.00     0.000 HD 
ENDROOT
BRANCH   2   4
HETATM    4  C   UNL     1      -9.581  15.884  66.691  1.00  0.00    -0.246 C  
HETATM    5  C   UNL     1     -10.355  16.452  65.740  1.00  0.00    -0.369 C  
HETATM    6  O   UNL     1     -10.666  14.527  64.472  1.00  0.00    -0.356 OA 
HETATM    7  N   UNL     1     -10.922  15.729  64.627  1.00  0.00    -0.404 N  
HETATM    8  O   UNL     1     -11.646  16.397  63.875  1.00  0.00    -1.100 OA 
BRANCH   4   9
HETATM    9  N   UNL     1      -9.291  14.534  66.715  1.00  0.00    -0.250 NA 
HETATM   10  H   UNL     1      -9.071  14.122  65.808  1.00  0.00     0.000 HD 
BRANCH   9  11
HETATM   11  C   UNL     1      -9.253  13.613  67.834  1.00  0.00    -0.203 C  
BRANCH  11  12
HETATM   12  C   UNL     1     -10.666  13.107  68.140  1.00  0.00    -0.242 C  
BRANCH  12  13
HETATM   13  S   UNL     1     -10.880  11.333  67.769  1.00  0.00    -0.254 SA 
BRANCH  13  14
HETATM   14  C   UNL     1     -11.121  10.692  69.458  1.00  0.00    -0.274 C  
BRANCH  14  15
HETATM   15  C   UNL     1     -10.084   9.689  69.787  1.00  0.00    -0.233 A  
HETATM   16  C   UNL     1      -8.711   9.731  69.867  1.00  0.00    -0.238 A  
HETATM   17  C   UNL     1      -8.297   8.425  70.226  1.00  0.00    -0.124 A  
HETATM   18  C   UNL     1      -9.441   7.665  70.334  1.00  0.00    -0.164 A  
HETATM   19  O   UNL     1     -10.534   8.430  70.056  1.00  0.00    -0.214 OA 
BRANCH  18  20
HETATM   20  C   UNL     1      -9.702   6.232  70.661  1.00  0.00    -0.176 C  
BRANCH  20  21
HETATM   21  N   UNL     1      -9.719   5.955  72.112  1.00  0.00    -0.156 NA 
HETATM   22  C   UNL     1     -10.012   7.166  72.885  1.00  0.00    -0.197 C  
HETATM   23  C   UNL     1     -10.732   4.935  72.397  1.00  0.00    -0.175 C  
ENDBRANCH  20  21
ENDBRANCH  18  20
ENDBRANCH  14  15
ENDBRANCH  13  14
ENDBRANCH  12  13
ENDBRANCH  11  12
ENDBRANCH   9  11
ENDBRANCH   4   9
ENDBRANCH   2   4
TORSDOF 9
ENDMDL
MODEL      231
REMARK 921   NORMALIZED FREE ENERGY PREDICTED BY IDOCK:   -3.70 KCAL/MOL
REMARK 922        TOTAL FREE ENERGY PREDICTED BY IDOCK:   -6.03 KCAL/MOL
REMARK 923 INTER-LIGAND FREE ENERGY PREDICTED BY IDOCK:   -5.75 KCAL/MOL
REMARK 924 INTRA-LIGAND FREE ENERGY PREDICTED BY IDOCK:   -0.28 KCAL/MOL
REMARK 927      BINDING AFFINITY PREDICTED BY RF-SCORE:    0.00 PKD
ROOT
HETATM    1  C   UNL     1     -10.834   9.548  67.904  1.00  0.00    -0.180 C  
HETATM    2  N   UNL     1     -11.638  10.733  67.705  1.00  0.00    -0.637 NA 
HETATM    3  H   UNL     1     -12.184  10.753  66.845  1.00  0.00     0.000 HD 
ENDROOT
BRANCH   2   4
HETATM    4  C   UNL     1     -11.770  11.845  68.519  1.00  0.00    -0.330 C  
HETATM    5  C   UNL     1     -12.265  11.693  69.767  1.00  0.00    -0.219 C  
HETATM    6  O   UNL     1     -12.055  13.918  70.407  1.00  0.00    -0.315 OA 
HETATM    7  N   UNL     1     -12.426  12.776  70.707  1.00  0.00    -0.322 N  
HETATM    8  O   UNL     1     -12.939  12.465  71.792  1.00  0.00    -0.380 OA 
BRANCH   4   9
HETATM    9  N   UNL     1     -11.408  13.074  68.001  1.00  0.00    -0.271 NA 
HETATM   10  H   UNL     1     -12.047  13.840  68.217  1.00  0.00     0.000 HD 
BRANCH   9  11
HETATM   11  C   UNL     1     -10.259  13.439  67.198  1.00  0.00    -0.247 C  
BRANCH  11  12
HETATM   12  C   UNL     1      -9.023  13.583  68.092  1.00  0.00    -0.187 C  
BRANCH  12  13
HETATM   13  S   UNL     1      -9.047  15.106  69.096  1.00  0.00    -0.196 SA 
BRANCH  13  14
HETATM   14  C   UNL     1      -7.346  15.693  68.804  1.00  0.00    -0.144 C  
BRANCH  14  15
HETATM   15  C   UNL     1      -7.326  16.724  67.743  1.00  0.00    -0.151 A  
HETATM   16  C   UNL     1      -6.796  16.773  66.474  1.00  0.00    -0.200 A  
HETATM   17  C   UNL     1      -7.114  18.055  65.964  1.00  0.00    -0.330 A  
HETATM   18  C   UNL     1      -7.811  18.712  66.955  1.00  0.00    -0.236 A  
HETATM   19  O   UNL     1      -7.933  17.907  68.047  1.00  0.00    -0.236 OA 
BRANCH  18  20
HETATM   20  C   UNL     1      -8.412  20.074  67.065  1.00  0.00    -0.333 C  
BRANCH  20  21
HETATM   21  N   UNL     1      -9.869  20.094  66.829  1.00  0.00    -0.431 NA 
HETATM   22  C   UNL     1     -10.353  18.793  66.357  1.00  0.00    -0.439 C  
HETATM   23  C   UNL     1     -10.556  20.450  68.073  1.00  0.00     0.035 C  
ENDBRANCH  20  21
ENDBRANCH  18  20
ENDBRANCH  14  15
ENDBRANCH  13  14
ENDBRANCH  12  13
ENDBRANCH  11  12
ENDBRANCH   9  11
ENDBRANCH   4   9
ENDBRANCH   2   4
TORSDOF 9
ENDMDL
MODEL      232
REMARK 921   NORMALIZED FREE ENERGY PREDICTED BY IDOCK:   -3.70 KCAL/MOL
REMARK 922        TOTAL FREE ENERGY PREDICTED BY IDOCK:   -6.03 KCAL/MOL
REMARK 923 INTER-LIGAND FREE ENERGY PREDICTED BY IDOCK:   -5.62 KCAL/MOL
REMARK 924 INTRA-LIGAND FREE ENERGY PREDICTED BY IDOCK:   -0.41 KCAL/MOL
REMARK 927      BINDING AFFINITY PREDICTED BY RF-SCORE:    0.00 PKD
ROOT
HETATM    1  C   UNL     1     -12.277  14.854  69.192  1.00  0.00    -0.159 C  
HETATM    2  N   UNL     1     -11.395  14.265  68.210  1.00  0.00    -0.274 NA 
HETATM    3  H   UNL     1     -10.401  14.444  68.351  1.00  0.00     0.000 HD 
ENDROOT
BRANCH   2   4
HETATM    4  C   UNL     1     -11.709  13.492  67.105  1.00  0.00    -0.379 C  
HETATM    5  C   UNL     1     -11.908  14.097  65.913  1.00  0.00    -0.384 C  
HETATM    6  O   UNL     1     -12.265  12.154  64.687  1.00  0.00    -0.369 OA 
HETATM    7  N   UNL     1     -12.218  13.391  64.694  1.00  0.00    -0.402 N  
HETATM    8  O   UNL     1     -12.414  14.108  63.701  1.00  0.00    -0.819 OA 
BRANCH   4   9
HETATM    9  N   UNL     1     -11.830  12.127  67.282  1.00  0.00    -0.579 NA 
HETATM   10  H   UNL     1     -12.761  11.748  67.107  1.00  0.00     0.000 HD 
BRANCH   9  11
HETATM   11  C   UNL     1     -10.834  11.152  67.678  1.00  0.00    -0.247 C  
BRANCH  11  12
HETATM   12  C   UNL     1     -11.410  10.226  68.755  1.00  0.00    -0.167 C  
BRANCH  12  13
HETATM   13  S   UNL     1     -10.619   8.582  68.774  1.00  0.00    -0.072 SA 
BRANCH  13  14
HETATM   14  C   UNL     1     -11.332   7.916  70.314  1.00  0.00    -0.150 C  
BRANCH  14  15
HETATM   15  C   UNL     1     -10.777   6.577  70.608  1.00  0.00    -0.248 A  
HETATM   16  C   UNL     1     -10.589   5.858  71.767  1.00  0.00    -0.286 A  
HETATM   17  C   UNL     1     -10.000   4.631  71.378  1.00  0.00    -0.267 A  
HETATM   18  C   UNL     1      -9.858   4.678  70.008  1.00  0.00    -0.224 A  
HETATM   19  O   UNL     1     -10.321   5.869  69.535  1.00  0.00    -0.200 OA 
BRANCH  18  20
HETATM   20  C   UNL     1      -9.305   3.733  68.993  1.00  0.00    -0.171 C  
BRANCH  20  21
HETATM   21  N   UNL     1      -8.147   4.275  68.255  1.00  0.00    -0.081 NA 
HETATM   22  C   UNL     1      -6.881   3.906  68.897  1.00  0.00    -0.046 C  
HETATM   23  C   UNL     1      -8.167   3.765  66.882  1.00  0.00    -0.096 C  
ENDBRANCH  20  21
ENDBRANCH  18  20
ENDBRANCH  14  15
ENDBRANCH  13  14
ENDBRANCH  12  13
ENDBRANCH  11  12
ENDBRANCH   9  11
ENDBRANCH   4   9
ENDBRANCH   2   4
TORSDOF 9
ENDMDL
MODEL      233
REMARK 921   NORMALIZED FREE ENERGY PREDICTED BY IDOCK:   -3.69 KCAL/MOL
REMARK 922        TOTAL FREE ENERGY PREDICTED BY IDOCK:   -6.03 KCAL/MOL
REMARK 923 INTER-LIGAND FREE ENERGY PREDICTED BY IDOCK:   -5.34 KCAL/MOL
REMARK 924 INTRA-LIGAND FREE ENERGY PREDICTED BY IDOCK:   -0.69 KCAL/MOL
REMARK 927      BINDING AFFINITY PREDICTED BY RF-SCORE:    0.00 PKD
ROOT
HETATM    1  C   UNL     1      -9.280  11.595  67.110  1.00  0.00    -0.176 C  
HETATM    2  N   UNL     1     -10.066  10.825  66.172  1.00  0.00    -0.234 NA 
HETATM    3  H   UNL     1     -11.026  10.636  66.457  1.00  0.00     0.000 HD 
ENDROOT
BRANCH   2   4
HETATM    4  C   UNL     1      -9.698  10.309  64.941  1.00  0.00    -0.320 C  
HETATM    5  C   UNL     1      -8.717   9.381  64.883  1.00  0.00    -0.190 C  
HETATM    6  O   UNL     1      -8.823   9.029  62.587  1.00  0.00    -0.212 OA 
HETATM    7  N   UNL     1      -8.268   8.760  63.660  1.00  0.00    -0.170 N  
HETATM    8  O   UNL     1      -7.326   7.964  63.785  1.00  0.00    -0.090 OA 
BRANCH   4   9
HETATM    9  N   UNL     1     -10.342  10.789  63.818  1.00  0.00    -0.487 NA 
HETATM   10  H   UNL     1     -10.631  10.078  63.146  1.00  0.00     0.000 HD 
BRANCH   9  11
HETATM   11  C   UNL     1     -10.670  12.152  63.449  1.00  0.00    -0.409 C  
BRANCH  11  12
HETATM   12  C   UNL     1     -12.135  12.446  63.791  1.00  0.00    -0.529 C  
BRANCH  12  13
HETATM   13  S   UNL     1     -12.359  14.055  64.623  1.00  0.00    -0.363 SA 
BRANCH  13  14
HETATM   14  C   UNL     1     -10.692  14.272  65.326  1.00  0.00    -0.366 C  
BRANCH  14  15
HETATM   15  C   UNL     1     -10.754  15.053  66.581  1.00  0.00    -0.312 A  
HETATM   16  C   UNL     1     -11.777  15.409  67.430  1.00  0.00    -0.040 A  
HETATM   17  C   UNL     1     -11.183  16.173  68.464  1.00  0.00    -0.365 A  
HETATM   18  C   UNL     1      -9.837  16.243  68.179  1.00  0.00    -0.229 A  
HETATM   19  O   UNL     1      -9.572  15.569  67.024  1.00  0.00    -0.217 OA 
BRANCH  18  20
HETATM   20  C   UNL     1      -8.672  16.896  68.847  1.00  0.00    -0.212 C  
BRANCH  20  21
HETATM   21  N   UNL     1      -7.424  16.114  68.749  1.00  0.00    -0.176 NA 
HETATM   22  C   UNL     1      -6.242  16.978  68.833  1.00  0.00    -0.176 C  
HETATM   23  C   UNL     1      -7.387  15.126  69.831  1.00  0.00    -0.068 C  
ENDBRANCH  20  21
ENDBRANCH  18  20
ENDBRANCH  14  15
ENDBRANCH  13  14
ENDBRANCH  12  13
ENDBRANCH  11  12
ENDBRANCH   9  11
ENDBRANCH   4   9
ENDBRANCH   2   4
TORSDOF 9
ENDMDL
MODEL      234
REMARK 921   NORMALIZED FREE ENERGY PREDICTED BY IDOCK:   -3.69 KCAL/MOL
REMARK 922        TOTAL FREE ENERGY PREDICTED BY IDOCK:   -6.02 KCAL/MOL
REMARK 923 INTER-LIGAND FREE ENERGY PREDICTED BY IDOCK:   -5.58 KCAL/MOL
REMARK 924 INTRA-LIGAND FREE ENERGY PREDICTED BY IDOCK:   -0.43 KCAL/MOL
REMARK 927      BINDING AFFINITY PREDICTED BY RF-SCORE:    0.00 PKD
ROOT
HETATM    1  C   UNL     1     -11.862  14.902  71.320  1.00  0.00    -0.339 C  
HETATM    2  N   UNL     1     -11.301  14.551  70.035  1.00  0.00    -0.366 NA 
HETATM    3  H   UNL     1     -11.021  13.577  69.931  1.00  0.00     0.000 HD 
ENDROOT
BRANCH   2   4
HETATM    4  C   UNL     1     -11.091  15.353  68.925  1.00  0.00    -0.275 C  
HETATM    5  C   UNL     1     -10.700  16.634  69.103  1.00  0.00    -0.342 C  
HETATM    6  O   UNL     1     -10.504  17.165  66.848  1.00  0.00    -0.320 OA 
HETATM    7  N   UNL     1     -10.431  17.551  68.022  1.00  0.00    -0.373 N  
HETATM    8  O   UNL     1     -10.128  18.703  68.366  1.00  0.00    -0.356 OA 
BRANCH   4   9
HETATM    9  N   UNL     1     -11.317  14.804  67.678  1.00  0.00    -0.327 NA 
HETATM   10  H   UNL     1     -12.024  15.280  67.117  1.00  0.00     0.000 HD 
BRANCH   9  11
HETATM   11  C   UNL     1     -10.700  13.656  67.045  1.00  0.00    -0.278 C  
BRANCH  11  12
HETATM   12  C   UNL     1     -11.731  12.532  66.887  1.00  0.00    -0.377 C  
BRANCH  12  13
HETATM   13  S   UNL     1     -11.896  11.506  68.386  1.00  0.00    -0.216 SA 
BRANCH  13  14
HETATM   14  C   UNL     1     -10.325  10.584  68.302  1.00  0.00    -0.168 C  
BRANCH  14  15
HETATM   15  C   UNL     1     -10.171   9.709  69.485  1.00  0.00    -0.218 A  
HETATM   16  C   UNL     1     -10.508   9.837  70.813  1.00  0.00    -0.339 A  
HETATM   17  C   UNL     1     -10.084   8.642  71.444  1.00  0.00    -0.325 A  
HETATM   18  C   UNL     1      -9.507   7.862  70.464  1.00  0.00    -0.162 A  
HETATM   19  O   UNL     1      -9.549   8.515  69.269  1.00  0.00    -0.167 OA 
BRANCH  18  20
HETATM   20  C   UNL     1      -8.862   6.517  70.463  1.00  0.00    -0.151 C  
BRANCH  20  21
HETATM   21  N   UNL     1      -9.804   5.413  70.731  1.00  0.00    -0.179 NA 
HETATM   22  C   UNL     1      -9.987   4.565  69.548  1.00  0.00    -0.165 C  
HETATM   23  C   UNL     1      -9.297   4.602  71.841  1.00  0.00    -0.140 C  
ENDBRANCH  20  21
ENDBRANCH  18  20
ENDBRANCH  14  15
ENDBRANCH  13  14
ENDBRANCH  12  13
ENDBRANCH  11  12
ENDBRANCH   9  11
ENDBRANCH   4   9
ENDBRANCH   2   4
TORSDOF 9
ENDMDL
MODEL      235
REMARK 921   NORMALIZED FREE ENERGY PREDICTED BY IDOCK:   -3.68 KCAL/MOL
REMARK 922        TOTAL FREE ENERGY PREDICTED BY IDOCK:   -6.01 KCAL/MOL
REMARK 923 INTER-LIGAND FREE ENERGY PREDICTED BY IDOCK:   -5.48 KCAL/MOL
REMARK 924 INTRA-LIGAND FREE ENERGY PREDICTED BY IDOCK:   -0.53 KCAL/MOL
REMARK 927      BINDING AFFINITY PREDICTED BY RF-SCORE:    0.00 PKD
ROOT
HETATM    1  C   UNL     1      -5.708  16.124  67.760  1.00  0.00    -0.141 C  
HETATM    2  N   UNL     1      -6.047  14.764  67.410  1.00  0.00    -0.320 NA 
HETATM    3  H   UNL     1      -6.089  14.566  66.410  1.00  0.00     0.000 HD 
ENDROOT
BRANCH   2   4
HETATM    4  C   UNL     1      -6.325  13.691  68.240  1.00  0.00    -0.107 C  
HETATM    5  C   UNL     1      -5.761  13.645  69.467  1.00  0.00    -0.096 C  
HETATM    6  O   UNL     1      -6.792  11.678  70.156  1.00  0.00    -0.019 OA 
HETATM    7  N   UNL     1      -5.996  12.588  70.422  1.00  0.00    -0.148 N  
HETATM    8  O   UNL     1      -5.361  12.681  71.483  1.00  0.00    -0.327 OA 
BRANCH   4   9
HETATM    9  N   UNL     1      -7.153  12.696  67.758  1.00  0.00    -0.111 NA 
HETATM   10  H   UNL     1      -6.718  11.778  67.662  1.00  0.00     0.000 HD 
BRANCH   9  11
HETATM   11  C   UNL     1      -8.548  12.758  67.368  1.00  0.00    -0.194 C  
BRANCH  11  12
HETATM   12  C   UNL     1      -9.128  11.342  67.278  1.00  0.00    -0.162 C  
BRANCH  12  13
HETATM   13  S   UNL     1     -10.025  10.847  68.787  1.00  0.00    -0.195 SA 
BRANCH  13  14
HETATM   14  C   UNL     1     -11.697  11.433  68.357  1.00  0.00    -0.303 C  
BRANCH  14  15
HETATM   15  C   UNL     1     -11.828  12.881  68.635  1.00  0.00    -0.312 A  
HETATM   16  C   UNL     1     -12.015  13.989  67.840  1.00  0.00    -0.387 A  
HETATM   17  C   UNL     1     -12.052  15.100  68.716  1.00  0.00    -0.199 A  
HETATM   18  C   UNL     1     -11.878  14.604  69.990  1.00  0.00    -0.308 A  
HETATM   19  O   UNL     1     -11.730  13.250  69.943  1.00  0.00    -0.297 OA 
BRANCH  18  20
HETATM   20  C   UNL     1     -11.805  15.233  71.342  1.00  0.00    -0.372 C  
BRANCH  20  21
HETATM   21  N   UNL     1     -13.128  15.473  71.951  1.00  0.00    -0.425 NA 
HETATM   22  C   UNL     1     -13.923  14.241  72.008  1.00  0.00    -0.504 C  
HETATM   23  C   UNL     1     -12.949  16.004  73.304  1.00  0.00    -0.550 C  
ENDBRANCH  20  21
ENDBRANCH  18  20
ENDBRANCH  14  15
ENDBRANCH  13  14
ENDBRANCH  12  13
ENDBRANCH  11  12
ENDBRANCH   9  11
ENDBRANCH   4   9
ENDBRANCH   2   4
TORSDOF 9
ENDMDL
MODEL      236
REMARK 921   NORMALIZED FREE ENERGY PREDICTED BY IDOCK:   -3.67 KCAL/MOL
REMARK 922        TOTAL FREE ENERGY PREDICTED BY IDOCK:   -5.99 KCAL/MOL
REMARK 923 INTER-LIGAND FREE ENERGY PREDICTED BY IDOCK:   -5.54 KCAL/MOL
REMARK 924 INTRA-LIGAND FREE ENERGY PREDICTED BY IDOCK:   -0.45 KCAL/MOL
REMARK 927      BINDING AFFINITY PREDICTED BY RF-SCORE:    0.00 PKD
ROOT
HETATM    1  C   UNL     1     -12.938   7.338  71.638  1.00  0.00    -0.372 C  
HETATM    2  N   UNL     1     -11.746   6.935  70.927  1.00  0.00    -0.342 NA 
HETATM    3  H   UNL     1     -11.079   6.384  71.467  1.00  0.00     0.000 HD 
ENDROOT
BRANCH   2   4
HETATM    4  C   UNL     1     -11.381   7.192  69.616  1.00  0.00    -0.072 C  
HETATM    5  C   UNL     1     -11.153   6.154  68.781  1.00  0.00    -0.319 C  
HETATM    6  O   UNL     1     -10.721   7.432  66.886  1.00  0.00    -0.346 OA 
HETATM    7  N   UNL     1     -10.790   6.304  67.392  1.00  0.00    -0.329 N  
HETATM    8  O   UNL     1     -10.573   5.245  66.784  1.00  0.00    -0.273 OA 
BRANCH   4   9
HETATM    9  N   UNL     1     -11.243   8.511  69.229  1.00  0.00    -0.413 NA 
HETATM   10  H   UNL     1     -11.695   8.753  68.347  1.00  0.00     0.000 HD 
BRANCH   9  11
HETATM   11  C   UNL     1     -10.552   9.602  69.885  1.00  0.00    -0.249 C  
BRANCH  11  12
HETATM   12  C   UNL     1     -10.861  10.921  69.169  1.00  0.00    -0.235 C  
BRANCH  12  13
HETATM   13  S   UNL     1     -10.160  10.994  67.486  1.00  0.00    -0.185 SA 
BRANCH  13  14
HETATM   14  C   UNL     1     -10.670  12.680  67.014  1.00  0.00    -0.245 C  
BRANCH  14  15
HETATM   15  C   UNL     1      -9.534  13.621  67.138  1.00  0.00    -0.244 A  
HETATM   16  C   UNL     1      -8.287  13.535  67.714  1.00  0.00    -0.181 A  
HETATM   17  C   UNL     1      -7.667  14.790  67.499  1.00  0.00    -0.215 A  
HETATM   18  C   UNL     1      -8.576  15.566  66.812  1.00  0.00    -0.272 A  
HETATM   19  O   UNL     1      -9.722  14.859  66.600  1.00  0.00    -0.239 OA 
BRANCH  18  20
HETATM   20  C   UNL     1      -8.557  16.968  66.299  1.00  0.00    -0.262 C  
BRANCH  20  21
HETATM   21  N   UNL     1      -7.467  17.787  66.866  1.00  0.00    -0.191 NA 
HETATM   22  C   UNL     1      -7.073  18.862  65.950  1.00  0.00    -0.260 C  
HETATM   23  C   UNL     1      -7.907  18.363  68.139  1.00  0.00    -0.289 C  
ENDBRANCH  20  21
ENDBRANCH  18  20
ENDBRANCH  14  15
ENDBRANCH  13  14
ENDBRANCH  12  13
ENDBRANCH  11  12
ENDBRANCH   9  11
ENDBRANCH   4   9
ENDBRANCH   2   4
TORSDOF 9
ENDMDL
MODEL      237
REMARK 921   NORMALIZED FREE ENERGY PREDICTED BY IDOCK:   -3.66 KCAL/MOL
REMARK 922        TOTAL FREE ENERGY PREDICTED BY IDOCK:   -5.98 KCAL/MOL
REMARK 923 INTER-LIGAND FREE ENERGY PREDICTED BY IDOCK:   -5.50 KCAL/MOL
REMARK 924 INTRA-LIGAND FREE ENERGY PREDICTED BY IDOCK:   -0.48 KCAL/MOL
REMARK 927      BINDING AFFINITY PREDICTED BY RF-SCORE:    0.00 PKD
ROOT
HETATM    1  C   UNL     1     -11.278   6.321  67.141  1.00  0.00    -0.169 C  
HETATM    2  N   UNL     1     -10.929   7.131  68.285  1.00  0.00    -0.457 NA 
HETATM    3  H   UNL     1     -11.580   7.085  69.069  1.00  0.00     0.000 HD 
ENDROOT
BRANCH   2   4
HETATM    4  C   UNL     1      -9.837   7.962  68.468  1.00  0.00    -0.177 C  
HETATM    5  C   UNL     1      -9.486   8.321  69.723  1.00  0.00    -0.163 C  
HETATM    6  O   UNL     1      -7.610   9.559  69.126  1.00  0.00    -0.071 OA 
HETATM    7  N   UNL     1      -8.355   9.163  70.032  1.00  0.00    -0.133 N  
HETATM    8  O   UNL     1      -8.206   9.430  71.233  1.00  0.00    -0.315 OA 
BRANCH   4   9
HETATM    9  N   UNL     1      -9.167   8.408  67.345  1.00  0.00    -0.139 NA 
HETATM   10  H   UNL     1      -9.338   9.382  67.097  1.00  0.00     0.000 HD 
BRANCH   9  11
HETATM   11  C   UNL     1      -8.256   7.701  66.467  1.00  0.00    -0.125 C  
BRANCH  11  12
HETATM   12  C   UNL     1      -7.344   8.700  65.748  1.00  0.00    -0.081 C  
BRANCH  12  13
HETATM   13  S   UNL     1      -8.086  10.361  65.604  1.00  0.00    -0.157 SA 
BRANCH  13  14
HETATM   14  C   UNL     1      -9.419   9.999  64.415  1.00  0.00    -0.286 C  
BRANCH  14  15
HETATM   15  C   UNL     1     -10.441  11.069  64.437  1.00  0.00    -0.354 A  
HETATM   16  C   UNL     1     -11.268  11.614  63.481  1.00  0.00    -0.462 A  
HETATM   17  C   UNL     1     -12.017  12.622  64.137  1.00  0.00    -0.501 A  
HETATM   18  C   UNL     1     -11.595  12.636  65.449  1.00  0.00    -0.363 A  
HETATM   19  O   UNL     1     -10.625  11.696  65.633  1.00  0.00    -0.260 OA 
BRANCH  18  20
HETATM   20  C   UNL     1     -11.963  13.452  66.644  1.00  0.00    -0.399 C  
BRANCH  20  21
HETATM   21  N   UNL     1     -10.887  14.360  67.087  1.00  0.00    -0.288 NA 
HETATM   22  C   UNL     1     -10.669  15.444  66.124  1.00  0.00    -0.314 C  
HETATM   23  C   UNL     1     -11.240  14.927  68.392  1.00  0.00    -0.292 C  
ENDBRANCH  20  21
ENDBRANCH  18  20
ENDBRANCH  14  15
ENDBRANCH  13  14
ENDBRANCH  12  13
ENDBRANCH  11  12
ENDBRANCH   9  11
ENDBRANCH   4   9
ENDBRANCH   2   4
TORSDOF 9
ENDMDL
MODEL      238
REMARK 921   NORMALIZED FREE ENERGY PREDICTED BY IDOCK:   -3.66 KCAL/MOL
REMARK 922        TOTAL FREE ENERGY PREDICTED BY IDOCK:   -5.97 KCAL/MOL
REMARK 923 INTER-LIGAND FREE ENERGY PREDICTED BY IDOCK:   -4.83 KCAL/MOL
REMARK 924 INTRA-LIGAND FREE ENERGY PREDICTED BY IDOCK:   -1.15 KCAL/MOL
REMARK 927      BINDING AFFINITY PREDICTED BY RF-SCORE:    0.00 PKD
ROOT
HETATM    1  C   UNL     1     -11.605  11.470  68.996  1.00  0.00    -0.318 C  
HETATM    2  N   UNL     1     -10.779  10.742  69.931  1.00  0.00    -0.443 NA 
HETATM    3  H   UNL     1      -9.806  11.044  69.984  1.00  0.00     0.000 HD 
ENDROOT
BRANCH   2   4
HETATM    4  C   UNL     1     -11.120   9.691  70.766  1.00  0.00    -0.334 C  
HETATM    5  C   UNL     1     -12.400   9.258  70.789  1.00  0.00    -0.087 C  
HETATM    6  O   UNL     1     -12.062   7.520  72.296  1.00  0.00    -0.287 OA 
HETATM    7  N   UNL     1     -12.863   8.160  71.603  1.00  0.00    -0.322 N  
HETATM    8  O   UNL     1     -14.079   7.926  71.535  1.00  0.00    -0.394 OA 
BRANCH   4   9
HETATM    9  N   UNL     1     -10.130   9.147  71.562  1.00  0.00    -0.328 NA 
HETATM   10  H   UNL     1     -10.238   9.314  72.562  1.00  0.00     0.000 HD 
BRANCH   9  11
HETATM   11  C   UNL     1      -8.962   8.375  71.190  1.00  0.00    -0.167 C  
BRANCH  11  12
HETATM   12  C   UNL     1      -7.795   9.317  70.871  1.00  0.00    -0.113 C  
BRANCH  12  13
HETATM   13  S   UNL     1      -6.826   8.780  69.422  1.00  0.00    -0.049 SA 
BRANCH  13  14
HETATM   14  C   UNL     1      -7.167  10.169  68.292  1.00  0.00    -0.080 C  
BRANCH  14  15
HETATM   15  C   UNL     1      -8.324   9.861  67.423  1.00  0.00    -0.118 A  
HETATM   16  C   UNL     1      -8.925  10.515  66.371  1.00  0.00    -0.174 A  
HETATM   17  C   UNL     1     -10.005   9.695  65.963  1.00  0.00    -0.344 A  
HETATM   18  C   UNL     1     -10.002   8.596  66.795  1.00  0.00    -0.273 A  
HETATM   19  O   UNL     1      -8.984   8.699  67.695  1.00  0.00    -0.134 OA 
BRANCH  18  20
HETATM   20  C   UNL     1     -10.867   7.385  66.908  1.00  0.00    -0.153 C  
BRANCH  20  21
HETATM   21  N   UNL     1     -10.266   6.308  67.720  1.00  0.00    -0.151 NA 
HETATM   22  C   UNL     1     -11.028   6.074  68.950  1.00  0.00    -0.325 C  
HETATM   23  C   UNL     1     -10.220   5.075  66.929  1.00  0.00    -0.229 C  
ENDBRANCH  20  21
ENDBRANCH  18  20
ENDBRANCH  14  15
ENDBRANCH  13  14
ENDBRANCH  12  13
ENDBRANCH  11  12
ENDBRANCH   9  11
ENDBRANCH   4   9
ENDBRANCH   2   4
TORSDOF 9
ENDMDL
MODEL      239
REMARK 921   NORMALIZED FREE ENERGY PREDICTED BY IDOCK:   -3.66 KCAL/MOL
REMARK 922        TOTAL FREE ENERGY PREDICTED BY IDOCK:   -5.97 KCAL/MOL
REMARK 923 INTER-LIGAND FREE ENERGY PREDICTED BY IDOCK:   -5.43 KCAL/MOL
REMARK 924 INTRA-LIGAND FREE ENERGY PREDICTED BY IDOCK:   -0.53 KCAL/MOL
REMARK 927      BINDING AFFINITY PREDICTED BY RF-SCORE:    0.00 PKD
ROOT
HETATM    1  C   UNL     1     -12.878  14.958  72.776  1.00  0.00    -0.420 C  
HETATM    2  N   UNL     1     -13.046  14.260  71.522  1.00  0.00    -0.326 NA 
HETATM    3  H   UNL     1     -13.539  14.777  70.795  1.00  0.00     0.000 HD 
ENDROOT
BRANCH   2   4
HETATM    4  C   UNL     1     -12.631  12.987  71.168  1.00  0.00    -0.297 C  
HETATM    5  C   UNL     1     -13.133  11.922  71.833  1.00  0.00    -0.369 C  
HETATM    6  O   UNL     1     -12.032  10.294  70.590  1.00  0.00    -0.291 OA 
HETATM    7  N   UNL     1     -12.789  10.553  71.535  1.00  0.00    -0.427 N  
HETATM    8  O   UNL     1     -13.307   9.704  72.276  1.00  0.00    -0.438 OA 
BRANCH   4   9
HETATM    9  N   UNL     1     -11.697  12.867  70.157  1.00  0.00    -0.530 NA 
HETATM   10  H   UNL     1     -10.747  12.665  70.468  1.00  0.00     0.000 HD 
BRANCH   9  11
HETATM   11  C   UNL     1     -11.863  12.984  68.723  1.00  0.00    -0.317 C  
BRANCH  11  12
HETATM   12  C   UNL     1     -11.931  14.463  68.325  1.00  0.00    -0.288 C  
BRANCH  12  13
HETATM   13  S   UNL     1     -10.863  14.864  66.902  1.00  0.00    -0.324 SA 
BRANCH  13  14
HETATM   14  C   UNL     1      -9.467  15.647  67.776  1.00  0.00    -0.208 C  
BRANCH  14  15
HETATM   15  C   UNL     1      -8.290  14.750  67.786  1.00  0.00    -0.159 A  
HETATM   16  C   UNL     1      -6.946  14.942  67.562  1.00  0.00    -0.203 A  
HETATM   17  C   UNL     1      -6.336  13.673  67.715  1.00  0.00    -0.172 A  
HETATM   18  C   UNL     1      -7.346  12.784  68.014  1.00  0.00    -0.117 A  
HETATM   19  O   UNL     1      -8.542  13.436  68.048  1.00  0.00    -0.156 OA 
BRANCH  18  20
HETATM   20  C   UNL     1      -7.383  11.315  68.277  1.00  0.00    -0.095 C  
BRANCH  20  21
HETATM   21  N   UNL     1      -7.582  10.505  67.059  1.00  0.00    -0.104 NA 
HETATM   22  C   UNL     1      -6.302  10.071  66.490  1.00  0.00    -0.072 C  
HETATM   23  C   UNL     1      -8.397   9.332  67.385  1.00  0.00    -0.122 C  
ENDBRANCH  20  21
ENDBRANCH  18  20
ENDBRANCH  14  15
ENDBRANCH  13  14
ENDBRANCH  12  13
ENDBRANCH  11  12
ENDBRANCH   9  11
ENDBRANCH   4   9
ENDBRANCH   2   4
TORSDOF 9
ENDMDL
MODEL      240
REMARK 921   NORMALIZED FREE ENERGY PREDICTED BY IDOCK:   -3.65 KCAL/MOL
REMARK 922        TOTAL FREE ENERGY PREDICTED BY IDOCK:   -5.96 KCAL/MOL
REMARK 923 INTER-LIGAND FREE ENERGY PREDICTED BY IDOCK:   -5.85 KCAL/MOL
REMARK 924 INTRA-LIGAND FREE ENERGY PREDICTED BY IDOCK:   -0.11 KCAL/MOL
REMARK 927      BINDING AFFINITY PREDICTED BY RF-SCORE:    0.00 PKD
ROOT
HETATM    1  C   UNL     1      -6.294  20.573  66.054  1.00  0.00    -0.227 C  
HETATM    2  N   UNL     1      -7.026  19.327  66.073  1.00  0.00    -0.248 NA 
HETATM    3  H   UNL     1      -6.511  18.511  65.744  1.00  0.00     0.000 HD 
ENDROOT
BRANCH   2   4
HETATM    4  C   UNL     1      -8.329  19.086  66.474  1.00  0.00    -0.305 C  
HETATM    5  C   UNL     1      -8.868  19.846  67.453  1.00  0.00    -0.336 C  
HETATM    6  O   UNL     1     -10.978  18.870  67.412  1.00  0.00    -0.437 OA 
HETATM    7  N   UNL     1     -10.221  19.698  67.935  1.00  0.00    -0.423 N  
HETATM    8  O   UNL     1     -10.535  20.449  68.870  1.00  0.00    -0.210 OA 
BRANCH   4   9
HETATM    9  N   UNL     1      -9.014  18.052  65.865  1.00  0.00    -0.486 NA 
HETATM   10  H   UNL     1      -9.505  18.304  65.007  1.00  0.00     0.000 HD 
BRANCH   9  11
HETATM   11  C   UNL     1      -9.140  16.664  66.261  1.00  0.00    -0.298 C  
BRANCH  11  12
HETATM   12  C   UNL     1      -8.477  16.449  67.626  1.00  0.00    -0.169 C  
BRANCH  12  13
HETATM   13  S   UNL     1      -9.357  15.226  68.656  1.00  0.00    -0.210 SA 
BRANCH  13  14
HETATM   14  C   UNL     1     -10.947  15.163  67.768  1.00  0.00    -0.306 C  
BRANCH  14  15
HETATM   15  C   UNL     1     -10.993  13.992  66.864  1.00  0.00    -0.298 A  
HETATM   16  C   UNL     1     -11.264  13.835  65.524  1.00  0.00    -0.303 A  
HETATM   17  C   UNL     1     -11.150  12.448  65.259  1.00  0.00    -0.342 A  
HETATM   18  C   UNL     1     -10.824  11.844  66.455  1.00  0.00    -0.279 A  
HETATM   19  O   UNL     1     -10.738  12.782  67.439  1.00  0.00    -0.226 OA 
BRANCH  18  20
HETATM   20  C   UNL     1     -10.578  10.430  66.864  1.00  0.00    -0.230 C  
BRANCH  20  21
HETATM   21  N   UNL     1      -9.355   9.851  66.272  1.00  0.00    -0.166 NA 
HETATM   22  C   UNL     1      -8.152  10.311  66.972  1.00  0.00    -0.121 C  
HETATM   23  C   UNL     1      -9.432   8.390  66.336  1.00  0.00    -0.227 C  
ENDBRANCH  20  21
ENDBRANCH  18  20
ENDBRANCH  14  15
ENDBRANCH  13  14
ENDBRANCH  12  13
ENDBRANCH  11  12
ENDBRANCH   9  11
ENDBRANCH   4   9
ENDBRANCH   2   4
TORSDOF 9
ENDMDL
MODEL      241
REMARK 921   NORMALIZED FREE ENERGY PREDICTED BY IDOCK:   -3.65 KCAL/MOL
REMARK 922        TOTAL FREE ENERGY PREDICTED BY IDOCK:   -5.95 KCAL/MOL
REMARK 923 INTER-LIGAND FREE ENERGY PREDICTED BY IDOCK:   -5.68 KCAL/MOL
REMARK 924 INTRA-LIGAND FREE ENERGY PREDICTED BY IDOCK:   -0.27 KCAL/MOL
REMARK 927      BINDING AFFINITY PREDICTED BY RF-SCORE:    0.00 PKD
ROOT
HETATM    1  C   UNL     1     -10.964  11.543  68.759  1.00  0.00    -0.222 C  
HETATM    2  N   UNL     1     -11.749  11.560  67.545  1.00  0.00    -0.604 NA 
HETATM    3  H   UNL     1     -12.655  11.097  67.603  1.00  0.00     0.000 HD 
ENDROOT
BRANCH   2   4
HETATM    4  C   UNL     1     -11.443  12.116  66.314  1.00  0.00    -0.374 C  
HETATM    5  C   UNL     1     -12.270  11.895  65.268  1.00  0.00     0.235 C  
HETATM    6  O   UNL     1     -11.108  13.202  63.735  1.00  0.00    -0.371 OA 
HETATM    7  N   UNL     1     -12.062  12.442  63.949  1.00  0.00    -0.456 N  
HETATM    8  O   UNL     1     -12.894  12.099  63.096  1.00  0.00    -0.662 OA 
BRANCH   4   9
HETATM    9  N   UNL     1     -10.282  12.857  66.208  1.00  0.00    -0.272 NA 
HETATM   10  H   UNL     1      -9.499  12.375  65.768  1.00  0.00     0.000 HD 
BRANCH   9  11
HETATM   11  C   UNL     1     -10.009  14.217  66.628  1.00  0.00    -0.275 C  
BRANCH  11  12
HETATM   12  C   UNL     1      -8.505  14.397  66.867  1.00  0.00    -0.127 C  
BRANCH  12  13
HETATM   13  S   UNL     1      -7.928  13.583  68.394  1.00  0.00    -0.125 SA 
BRANCH  13  14
HETATM   14  C   UNL     1      -7.329  15.041  69.311  1.00  0.00    -0.184 C  
BRANCH  14  15
HETATM   15  C   UNL     1      -8.233  16.194  69.103  1.00  0.00    -0.230 A  
HETATM   16  C   UNL     1      -9.571  16.409  69.345  1.00  0.00    -0.137 A  
HETATM   17  C   UNL     1      -9.841  17.731  68.914  1.00  0.00    -0.290 A  
HETATM   18  C   UNL     1      -8.654  18.238  68.429  1.00  0.00    -0.299 A  
HETATM   19  O   UNL     1      -7.673  17.298  68.532  1.00  0.00    -0.239 OA 
BRANCH  18  20
HETATM   20  C   UNL     1      -8.260  19.544  67.824  1.00  0.00    -0.298 C  
BRANCH  20  21
HETATM   21  N   UNL     1      -8.461  19.600  66.363  1.00  0.00    -0.344 NA 
HETATM   22  C   UNL     1      -9.828  20.011  66.025  1.00  0.00    -0.406 C  
HETATM   23  C   UNL     1      -7.506  20.545  65.778  1.00  0.00     0.002 C  
ENDBRANCH  20  21
ENDBRANCH  18  20
ENDBRANCH  14  15
ENDBRANCH  13  14
ENDBRANCH  12  13
ENDBRANCH  11  12
ENDBRANCH   9  11
ENDBRANCH   4   9
ENDBRANCH   2   4
TORSDOF 9
ENDMDL
MODEL      242
REMARK 921   NORMALIZED FREE ENERGY PREDICTED BY IDOCK:   -3.62 KCAL/MOL
REMARK 922        TOTAL FREE ENERGY PREDICTED BY IDOCK:   -5.91 KCAL/MOL
REMARK 923 INTER-LIGAND FREE ENERGY PREDICTED BY IDOCK:   -5.41 KCAL/MOL
REMARK 924 INTRA-LIGAND FREE ENERGY PREDICTED BY IDOCK:   -0.51 KCAL/MOL
REMARK 927      BINDING AFFINITY PREDICTED BY RF-SCORE:    0.00 PKD
ROOT
HETATM    1  C   UNL     1     -11.361  12.225  63.348  1.00  0.00    -0.428 C  
HETATM    2  N   UNL     1     -10.953  11.195  64.276  1.00  0.00    -0.346 NA 
HETATM    3  H   UNL     1     -11.364  10.275  64.118  1.00  0.00     0.000 HD 
ENDROOT
BRANCH   2   4
HETATM    4  C   UNL     1     -10.083  11.281  65.350  1.00  0.00    -0.264 C  
HETATM    5  C   UNL     1      -8.906  10.618  65.299  1.00  0.00    -0.189 C  
HETATM    6  O   UNL     1      -8.098  11.361  67.349  1.00  0.00    -0.131 OA 
HETATM    7  N   UNL     1      -7.917  10.654  66.349  1.00  0.00    -0.137 N  
HETATM    8  O   UNL     1      -6.915   9.949  66.156  1.00  0.00    -0.093 OA 
BRANCH   4   9
HETATM    9  N   UNL     1     -10.476  12.029  66.443  1.00  0.00    -0.227 NA 
HETATM   10  H   UNL     1      -9.713  12.393  67.015  1.00  0.00     0.000 HD 
BRANCH   9  11
HETATM   11  C   UNL     1     -11.806  12.375  66.901  1.00  0.00    -0.307 C  
BRANCH  11  12
HETATM   12  C   UNL     1     -11.945  13.898  66.998  1.00  0.00    -0.424 C  
BRANCH  12  13
HETATM   13  S   UNL     1     -10.870  14.784  65.820  1.00  0.00    -0.347 SA 
BRANCH  13  14
HETATM   14  C   UNL     1     -10.408  16.219  66.846  1.00  0.00    -0.299 C  
BRANCH  14  15
HETATM   15  C   UNL     1      -8.940  16.285  67.017  1.00  0.00    -0.206 A  
HETATM   16  C   UNL     1      -7.941  15.338  67.039  1.00  0.00    -0.243 A  
HETATM   17  C   UNL     1      -6.733  16.045  67.250  1.00  0.00    -0.232 A  
HETATM   18  C   UNL     1      -7.068  17.378  67.352  1.00  0.00    -0.164 A  
HETATM   19  O   UNL     1      -8.417  17.527  67.221  1.00  0.00    -0.208 OA 
BRANCH  18  20
HETATM   20  C   UNL     1      -6.283  18.626  67.586  1.00  0.00    -0.191 C  
BRANCH  20  21
HETATM   21  N   UNL     1      -7.035  19.665  68.316  1.00  0.00    -0.287 NA 
HETATM   22  C   UNL     1      -6.400  19.984  69.599  1.00  0.00    -0.352 C  
HETATM   23  C   UNL     1      -7.112  20.875  67.493  1.00  0.00    -0.335 C  
ENDBRANCH  20  21
ENDBRANCH  18  20
ENDBRANCH  14  15
ENDBRANCH  13  14
ENDBRANCH  12  13
ENDBRANCH  11  12
ENDBRANCH   9  11
ENDBRANCH   4   9
ENDBRANCH   2   4
TORSDOF 9
ENDMDL
MODEL      243
REMARK 921   NORMALIZED FREE ENERGY PREDICTED BY IDOCK:   -3.61 KCAL/MOL
REMARK 922        TOTAL FREE ENERGY PREDICTED BY IDOCK:   -5.91 KCAL/MOL
REMARK 923 INTER-LIGAND FREE ENERGY PREDICTED BY IDOCK:   -5.43 KCAL/MOL
REMARK 924 INTRA-LIGAND FREE ENERGY PREDICTED BY IDOCK:   -0.47 KCAL/MOL
REMARK 927      BINDING AFFINITY PREDICTED BY RF-SCORE:    0.00 PKD
ROOT
HETATM    1  C   UNL     1     -10.969   6.310  67.298  1.00  0.00    -0.366 C  
HETATM    2  N   UNL     1      -9.670   6.944  67.304  1.00  0.00    -0.139 NA 
HETATM    3  H   UNL     1      -8.918   6.397  67.722  1.00  0.00     0.000 HD 
ENDROOT
BRANCH   2   4
HETATM    4  C   UNL     1      -9.302   8.188  66.821  1.00  0.00    -0.183 C  
HETATM    5  C   UNL     1      -8.877   8.300  65.543  1.00  0.00    -0.110 C  
HETATM    6  O   UNL     1      -8.587  10.607  65.563  1.00  0.00    -0.178 OA 
HETATM    7  N   UNL     1      -8.491   9.548  64.930  1.00  0.00    -0.147 N  
HETATM    8  O   UNL     1      -8.081   9.460  63.763  1.00  0.00    -0.136 OA 
BRANCH   4   9
HETATM    9  N   UNL     1      -9.365   9.263  67.687  1.00  0.00    -0.128 NA 
HETATM   10  H   UNL     1      -8.475   9.539  68.101  1.00  0.00     0.000 HD 
BRANCH   9  11
HETATM   11  C   UNL     1     -10.506  10.059  68.095  1.00  0.00    -0.211 C  
BRANCH  11  12
HETATM   12  C   UNL     1     -10.895   9.710  69.536  1.00  0.00    -0.231 C  
BRANCH  12  13
HETATM   13  S   UNL     1     -11.996  10.952  70.293  1.00  0.00    -0.390 SA 
BRANCH  13  14
HETATM   14  C   UNL     1     -12.003  12.205  68.969  1.00  0.00    -0.247 C  
BRANCH  14  15
HETATM   15  C   UNL     1     -11.715  13.547  69.521  1.00  0.00    -0.322 A  
HETATM   16  C   UNL     1     -12.161  14.238  70.624  1.00  0.00    -0.427 A  
HETATM   17  C   UNL     1     -11.506  15.493  70.595  1.00  0.00    -0.383 A  
HETATM   18  C   UNL     1     -10.706  15.494  69.472  1.00  0.00    -0.272 A  
HETATM   19  O   UNL     1     -10.840  14.312  68.808  1.00  0.00    -0.239 OA 
BRANCH  18  20
HETATM   20  C   UNL     1      -9.783  16.497  68.863  1.00  0.00    -0.257 C  
BRANCH  20  21
HETATM   21  N   UNL     1     -10.460  17.437  67.947  1.00  0.00    -0.370 NA 
HETATM   22  C   UNL     1     -10.059  18.823  68.210  1.00  0.00    -0.383 C  
HETATM   23  C   UNL     1     -10.130  17.085  66.563  1.00  0.00    -0.314 C  
ENDBRANCH  20  21
ENDBRANCH  18  20
ENDBRANCH  14  15
ENDBRANCH  13  14
ENDBRANCH  12  13
ENDBRANCH  11  12
ENDBRANCH   9  11
ENDBRANCH   4   9
ENDBRANCH   2   4
TORSDOF 9
ENDMDL
MODEL      244
REMARK 921   NORMALIZED FREE ENERGY PREDICTED BY IDOCK:   -3.61 KCAL/MOL
REMARK 922        TOTAL FREE ENERGY PREDICTED BY IDOCK:   -5.89 KCAL/MOL
REMARK 923 INTER-LIGAND FREE ENERGY PREDICTED BY IDOCK:   -5.30 KCAL/MOL
REMARK 924 INTRA-LIGAND FREE ENERGY PREDICTED BY IDOCK:   -0.59 KCAL/MOL
REMARK 927      BINDING AFFINITY PREDICTED BY RF-SCORE:    0.00 PKD
ROOT
HETATM    1  C   UNL     1      -7.977  14.967  67.241  1.00  0.00    -0.209 C  
HETATM    2  N   UNL     1      -7.580  13.606  66.956  1.00  0.00    -0.337 NA 
HETATM    3  H   UNL     1      -7.736  13.296  65.997  1.00  0.00     0.000 HD 
ENDROOT
BRANCH   2   4
HETATM    4  C   UNL     1      -7.018  12.665  67.801  1.00  0.00    -0.125 C  
HETATM    5  C   UNL     1      -6.664  13.031  69.053  1.00  0.00    -0.099 C  
HETATM    6  O   UNL     1      -5.946  10.932  69.748  1.00  0.00    -0.055 OA 
HETATM    7  N   UNL     1      -6.091  12.130  70.023  1.00  0.00    -0.152 N  
HETATM    8  O   UNL     1      -5.783  12.646  71.108  1.00  0.00    -0.350 OA 
BRANCH   4   9
HETATM    9  N   UNL     1      -6.822  11.388  67.310  1.00  0.00    -0.104 NA 
HETATM   10  H   UNL     1      -5.903  10.988  67.498  1.00  0.00     0.000 HD 
BRANCH   9  11
HETATM   11  C   UNL     1      -7.725  10.532  66.567  1.00  0.00    -0.131 C  
BRANCH  11  12
HETATM   12  C   UNL     1      -7.732   9.127  67.179  1.00  0.00    -0.098 C  
BRANCH  12  13
HETATM   13  S   UNL     1      -9.029   8.910  68.443  1.00  0.00    -0.133 SA 
BRANCH  13  14
HETATM   14  C   UNL     1     -10.505   9.253  67.430  1.00  0.00    -0.273 C  
BRANCH  14  15
HETATM   15  C   UNL     1     -11.099  10.557  67.799  1.00  0.00    -0.317 A  
HETATM   16  C   UNL     1     -11.609  11.073  68.969  1.00  0.00    -0.392 A  
HETATM   17  C   UNL     1     -12.034  12.389  68.667  1.00  0.00    -0.272 A  
HETATM   18  C   UNL     1     -11.766  12.593  67.330  1.00  0.00    -0.369 A  
HETATM   19  O   UNL     1     -11.205  11.472  66.795  1.00  0.00    -0.301 OA 
BRANCH  18  20
HETATM   20  C   UNL     1     -11.978  13.739  66.398  1.00  0.00    -0.438 C  
BRANCH  20  21
HETATM   21  N   UNL     1     -10.966  13.819  65.326  1.00  0.00    -0.310 NA 
HETATM   22  C   UNL     1     -11.384  13.069  64.137  1.00  0.00    -0.397 C  
HETATM   23  C   UNL     1     -10.749  15.223  64.969  1.00  0.00    -0.439 C  
ENDBRANCH  20  21
ENDBRANCH  18  20
ENDBRANCH  14  15
ENDBRANCH  13  14
ENDBRANCH  12  13
ENDBRANCH  11  12
ENDBRANCH   9  11
ENDBRANCH   4   9
ENDBRANCH   2   4
TORSDOF 9
ENDMDL
MODEL      245
REMARK 921   NORMALIZED FREE ENERGY PREDICTED BY IDOCK:   -3.60 KCAL/MOL
REMARK 922        TOTAL FREE ENERGY PREDICTED BY IDOCK:   -5.89 KCAL/MOL
REMARK 923 INTER-LIGAND FREE ENERGY PREDICTED BY IDOCK:   -5.47 KCAL/MOL
REMARK 924 INTRA-LIGAND FREE ENERGY PREDICTED BY IDOCK:   -0.42 KCAL/MOL
REMARK 927      BINDING AFFINITY PREDICTED BY RF-SCORE:    0.00 PKD
ROOT
HETATM    1  C   UNL     1     -10.993   6.415  67.294  1.00  0.00    -0.392 C  
HETATM    2  N   UNL     1     -10.773   6.291  68.717  1.00  0.00    -0.264 NA 
HETATM    3  H   UNL     1     -10.787   5.339  69.081  1.00  0.00     0.000 HD 
ENDROOT
BRANCH   2   4
HETATM    4  C   UNL     1     -10.547   7.283  69.656  1.00  0.00    -0.235 C  
HETATM    5  C   UNL     1     -11.445   7.466  70.650  1.00  0.00    -0.282 C  
HETATM    6  O   UNL     1     -10.285   9.160  71.743  1.00  0.00    -0.338 OA 
HETATM    7  N   UNL     1     -11.301   8.453  71.693  1.00  0.00    -0.268 N  
HETATM    8  O   UNL     1     -12.242   8.514  72.498  1.00  0.00    -0.389 OA 
BRANCH   4   9
HETATM    9  N   UNL     1      -9.416   8.063  69.516  1.00  0.00    -0.160 NA 
HETATM   10  H   UNL     1      -9.440   8.956  70.009  1.00  0.00     0.000 HD 
BRANCH   9  11
HETATM   11  C   UNL     1      -8.198   7.805  68.773  1.00  0.00    -0.128 C  
BRANCH  11  12
HETATM   12  C   UNL     1      -7.063   8.683  69.312  1.00  0.00    -0.062 C  
BRANCH  12  13
HETATM   13  S   UNL     1      -7.557  10.426  69.529  1.00  0.00    -0.147 SA 
BRANCH  13  14
HETATM   14  C   UNL     1      -7.726  10.916  67.781  1.00  0.00    -0.107 C  
BRANCH  14  15
HETATM   15  C   UNL     1      -9.136  11.240  67.466  1.00  0.00    -0.151 A  
HETATM   16  C   UNL     1     -10.226  10.483  67.101  1.00  0.00    -0.270 A  
HETATM   17  C   UNL     1     -11.298  11.393  66.933  1.00  0.00    -0.284 A  
HETATM   18  C   UNL     1     -10.794  12.649  67.197  1.00  0.00    -0.253 A  
HETATM   19  O   UNL     1      -9.471  12.560  67.512  1.00  0.00    -0.177 OA 
BRANCH  18  20
HETATM   20  C   UNL     1     -11.383  14.021  67.187  1.00  0.00    -0.331 C  
BRANCH  20  21
HETATM   21  N   UNL     1     -11.607  14.553  65.828  1.00  0.00    -0.350 NA 
HETATM   22  C   UNL     1     -10.434  14.350  64.972  1.00  0.00    -0.430 C  
HETATM   23  C   UNL     1     -12.769  13.887  65.234  1.00  0.00    -0.449 C  
ENDBRANCH  20  21
ENDBRANCH  18  20
ENDBRANCH  14  15
ENDBRANCH  13  14
ENDBRANCH  12  13
ENDBRANCH  11  12
ENDBRANCH   9  11
ENDBRANCH   4   9
ENDBRANCH   2   4
TORSDOF 9
ENDMDL
MODEL      246
REMARK 921   NORMALIZED FREE ENERGY PREDICTED BY IDOCK:   -3.60 KCAL/MOL
REMARK 922        TOTAL FREE ENERGY PREDICTED BY IDOCK:   -5.88 KCAL/MOL
REMARK 923 INTER-LIGAND FREE ENERGY PREDICTED BY IDOCK:   -5.36 KCAL/MOL
REMARK 924 INTRA-LIGAND FREE ENERGY PREDICTED BY IDOCK:   -0.53 KCAL/MOL
REMARK 927      BINDING AFFINITY PREDICTED BY RF-SCORE:    0.00 PKD
ROOT
HETATM    1  C   UNL     1     -12.201  14.160  64.969  1.00  0.00    -0.441 C  
HETATM    2  N   UNL     1     -12.326  13.693  66.331  1.00  0.00    -0.415 NA 
HETATM    3  H   UNL     1     -13.077  13.024  66.497  1.00  0.00     0.000 HD 
ENDROOT
BRANCH   2   4
HETATM    4  C   UNL     1     -11.570  14.027  67.442  1.00  0.00    -0.368 C  
HETATM    5  C   UNL     1     -11.430  15.329  67.777  1.00  0.00    -0.303 C  
HETATM    6  O   UNL     1     -10.171  14.973  69.699  1.00  0.00    -0.217 OA 
HETATM    7  N   UNL     1     -10.686  15.789  68.924  1.00  0.00    -0.235 N  
HETATM    8  O   UNL     1     -10.622  17.021  69.055  1.00  0.00    -0.325 OA 
BRANCH   4   9
HETATM    9  N   UNL     1     -10.968  13.003  68.148  1.00  0.00    -0.234 NA 
HETATM   10  H   UNL     1      -9.955  13.075  68.237  1.00  0.00     0.000 HD 
BRANCH   9  11
HETATM   11  C   UNL     1     -11.559  11.841  68.781  1.00  0.00    -0.307 C  
BRANCH  11  12
HETATM   12  C   UNL     1     -11.442  10.626  67.854  1.00  0.00    -0.181 C  
BRANCH  12  13
HETATM   13  S   UNL     1      -9.839   9.769  68.009  1.00  0.00    -0.153 SA 
BRANCH  13  14
HETATM   14  C   UNL     1     -10.400   8.200  68.748  1.00  0.00    -0.202 C  
BRANCH  14  15
HETATM   15  C   UNL     1     -10.159   8.196  70.208  1.00  0.00    -0.192 A  
HETATM   16  C   UNL     1     -10.213   9.166  71.183  1.00  0.00    -0.384 A  
HETATM   17  C   UNL     1      -9.864   8.524  72.396  1.00  0.00    -0.358 A  
HETATM   18  C   UNL     1      -9.610   7.206  72.086  1.00  0.00    -0.142 A  
HETATM   19  O   UNL     1      -9.778   7.004  70.748  1.00  0.00    -0.169 OA 
BRANCH  18  20
HETATM   20  C   UNL     1      -9.189   6.019  72.887  1.00  0.00    -0.134 C  
BRANCH  20  21
HETATM   21  N   UNL     1     -10.001   4.814  72.624  1.00  0.00    -0.158 NA 
HETATM   22  C   UNL     1      -9.264   3.589  72.951  1.00  0.00    -0.099 C  
HETATM   23  C   UNL     1     -11.229   4.875  73.420  1.00  0.00    -0.338 C  
ENDBRANCH  20  21
ENDBRANCH  18  20
ENDBRANCH  14  15
ENDBRANCH  13  14
ENDBRANCH  12  13
ENDBRANCH  11  12
ENDBRANCH   9  11
ENDBRANCH   4   9
ENDBRANCH   2   4
TORSDOF 9
ENDMDL
MODEL      247
REMARK 921   NORMALIZED FREE ENERGY PREDICTED BY IDOCK:   -3.60 KCAL/MOL
REMARK 922        TOTAL FREE ENERGY PREDICTED BY IDOCK:   -5.88 KCAL/MOL
REMARK 923 INTER-LIGAND FREE ENERGY PREDICTED BY IDOCK:   -5.69 KCAL/MOL
REMARK 924 INTRA-LIGAND FREE ENERGY PREDICTED BY IDOCK:   -0.19 KCAL/MOL
REMARK 927      BINDING AFFINITY PREDICTED BY RF-SCORE:    0.00 PKD
ROOT
HETATM    1  C   UNL     1      -8.702  15.062  68.992  1.00  0.00    -0.203 C  
HETATM    2  N   UNL     1      -8.881  13.669  68.650  1.00  0.00    -0.352 NA 
HETATM    3  H   UNL     1      -8.128  13.046  68.942  1.00  0.00     0.000 HD 
ENDROOT
BRANCH   2   4
HETATM    4  C   UNL     1      -9.930  13.061  67.981  1.00  0.00    -0.233 C  
HETATM    5  C   UNL     1     -10.857  13.832  67.372  1.00  0.00    -0.277 C  
HETATM    6  O   UNL     1     -12.105  12.085  66.478  1.00  0.00    -0.617 OA 
HETATM    7  N   UNL     1     -11.978  13.307  66.629  1.00  0.00    -0.393 N  
HETATM    8  O   UNL     1     -12.757  14.158  66.174  1.00  0.00    -0.442 OA 
BRANCH   4   9
HETATM    9  N   UNL     1      -9.992  11.681  67.991  1.00  0.00    -0.182 NA 
HETATM   10  H   UNL     1     -10.236  11.252  67.098  1.00  0.00     0.000 HD 
BRANCH   9  11
HETATM   11  C   UNL     1      -9.762  10.750  69.078  1.00  0.00    -0.187 C  
BRANCH  11  12
HETATM   12  C   UNL     1     -11.023  10.636  69.941  1.00  0.00    -0.274 C  
BRANCH  12  13
HETATM   13  S   UNL     1     -11.119   9.058  70.851  1.00  0.00    -0.304 SA 
BRANCH  13  14
HETATM   14  C   UNL     1     -10.862   7.892  69.473  1.00  0.00    -0.136 C  
BRANCH  14  15
HETATM   15  C   UNL     1     -10.424   6.573  69.982  1.00  0.00    -0.212 A  
HETATM   16  C   UNL     1     -10.475   5.294  69.476  1.00  0.00    -0.304 A  
HETATM   17  C   UNL     1      -9.891   4.458  70.458  1.00  0.00    -0.285 A  
HETATM   18  C   UNL     1      -9.528   5.277  71.507  1.00  0.00    -0.150 A  
HETATM   19  O   UNL     1      -9.862   6.567  71.224  1.00  0.00    -0.180 OA 
BRANCH  18  20
HETATM   20  C   UNL     1      -8.890   5.033  72.834  1.00  0.00    -0.117 C  
BRANCH  20  21
HETATM   21  N   UNL     1      -9.840   5.093  73.962  1.00  0.00    -0.157 NA 
HETATM   22  C   UNL     1      -9.948   6.453  74.500  1.00  0.00    -0.351 C  
HETATM   23  C   UNL     1     -11.157   4.638  73.510  1.00  0.00    -0.331 C  
ENDBRANCH  20  21
ENDBRANCH  18  20
ENDBRANCH  14  15
ENDBRANCH  13  14
ENDBRANCH  12  13
ENDBRANCH  11  12
ENDBRANCH   9  11
ENDBRANCH   4   9
ENDBRANCH   2   4
TORSDOF 9
ENDMDL
MODEL      248
REMARK 921   NORMALIZED FREE ENERGY PREDICTED BY IDOCK:   -3.59 KCAL/MOL
REMARK 922        TOTAL FREE ENERGY PREDICTED BY IDOCK:   -5.87 KCAL/MOL
REMARK 923 INTER-LIGAND FREE ENERGY PREDICTED BY IDOCK:   -5.59 KCAL/MOL
REMARK 924 INTRA-LIGAND FREE ENERGY PREDICTED BY IDOCK:   -0.28 KCAL/MOL
REMARK 927      BINDING AFFINITY PREDICTED BY RF-SCORE:    0.00 PKD
ROOT
HETATM    1  C   UNL     1     -12.223  14.492  64.085  1.00  0.00    -0.342 C  
HETATM    2  N   UNL     1     -11.515  14.119  65.289  1.00  0.00    -0.319 NA 
HETATM    3  H   UNL     1     -12.010  13.474  65.905  1.00  0.00     0.000 HD 
ENDROOT
BRANCH   2   4
HETATM    4  C   UNL     1     -10.262  14.513  65.724  1.00  0.00    -0.335 C  
HETATM    5  C   UNL     1      -9.924  15.820  65.662  1.00  0.00    -0.345 C  
HETATM    6  O   UNL     1      -7.820  15.595  66.626  1.00  0.00    -0.221 OA 
HETATM    7  N   UNL     1      -8.656  16.346  66.106  1.00  0.00    -0.332 N  
HETATM    8  O   UNL     1      -8.497  17.563  65.933  1.00  0.00    -0.533 OA 
BRANCH   4   9
HETATM    9  N   UNL     1      -9.398  13.537  66.182  1.00  0.00    -0.477 NA 
HETATM   10  H   UNL     1      -8.544  13.423  65.636  1.00  0.00     0.000 HD 
BRANCH   9  11
HETATM   11  C   UNL     1      -9.522  12.650  67.321  1.00  0.00    -0.199 C  
BRANCH  11  12
HETATM   12  C   UNL     1     -10.536  11.543  67.012  1.00  0.00    -0.242 C  
BRANCH  12  13
HETATM   13  S   UNL     1      -9.752  10.013  66.400  1.00  0.00    -0.224 SA 
BRANCH  13  14
HETATM   14  C   UNL     1     -10.484   8.810  67.558  1.00  0.00    -0.271 C  
BRANCH  14  15
HETATM   15  C   UNL     1      -9.700   8.752  68.812  1.00  0.00    -0.165 A  
HETATM   16  C   UNL     1      -8.835   9.623  69.434  1.00  0.00    -0.183 A  
HETATM   17  C   UNL     1      -8.404   8.973  70.616  1.00  0.00    -0.214 A  
HETATM   18  C   UNL     1      -9.026   7.743  70.639  1.00  0.00    -0.145 A  
HETATM   19  O   UNL     1      -9.810   7.600  69.534  1.00  0.00    -0.174 OA 
BRANCH  18  20
HETATM   20  C   UNL     1      -8.993   6.587  71.583  1.00  0.00    -0.143 C  
BRANCH  20  21
HETATM   21  N   UNL     1     -10.329   6.191  72.071  1.00  0.00    -0.195 NA 
HETATM   22  C   UNL     1     -10.419   4.740  72.267  1.00  0.00    -0.189 C  
HETATM   23  C   UNL     1     -10.604   6.874  73.338  1.00  0.00    -0.344 C  
ENDBRANCH  20  21
ENDBRANCH  18  20
ENDBRANCH  14  15
ENDBRANCH  13  14
ENDBRANCH  12  13
ENDBRANCH  11  12
ENDBRANCH   9  11
ENDBRANCH   4   9
ENDBRANCH   2   4
TORSDOF 9
ENDMDL
MODEL      249
REMARK 921   NORMALIZED FREE ENERGY PREDICTED BY IDOCK:   -3.59 KCAL/MOL
REMARK 922        TOTAL FREE ENERGY PREDICTED BY IDOCK:   -5.87 KCAL/MOL
REMARK 923 INTER-LIGAND FREE ENERGY PREDICTED BY IDOCK:   -5.45 KCAL/MOL
REMARK 924 INTRA-LIGAND FREE ENERGY PREDICTED BY IDOCK:   -0.42 KCAL/MOL
REMARK 927      BINDING AFFINITY PREDICTED BY RF-SCORE:    0.00 PKD
ROOT
HETATM    1  C   UNL     1     -11.004   6.484  67.219  1.00  0.00    -0.400 C  
HETATM    2  N   UNL     1      -9.740   5.907  66.820  1.00  0.00    -0.146 NA 
HETATM    3  H   UNL     1      -9.107   5.671  67.583  1.00  0.00     0.000 HD 
ENDROOT
BRANCH   2   4
HETATM    4  C   UNL     1      -9.269   5.630  65.548  1.00  0.00    -0.006 C  
HETATM    5  C   UNL     1      -9.419   4.383  65.047  1.00  0.00    -0.167 C  
HETATM    6  O   UNL     1      -8.488   4.824  62.962  1.00  0.00    -0.103 OA 
HETATM    7  N   UNL     1      -8.987   3.989  63.728  1.00  0.00    -0.119 N  
HETATM    8  O   UNL     1      -9.161   2.793  63.449  1.00  0.00    -0.095 OA 
BRANCH   4   9
HETATM    9  N   UNL     1      -8.639   6.645  64.855  1.00  0.00    -0.350 NA 
HETATM   10  H   UNL     1      -8.414   6.432  63.883  1.00  0.00     0.000 HD 
BRANCH   9  11
HETATM   11  C   UNL     1      -8.248   7.968  65.300  1.00  0.00    -0.146 C  
BRANCH  11  12
HETATM   12  C   UNL     1      -8.565   8.999  64.211  1.00  0.00    -0.148 C  
BRANCH  12  13
HETATM   13  S   UNL     1      -8.983  10.640  64.889  1.00  0.00    -0.193 SA 
BRANCH  13  14
HETATM   14  C   UNL     1     -10.315  11.117  63.739  1.00  0.00    -0.386 C  
BRANCH  14  15
HETATM   15  C   UNL     1     -11.136  12.205  64.317  1.00  0.00    -0.346 A  
HETATM   16  C   UNL     1     -12.479  12.505  64.280  1.00  0.00    -0.520 A  
HETATM   17  C   UNL     1     -12.638  13.694  65.032  1.00  0.00    -0.434 A  
HETATM   18  C   UNL     1     -11.382  14.051  65.475  1.00  0.00    -0.313 A  
HETATM   19  O   UNL     1     -10.461  13.150  65.031  1.00  0.00    -0.313 OA 
BRANCH  18  20
HETATM   20  C   UNL     1     -10.859  15.187  66.290  1.00  0.00    -0.333 C  
BRANCH  20  21
HETATM   21  N   UNL     1     -10.018  16.124  65.519  1.00  0.00    -0.498 NA 
HETATM   22  C   UNL     1     -10.619  17.460  65.461  1.00  0.00    -0.108 C  
HETATM   23  C   UNL     1      -8.693  16.208  66.140  1.00  0.00    -0.323 C  
ENDBRANCH  20  21
ENDBRANCH  18  20
ENDBRANCH  14  15
ENDBRANCH  13  14
ENDBRANCH  12  13
ENDBRANCH  11  12
ENDBRANCH   9  11
ENDBRANCH   4   9
ENDBRANCH   2   4
TORSDOF 9
ENDMDL
MODEL      250
REMARK 921   NORMALIZED FREE ENERGY PREDICTED BY IDOCK:   -3.57 KCAL/MOL
REMARK 922        TOTAL FREE ENERGY PREDICTED BY IDOCK:   -5.83 KCAL/MOL
REMARK 923 INTER-LIGAND FREE ENERGY PREDICTED BY IDOCK:   -5.24 KCAL/MOL
REMARK 924 INTRA-LIGAND FREE ENERGY PREDICTED BY IDOCK:   -0.60 KCAL/MOL
REMARK 927      BINDING AFFINITY PREDICTED BY RF-SCORE:    0.00 PKD
ROOT
HETATM    1  C   UNL     1     -12.104  15.879  71.830  1.00  0.00    -0.492 C  
HETATM    2  N   UNL     1     -12.452  15.083  70.675  1.00  0.00    -0.339 NA 
HETATM    3  H   UNL     1     -12.834  15.602  69.885  1.00  0.00     0.000 HD 
ENDROOT
BRANCH   2   4
HETATM    4  C   UNL     1     -12.340  13.716  70.490  1.00  0.00    -0.355 C  
HETATM    5  C   UNL     1     -12.721  12.884  71.485  1.00  0.00    -0.239 C  
HETATM    6  O   UNL     1     -12.307  10.901  70.342  1.00  0.00    -0.307 OA 
HETATM    7  N   UNL     1     -12.669  11.444  71.394  1.00  0.00    -0.403 N  
HETATM    8  O   UNL     1     -13.014  10.836  72.419  1.00  0.00    -0.193 OA 
BRANCH   4   9
HETATM    9  N   UNL     1     -11.816  13.264  69.294  1.00  0.00    -0.322 NA 
HETATM   10  H   UNL     1     -12.139  12.342  69.001  1.00  0.00     0.000 HD 
BRANCH   9  11
HETATM   11  C   UNL     1     -10.877  13.901  68.394  1.00  0.00    -0.254 C  
BRANCH  11  12
HETATM   12  C   UNL     1      -9.487  13.945  69.037  1.00  0.00     0.164 C  
BRANCH  12  13
HETATM   13  S   UNL     1      -8.233  13.028  68.078  1.00  0.00    -0.171 SA 
BRANCH  13  14
HETATM   14  C   UNL     1      -8.805  11.323  68.377  1.00  0.00    -0.159 C  
BRANCH  14  15
HETATM   15  C   UNL     1      -9.215  10.682  67.108  1.00  0.00    -0.147 A  
HETATM   16  C   UNL     1      -9.141   9.396  66.624  1.00  0.00    -0.181 A  
HETATM   17  C   UNL     1      -9.705   9.430  65.326  1.00  0.00    -0.184 A  
HETATM   18  C   UNL     1     -10.082  10.735  65.094  1.00  0.00    -0.299 A  
HETATM   19  O   UNL     1      -9.775  11.505  66.175  1.00  0.00    -0.209 OA 
BRANCH  18  20
HETATM   20  C   UNL     1     -10.713  11.438  63.937  1.00  0.00    -0.397 C  
BRANCH  20  21
HETATM   21  N   UNL     1     -11.495  12.627  64.329  1.00  0.00    -0.339 NA 
HETATM   22  C   UNL     1     -10.667  13.837  64.327  1.00  0.00    -0.198 C  
HETATM   23  C   UNL     1     -12.614  12.798  63.399  1.00  0.00    -0.212 C  
ENDBRANCH  20  21
ENDBRANCH  18  20
ENDBRANCH  14  15
ENDBRANCH  13  14
ENDBRANCH  12  13
ENDBRANCH  11  12
ENDBRANCH   9  11
ENDBRANCH   4   9
ENDBRANCH   2   4
TORSDOF 9
ENDMDL
MODEL      251
REMARK 921   NORMALIZED FREE ENERGY PREDICTED BY IDOCK:   -3.57 KCAL/MOL
REMARK 922        TOTAL FREE ENERGY PREDICTED BY IDOCK:   -5.83 KCAL/MOL
REMARK 923 INTER-LIGAND FREE ENERGY PREDICTED BY IDOCK:   -5.00 KCAL/MOL
REMARK 924 INTRA-LIGAND FREE ENERGY PREDICTED BY IDOCK:   -0.83 KCAL/MOL
REMARK 927      BINDING AFFINITY PREDICTED BY RF-SCORE:    0.00 PKD
ROOT
HETATM    1  C   UNL     1      -9.441   4.754  66.465  1.00  0.00    -0.156 C  
HETATM    2  N   UNL     1      -8.703   5.972  66.217  1.00  0.00    -0.133 NA 
HETATM    3  H   UNL     1      -7.695   5.859  66.111  1.00  0.00     0.000 HD 
ENDROOT
BRANCH   2   4
HETATM    4  C   UNL     1      -9.172   7.270  66.104  1.00  0.00    -0.089 C  
HETATM    5  C   UNL     1      -8.403   8.197  65.490  1.00  0.00    -0.153 C  
HETATM    6  O   UNL     1      -9.920   9.950  65.657  1.00  0.00    -0.284 OA 
HETATM    7  N   UNL     1      -8.798   9.571  65.297  1.00  0.00    -0.171 N  
HETATM    8  O   UNL     1      -7.950  10.295  64.756  1.00  0.00    -0.151 OA 
BRANCH   4   9
HETATM    9  N   UNL     1     -10.405   7.564  66.652  1.00  0.00    -0.490 NA 
HETATM   10  H   UNL     1     -11.174   7.622  65.984  1.00  0.00     0.000 HD 
BRANCH   9  11
HETATM   11  C   UNL     1     -10.773   7.802  68.033  1.00  0.00    -0.066 C  
BRANCH  11  12
HETATM   12  C   UNL     1      -9.519   8.103  68.862  1.00  0.00    -0.151 C  
BRANCH  12  13
HETATM   13  S   UNL     1      -9.781   9.428  70.088  1.00  0.00    -0.251 SA 
BRANCH  13  14
HETATM   14  C   UNL     1     -11.285  10.193  69.398  1.00  0.00    -0.215 C  
BRANCH  14  15
HETATM   15  C   UNL     1     -10.939  11.378  68.583  1.00  0.00    -0.220 A  
HETATM   16  C   UNL     1      -9.793  12.123  68.426  1.00  0.00    -0.200 A  
HETATM   17  C   UNL     1     -10.111  13.145  67.498  1.00  0.00    -0.222 A  
HETATM   18  C   UNL     1     -11.433  12.966  67.152  1.00  0.00    -0.336 A  
HETATM   19  O   UNL     1     -11.945  11.894  67.821  1.00  0.00    -0.559 OA 
BRANCH  18  20
HETATM   20  C   UNL     1     -12.371  13.692  66.246  1.00  0.00    -0.412 C  
BRANCH  20  21
HETATM   21  N   UNL     1     -11.812  13.946  64.904  1.00  0.00    -0.368 NA 
HETATM   22  C   UNL     1     -11.748  12.716  64.108  1.00  0.00    -0.400 C  
HETATM   23  C   UNL     1     -12.645  14.934  64.212  1.00  0.00     0.025 C  
ENDBRANCH  20  21
ENDBRANCH  18  20
ENDBRANCH  14  15
ENDBRANCH  13  14
ENDBRANCH  12  13
ENDBRANCH  11  12
ENDBRANCH   9  11
ENDBRANCH   4   9
ENDBRANCH   2   4
TORSDOF 9
ENDMDL
MODEL      252
REMARK 921   NORMALIZED FREE ENERGY PREDICTED BY IDOCK:   -3.56 KCAL/MOL
REMARK 922        TOTAL FREE ENERGY PREDICTED BY IDOCK:   -5.82 KCAL/MOL
REMARK 923 INTER-LIGAND FREE ENERGY PREDICTED BY IDOCK:   -5.55 KCAL/MOL
REMARK 924 INTRA-LIGAND FREE ENERGY PREDICTED BY IDOCK:   -0.27 KCAL/MOL
REMARK 927      BINDING AFFINITY PREDICTED BY RF-SCORE:    0.00 PKD
ROOT
HETATM    1  C   UNL     1      -6.630  16.875  67.598  1.00  0.00    -0.143 C  
HETATM    2  N   UNL     1      -6.600  15.494  67.174  1.00  0.00    -0.288 NA 
HETATM    3  H   UNL     1      -6.664  15.343  66.168  1.00  0.00     0.000 HD 
ENDROOT
BRANCH   2   4
HETATM    4  C   UNL     1      -6.498  14.346  67.941  1.00  0.00    -0.164 C  
HETATM    5  C   UNL     1      -6.260  14.459  69.267  1.00  0.00    -0.110 C  
HETATM    6  O   UNL     1      -6.338  12.184  69.743  1.00  0.00    -0.134 OA 
HETATM    7  N   UNL     1      -6.156  13.334  70.165  1.00  0.00    -0.135 N  
HETATM    8  O   UNL     1      -5.888  13.618  71.341  1.00  0.00    -0.275 OA 
BRANCH   4   9
HETATM    9  N   UNL     1      -6.621  13.127  67.303  1.00  0.00    -0.427 NA 
HETATM   10  H   UNL     1      -5.761  12.583  67.237  1.00  0.00     0.000 HD 
BRANCH   9  11
HETATM   11  C   UNL     1      -7.789  12.503  66.714  1.00  0.00     0.128 C  
BRANCH  11  12
HETATM   12  C   UNL     1      -7.547  10.999  66.546  1.00  0.00    -0.146 C  
BRANCH  12  13
HETATM   13  S   UNL     1      -9.090  10.025  66.578  1.00  0.00    -0.151 SA 
BRANCH  13  14
HETATM   14  C   UNL     1      -9.470   9.992  64.795  1.00  0.00    -0.304 C  
BRANCH  14  15
HETATM   15  C   UNL     1     -10.416  11.075  64.445  1.00  0.00    -0.354 A  
HETATM   16  C   UNL     1     -10.870  11.593  63.254  1.00  0.00    -0.380 A  
HETATM   17  C   UNL     1     -11.769  12.633  63.594  1.00  0.00    -0.597 A  
HETATM   18  C   UNL     1     -11.802  12.692  64.971  1.00  0.00    -0.395 A  
HETATM   19  O   UNL     1     -10.969  11.749  65.494  1.00  0.00    -0.291 OA 
BRANCH  18  20
HETATM   20  C   UNL     1     -12.523  13.557  65.951  1.00  0.00    -0.429 C  
BRANCH  20  21
HETATM   21  N   UNL     1     -11.792  14.795  66.289  1.00  0.00    -0.272 NA 
HETATM   22  C   UNL     1     -11.601  14.925  67.737  1.00  0.00    -0.339 C  
HETATM   23  C   UNL     1     -10.488  14.785  65.621  1.00  0.00    -0.349 C  
ENDBRANCH  20  21
ENDBRANCH  18  20
ENDBRANCH  14  15
ENDBRANCH  13  14
ENDBRANCH  12  13
ENDBRANCH  11  12
ENDBRANCH   9  11
ENDBRANCH   4   9
ENDBRANCH   2   4
TORSDOF 9
ENDMDL
MODEL      253
REMARK 921   NORMALIZED FREE ENERGY PREDICTED BY IDOCK:   -3.55 KCAL/MOL
REMARK 922        TOTAL FREE ENERGY PREDICTED BY IDOCK:   -5.81 KCAL/MOL
REMARK 923 INTER-LIGAND FREE ENERGY PREDICTED BY IDOCK:   -5.17 KCAL/MOL
REMARK 924 INTRA-LIGAND FREE ENERGY PREDICTED BY IDOCK:   -0.65 KCAL/MOL
REMARK 927      BINDING AFFINITY PREDICTED BY RF-SCORE:    0.00 PKD
ROOT
HETATM    1  C   UNL     1     -11.753  12.142  63.511  1.00  0.00    -0.490 C  
HETATM    2  N   UNL     1     -10.754  11.212  63.984  1.00  0.00    -0.430 NA 
HETATM    3  H   UNL     1     -10.528  10.449  63.346  1.00  0.00     0.000 HD 
ENDROOT
BRANCH   2   4
HETATM    4  C   UNL     1     -10.059  11.209  65.182  1.00  0.00    -0.281 C  
HETATM    5  C   UNL     1     -10.748  11.114  66.342  1.00  0.00    -0.247 C  
HETATM    6  O   UNL     1      -8.894  11.088  67.746  1.00  0.00    -0.130 OA 
HETATM    7  N   UNL     1     -10.128  11.081  67.645  1.00  0.00    -0.179 N  
HETATM    8  O   UNL     1     -10.913  11.038  68.604  1.00  0.00    -0.190 OA 
BRANCH   4   9
HETATM    9  N   UNL     1      -8.684  11.331  65.135  1.00  0.00    -0.390 NA 
HETATM   10  H   UNL     1      -8.331  12.286  65.191  1.00  0.00     0.000 HD 
BRANCH   9  11
HETATM   11  C   UNL     1      -7.667  10.306  65.018  1.00  0.00    -0.129 C  
BRANCH  11  12
HETATM   12  C   UNL     1      -8.241   9.082  64.295  1.00  0.00    -0.164 C  
BRANCH  12  13
HETATM   13  S   UNL     1      -7.833   7.511  65.128  1.00  0.00    -0.128 SA 
BRANCH  13  14
HETATM   14  C   UNL     1      -7.945   8.047  66.867  1.00  0.00    -0.104 C  
BRANCH  14  15
HETATM   15  C   UNL     1      -9.161   7.494  67.504  1.00  0.00    -0.125 A  
HETATM   16  C   UNL     1     -10.232   6.766  67.038  1.00  0.00    -0.304 A  
HETATM   17  C   UNL     1     -11.076   6.549  68.154  1.00  0.00    -0.332 A  
HETATM   18  C   UNL     1     -10.473   7.165  69.230  1.00  0.00    -0.211 A  
HETATM   19  O   UNL     1      -9.308   7.752  68.835  1.00  0.00    -0.147 OA 
BRANCH  18  20
HETATM   20  C   UNL     1     -10.839   7.321  70.669  1.00  0.00    -0.242 C  
BRANCH  20  21
HETATM   21  N   UNL     1     -12.145   7.978  70.874  1.00  0.00    -0.215 NA 
HETATM   22  C   UNL     1     -13.078   7.103  71.591  1.00  0.00    -0.361 C  
HETATM   23  C   UNL     1     -11.951   9.215  71.636  1.00  0.00    -0.367 C  
ENDBRANCH  20  21
ENDBRANCH  18  20
ENDBRANCH  14  15
ENDBRANCH  13  14
ENDBRANCH  12  13
ENDBRANCH  11  12
ENDBRANCH   9  11
ENDBRANCH   4   9
ENDBRANCH   2   4
TORSDOF 9
ENDMDL
MODEL      254
REMARK 921   NORMALIZED FREE ENERGY PREDICTED BY IDOCK:   -3.55 KCAL/MOL
REMARK 922        TOTAL FREE ENERGY PREDICTED BY IDOCK:   -5.81 KCAL/MOL
REMARK 923 INTER-LIGAND FREE ENERGY PREDICTED BY IDOCK:   -5.27 KCAL/MOL
REMARK 924 INTRA-LIGAND FREE ENERGY PREDICTED BY IDOCK:   -0.53 KCAL/MOL
REMARK 927      BINDING AFFINITY PREDICTED BY RF-SCORE:    0.00 PKD
ROOT
HETATM    1  C   UNL     1      -8.290   7.154  68.840  1.00  0.00    -0.126 C  
HETATM    2  N   UNL     1      -8.389   8.104  69.924  1.00  0.00    -0.121 NA 
HETATM    3  H   UNL     1      -7.556   8.666  70.092  1.00  0.00     0.000 HD 
ENDROOT
BRANCH   2   4
HETATM    4  C   UNL     1      -9.457   8.358  70.769  1.00  0.00    -0.169 C  
HETATM    5  C   UNL     1      -9.776   7.449  71.717  1.00  0.00    -0.153 C  
HETATM    6  O   UNL     1     -11.513   8.665  72.672  1.00  0.00    -0.301 OA 
HETATM    7  N   UNL     1     -10.852   7.618  72.664  1.00  0.00    -0.309 N  
HETATM    8  O   UNL     1     -11.035   6.664  73.435  1.00  0.00    -0.254 OA 
BRANCH   4   9
HETATM    9  N   UNL     1     -10.166   9.528  70.584  1.00  0.00    -0.285 NA 
HETATM   10  H   UNL     1     -10.102  10.200  71.349  1.00  0.00     0.000 HD 
BRANCH   9  11
HETATM   11  C   UNL     1     -10.989   9.947  69.466  1.00  0.00    -0.242 C  
BRANCH  11  12
HETATM   12  C   UNL     1     -10.434  11.244  68.868  1.00  0.00    -0.206 C  
BRANCH  12  13
HETATM   13  S   UNL     1     -11.712  12.527  68.647  1.00  0.00    -0.319 SA 
BRANCH  13  14
HETATM   14  C   UNL     1     -11.879  12.485  66.832  1.00  0.00    -0.334 C  
BRANCH  14  15
HETATM   15  C   UNL     1     -11.281  13.696  66.227  1.00  0.00    -0.305 A  
HETATM   16  C   UNL     1     -11.634  14.505  65.171  1.00  0.00    -0.371 A  
HETATM   17  C   UNL     1     -10.638  15.508  65.093  1.00  0.00    -0.455 A  
HETATM   18  C   UNL     1      -9.734  15.245  66.100  1.00  0.00    -0.314 A  
HETATM   19  O   UNL     1     -10.117  14.133  66.788  1.00  0.00    -0.253 OA 
BRANCH  18  20
HETATM   20  C   UNL     1      -8.469  15.899  66.548  1.00  0.00    -0.313 C  
BRANCH  20  21
HETATM   21  N   UNL     1      -7.852  15.243  67.718  1.00  0.00    -0.136 NA 
HETATM   22  C   UNL     1      -6.411  15.049  67.526  1.00  0.00    -0.092 C  
HETATM   23  C   UNL     1      -8.082  16.064  68.910  1.00  0.00    -0.218 C  
ENDBRANCH  20  21
ENDBRANCH  18  20
ENDBRANCH  14  15
ENDBRANCH  13  14
ENDBRANCH  12  13
ENDBRANCH  11  12
ENDBRANCH   9  11
ENDBRANCH   4   9
ENDBRANCH   2   4
TORSDOF 9
ENDMDL
MODEL      255
REMARK 921   NORMALIZED FREE ENERGY PREDICTED BY IDOCK:   -3.55 KCAL/MOL
REMARK 922        TOTAL FREE ENERGY PREDICTED BY IDOCK:   -5.80 KCAL/MOL
REMARK 923 INTER-LIGAND FREE ENERGY PREDICTED BY IDOCK:   -5.74 KCAL/MOL
REMARK 924 INTRA-LIGAND FREE ENERGY PREDICTED BY IDOCK:   -0.06 KCAL/MOL
REMARK 927      BINDING AFFINITY PREDICTED BY RF-SCORE:    0.00 PKD
ROOT
HETATM    1  C   UNL     1      -8.581   8.964  64.976  1.00  0.00    -0.176 C  
HETATM    2  N   UNL     1      -9.276  10.030  64.291  1.00  0.00    -0.252 NA 
HETATM    3  H   UNL     1      -9.010  10.171  63.317  1.00  0.00     0.000 HD 
ENDROOT
BRANCH   2   4
HETATM    4  C   UNL     1     -10.252  10.887  64.771  1.00  0.00    -0.333 C  
HETATM    5  C   UNL     1     -11.031  11.555  63.892  1.00  0.00    -0.401 C  
HETATM    6  O   UNL     1     -12.364  12.615  65.475  1.00  0.00    -0.563 OA 
HETATM    7  N   UNL     1     -12.091  12.456  64.279  1.00  0.00    -0.411 N  
HETATM    8  O   UNL     1     -12.675  13.020  63.342  1.00  0.00    -0.694 OA 
BRANCH   4   9
HETATM    9  N   UNL     1     -10.365  11.039  66.139  1.00  0.00    -0.246 NA 
HETATM   10  H   UNL     1     -10.283  11.998  66.477  1.00  0.00     0.000 HD 
BRANCH   9  11
HETATM   11  C   UNL     1     -10.583  10.042  67.168  1.00  0.00    -0.232 C  
BRANCH  11  12
HETATM   12  C   UNL     1     -10.319  10.651  68.549  1.00  0.00    -0.183 C  
BRANCH  12  13
HETATM   13  S   UNL     1     -11.311   9.872  69.868  1.00  0.00    -0.190 SA 
BRANCH  13  14
HETATM   14  C   UNL     1      -9.976   9.391  71.012  1.00  0.00    -0.264 C  
BRANCH  14  15
HETATM   15  C   UNL     1     -10.276   8.087  71.643  1.00  0.00    -0.202 A  
HETATM   16  C   UNL     1     -11.267   7.646  72.491  1.00  0.00    -0.399 A  
HETATM   17  C   UNL     1     -10.993   6.280  72.741  1.00  0.00    -0.291 A  
HETATM   18  C   UNL     1      -9.848   5.972  72.038  1.00  0.00    -0.156 A  
HETATM   19  O   UNL     1      -9.401   7.076  71.375  1.00  0.00    -0.156 OA 
BRANCH  18  20
HETATM   20  C   UNL     1      -9.031   4.732  71.885  1.00  0.00    -0.127 C  
BRANCH  20  21
HETATM   21  N   UNL     1      -9.794   3.591  71.340  1.00  0.00    -0.171 NA 
HETATM   22  C   UNL     1      -9.186   3.080  70.108  1.00  0.00    -0.144 C  
HETATM   23  C   UNL     1      -9.846   2.522  72.341  1.00  0.00    -0.149 C  
ENDBRANCH  20  21
ENDBRANCH  18  20
ENDBRANCH  14  15
ENDBRANCH  13  14
ENDBRANCH  12  13
ENDBRANCH  11  12
ENDBRANCH   9  11
ENDBRANCH   4   9
ENDBRANCH   2   4
TORSDOF 9
ENDMDL
MODEL      256
REMARK 921   NORMALIZED FREE ENERGY PREDICTED BY IDOCK:   -3.54 KCAL/MOL
REMARK 922        TOTAL FREE ENERGY PREDICTED BY IDOCK:   -5.79 KCAL/MOL
REMARK 923 INTER-LIGAND FREE ENERGY PREDICTED BY IDOCK:   -5.37 KCAL/MOL
REMARK 924 INTRA-LIGAND FREE ENERGY PREDICTED BY IDOCK:   -0.42 KCAL/MOL
REMARK 927      BINDING AFFINITY PREDICTED BY RF-SCORE:    0.00 PKD
ROOT
HETATM    1  C   UNL     1     -12.153  13.692  70.732  1.00  0.00    -0.295 C  
HETATM    2  N   UNL     1     -12.375  12.376  70.176  1.00  0.00    -0.193 NA 
HETATM    3  H   UNL     1     -12.674  12.358  69.201  1.00  0.00     0.000 HD 
ENDROOT
BRANCH   2   4
HETATM    4  C   UNL     1     -12.240  11.138  70.780  1.00  0.00    -0.385 C  
HETATM    5  C   UNL     1     -13.283  10.624  71.469  1.00  0.00    -0.360 C  
HETATM    6  O   UNL     1     -12.266   8.607  72.021  1.00  0.00    -0.324 OA 
HETATM    7  N   UNL     1     -13.262   9.336  72.119  1.00  0.00    -0.430 N  
HETATM    8  O   UNL     1     -14.291   9.042  72.746  1.00  0.00    -0.596 OA 
BRANCH   4   9
HETATM    9  N   UNL     1     -11.025  10.491  70.668  1.00  0.00    -0.398 NA 
HETATM   10  H   UNL     1     -10.676  10.072  71.530  1.00  0.00     0.000 HD 
BRANCH   9  11
HETATM   11  C   UNL     1     -10.170  10.318  69.511  1.00  0.00    -0.236 C  
BRANCH  11  12
HETATM   12  C   UNL     1     -11.016   9.942  68.289  1.00  0.00    -0.196 C  
BRANCH  12  13
HETATM   13  S   UNL     1     -10.467  10.776  66.763  1.00  0.00    -0.246 SA 
BRANCH  13  14
HETATM   14  C   UNL     1      -9.800   9.344  65.853  1.00  0.00    -0.291 C  
BRANCH  14  15
HETATM   15  C   UNL     1      -8.922   8.535  66.728  1.00  0.00    -0.146 A  
HETATM   16  C   UNL     1      -7.613   8.657  67.136  1.00  0.00    -0.092 A  
HETATM   17  C   UNL     1      -7.356   7.544  67.974  1.00  0.00    -0.096 A  
HETATM   18  C   UNL     1      -8.521   6.808  68.019  1.00  0.00    -0.120 A  
HETATM   19  O   UNL     1      -9.476   7.404  67.250  1.00  0.00    -0.137 OA 
BRANCH  18  20
HETATM   20  C   UNL     1      -8.914   5.537  68.697  1.00  0.00    -0.114 C  
BRANCH  20  21
HETATM   21  N   UNL     1      -9.705   5.748  69.925  1.00  0.00    -0.157 NA 
HETATM   22  C   UNL     1      -9.169   6.853  70.725  1.00  0.00    -0.158 C  
HETATM   23  C   UNL     1     -11.095   6.036  69.561  1.00  0.00    -0.398 C  
ENDBRANCH  20  21
ENDBRANCH  18  20
ENDBRANCH  14  15
ENDBRANCH  13  14
ENDBRANCH  12  13
ENDBRANCH  11  12
ENDBRANCH   9  11
ENDBRANCH   4   9
ENDBRANCH   2   4
TORSDOF 9
ENDMDL
MODEL      257
REMARK 921   NORMALIZED FREE ENERGY PREDICTED BY IDOCK:   -3.53 KCAL/MOL
REMARK 922        TOTAL FREE ENERGY PREDICTED BY IDOCK:   -5.77 KCAL/MOL
REMARK 923 INTER-LIGAND FREE ENERGY PREDICTED BY IDOCK:   -5.22 KCAL/MOL
REMARK 924 INTRA-LIGAND FREE ENERGY PREDICTED BY IDOCK:   -0.55 KCAL/MOL
REMARK 927      BINDING AFFINITY PREDICTED BY RF-SCORE:    0.00 PKD
ROOT
HETATM    1  C   UNL     1     -11.107   6.767  67.062  1.00  0.00    -0.299 C  
HETATM    2  N   UNL     1     -10.958   5.603  66.218  1.00  0.00    -0.748 NA 
HETATM    3  H   UNL     1     -11.810   5.287  65.755  1.00  0.00     0.000 HD 
ENDROOT
BRANCH   2   4
HETATM    4  C   UNL     1      -9.824   4.857  65.950  1.00  0.00    -0.191 C  
HETATM    5  C   UNL     1      -9.931   3.747  65.186  1.00  0.00    -0.130 C  
HETATM    6  O   UNL     1      -7.667   3.215  65.177  1.00  0.00    -0.079 OA 
HETATM    7  N   UNL     1      -8.814   2.907  64.826  1.00  0.00    -0.110 N  
HETATM    8  O   UNL     1      -9.100   1.903  64.157  1.00  0.00    -0.099 OA 
BRANCH   4   9
HETATM    9  N   UNL     1      -8.628   5.273  66.504  1.00  0.00    -0.112 NA 
HETATM   10  H   UNL     1      -7.925   5.584  65.833  1.00  0.00     0.000 HD 
BRANCH   9  11
HETATM   11  C   UNL     1      -8.222   5.335  67.893  1.00  0.00    -0.099 C  
BRANCH  11  12
HETATM   12  C   UNL     1      -8.790   4.133  68.656  1.00  0.00    -0.104 C  
BRANCH  12  13
HETATM   13  S   UNL     1      -9.795   4.620  70.099  1.00  0.00    -0.236 SA 
BRANCH  13  14
HETATM   14  C   UNL     1      -9.403   6.399  70.160  1.00  0.00    -0.157 C  
BRANCH  14  15
HETATM   15  C   UNL     1     -10.299   7.097  71.108  1.00  0.00    -0.202 A  
HETATM   16  C   UNL     1     -10.510   7.001  72.465  1.00  0.00    -0.243 A  
HETATM   17  C   UNL     1     -11.516   7.947  72.776  1.00  0.00    -0.428 A  
HETATM   18  C   UNL     1     -11.863   8.557  71.590  1.00  0.00    -0.311 A  
HETATM   19  O   UNL     1     -11.130   8.033  70.567  1.00  0.00    -0.251 OA 
BRANCH  18  20
HETATM   20  C   UNL     1     -12.851   9.615  71.223  1.00  0.00    -0.350 C  
BRANCH  20  21
HETATM   21  N   UNL     1     -12.287  10.979  71.247  1.00  0.00    -0.346 NA 
HETATM   22  C   UNL     1     -12.005  11.466  69.893  1.00  0.00    -0.359 C  
HETATM   23  C   UNL     1     -13.234  11.882  71.905  1.00  0.00    -0.362 C  
ENDBRANCH  20  21
ENDBRANCH  18  20
ENDBRANCH  14  15
ENDBRANCH  13  14
ENDBRANCH  12  13
ENDBRANCH  11  12
ENDBRANCH   9  11
ENDBRANCH   4   9
ENDBRANCH   2   4
TORSDOF 9
ENDMDL
MODEL      258
REMARK 921   NORMALIZED FREE ENERGY PREDICTED BY IDOCK:   -3.52 KCAL/MOL
REMARK 922        TOTAL FREE ENERGY PREDICTED BY IDOCK:   -5.77 KCAL/MOL
REMARK 923 INTER-LIGAND FREE ENERGY PREDICTED BY IDOCK:   -5.32 KCAL/MOL
REMARK 924 INTRA-LIGAND FREE ENERGY PREDICTED BY IDOCK:   -0.44 KCAL/MOL
REMARK 927      BINDING AFFINITY PREDICTED BY RF-SCORE:    0.00 PKD
ROOT
HETATM    1  C   UNL     1     -12.283  12.948  63.268  1.00  0.00    -0.397 C  
HETATM    2  N   UNL     1     -11.627  11.673  63.451  1.00  0.00    -0.780 NA 
HETATM    3  H   UNL     1     -12.031  10.895  62.931  1.00  0.00     0.000 HD 
ENDROOT
BRANCH   2   4
HETATM    4  C   UNL     1     -10.529  11.360  64.234  1.00  0.00    -0.342 C  
HETATM    5  C   UNL     1      -9.599  10.505  63.752  1.00  0.00    -0.311 C  
HETATM    6  O   UNL     1      -8.160  10.628  65.574  1.00  0.00    -0.160 OA 
HETATM    7  N   UNL     1      -8.406  10.126  64.470  1.00  0.00    -0.161 N  
HETATM    8  O   UNL     1      -7.685   9.295  63.897  1.00  0.00    -0.109 OA 
BRANCH   4   9
HETATM    9  N   UNL     1     -10.449  11.922  65.493  1.00  0.00    -0.258 NA 
HETATM   10  H   UNL     1      -9.502  12.046  65.853  1.00  0.00     0.000 HD 
BRANCH   9  11
HETATM   11  C   UNL     1     -11.506  12.363  66.381  1.00  0.00    -0.373 C  
BRANCH  11  12
HETATM   12  C   UNL     1     -11.733  11.321  67.481  1.00  0.00    -0.082 C  
BRANCH  12  13
HETATM   13  S   UNL     1     -10.392  11.293  68.718  1.00  0.00    -0.195 SA 
BRANCH  13  14
HETATM   14  C   UNL     1     -11.353  10.848  70.202  1.00  0.00    -0.284 C  
BRANCH  14  15
HETATM   15  C   UNL     1     -11.411   9.378  70.363  1.00  0.00    -0.248 A  
HETATM   16  C   UNL     1     -12.041   8.543  71.257  1.00  0.00    -0.323 A  
HETATM   17  C   UNL     1     -11.694   7.224  70.877  1.00  0.00    -0.348 A  
HETATM   18  C   UNL     1     -10.866   7.335  69.780  1.00  0.00    -0.235 A  
HETATM   19  O   UNL     1     -10.683   8.649  69.470  1.00  0.00    -0.228 OA 
BRANCH  18  20
HETATM   20  C   UNL     1     -10.153   6.345  68.920  1.00  0.00    -0.162 C  
BRANCH  20  21
HETATM   21  N   UNL     1      -9.139   5.557  69.650  1.00  0.00    -0.126 NA 
HETATM   22  C   UNL     1      -8.534   4.536  68.789  1.00  0.00    -0.084 C  
HETATM   23  C   UNL     1      -8.097   6.456  70.151  1.00  0.00    -0.120 C  
ENDBRANCH  20  21
ENDBRANCH  18  20
ENDBRANCH  14  15
ENDBRANCH  13  14
ENDBRANCH  12  13
ENDBRANCH  11  12
ENDBRANCH   9  11
ENDBRANCH   4   9
ENDBRANCH   2   4
TORSDOF 9
ENDMDL
MODEL      259
REMARK 921   NORMALIZED FREE ENERGY PREDICTED BY IDOCK:   -3.52 KCAL/MOL
REMARK 922        TOTAL FREE ENERGY PREDICTED BY IDOCK:   -5.76 KCAL/MOL
REMARK 923 INTER-LIGAND FREE ENERGY PREDICTED BY IDOCK:   -5.31 KCAL/MOL
REMARK 924 INTRA-LIGAND FREE ENERGY PREDICTED BY IDOCK:   -0.45 KCAL/MOL
REMARK 927      BINDING AFFINITY PREDICTED BY RF-SCORE:    0.00 PKD
ROOT
HETATM    1  C   UNL     1     -11.959  10.556  69.645  1.00  0.00    -0.208 C  
HETATM    2  N   UNL     1     -11.879  10.686  68.208  1.00  0.00    -0.786 NA 
HETATM    3  H   UNL     1     -12.772  10.681  67.718  1.00  0.00     0.000 HD 
ENDROOT
BRANCH   2   4
HETATM    4  C   UNL     1     -10.759  10.816  67.403  1.00  0.00    -0.268 C  
HETATM    5  C   UNL     1     -10.900  10.732  66.062  1.00  0.00    -0.032 C  
HETATM    6  O   UNL     1      -8.671  11.137  65.538  1.00  0.00    -0.176 OA 
HETATM    7  N   UNL     1      -9.809  10.874  65.128  1.00  0.00    -0.254 N  
HETATM    8  O   UNL     1     -10.110  10.722  63.935  1.00  0.00    -0.314 OA 
BRANCH   4   9
HETATM    9  N   UNL     1      -9.537  11.002  68.019  1.00  0.00    -0.165 NA 
HETATM   10  H   UNL     1      -9.027  10.146  68.237  1.00  0.00     0.000 HD 
BRANCH   9  11
HETATM   11  C   UNL     1      -8.869  12.230  68.401  1.00  0.00    -0.137 C  
BRANCH  11  12
HETATM   12  C   UNL     1      -9.809  13.422  68.191  1.00  0.00    -0.234 C  
BRANCH  12  13
HETATM   13  S   UNL     1      -9.244  14.548  66.871  1.00  0.00    -0.260 SA 
BRANCH  13  14
HETATM   14  C   UNL     1      -7.461  14.595  67.251  1.00  0.00    -0.117 C  
BRANCH  14  15
HETATM   15  C   UNL     1      -7.119  15.833  67.987  1.00  0.00    -0.123 A  
HETATM   16  C   UNL     1      -6.323  16.102  69.077  1.00  0.00    -0.148 A  
HETATM   17  C   UNL     1      -6.418  17.497  69.300  1.00  0.00    -0.243 A  
HETATM   18  C   UNL     1      -7.272  17.992  68.338  1.00  0.00    -0.254 A  
HETATM   19  O   UNL     1      -7.711  16.977  67.541  1.00  0.00    -0.164 OA 
BRANCH  18  20
HETATM   20  C   UNL     1      -7.799  19.354  68.027  1.00  0.00    -0.302 C  
BRANCH  20  21
HETATM   21  N   UNL     1      -9.247  19.372  67.741  1.00  0.00    -0.310 NA 
HETATM   22  C   UNL     1     -10.033  19.041  68.934  1.00  0.00    -0.398 C  
HETATM   23  C   UNL     1      -9.628  20.702  67.257  1.00  0.00    -0.417 C  
ENDBRANCH  20  21
ENDBRANCH  18  20
ENDBRANCH  14  15
ENDBRANCH  13  14
ENDBRANCH  12  13
ENDBRANCH  11  12
ENDBRANCH   9  11
ENDBRANCH   4   9
ENDBRANCH   2   4
TORSDOF 9
ENDMDL
MODEL      260
REMARK 921   NORMALIZED FREE ENERGY PREDICTED BY IDOCK:   -3.51 KCAL/MOL
REMARK 922        TOTAL FREE ENERGY PREDICTED BY IDOCK:   -5.75 KCAL/MOL
REMARK 923 INTER-LIGAND FREE ENERGY PREDICTED BY IDOCK:   -5.51 KCAL/MOL
REMARK 924 INTRA-LIGAND FREE ENERGY PREDICTED BY IDOCK:   -0.24 KCAL/MOL
REMARK 927      BINDING AFFINITY PREDICTED BY RF-SCORE:    0.00 PKD
ROOT
HETATM    1  C   UNL     1      -9.836   3.921  63.224  1.00  0.00    -0.155 C  
HETATM    2  N   UNL     1      -9.424   4.854  64.248  1.00  0.00    -0.354 NA 
HETATM    3  H   UNL     1      -8.894   5.660  63.918  1.00  0.00     0.000 HD 
ENDROOT
BRANCH   2   4
HETATM    4  C   UNL     1      -9.648   4.808  65.614  1.00  0.00    -0.174 C  
HETATM    5  C   UNL     1      -9.404   3.659  66.283  1.00  0.00    -0.178 C  
HETATM    6  O   UNL     1      -9.927   4.470  68.398  1.00  0.00    -0.123 OA 
HETATM    7  N   UNL     1      -9.580   3.504  67.706  1.00  0.00    -0.172 N  
HETATM    8  O   UNL     1      -9.353   2.367  68.147  1.00  0.00    -0.191 OA 
BRANCH   4   9
HETATM    9  N   UNL     1     -10.139   5.943  66.229  1.00  0.00    -0.377 NA 
HETATM   10  H   UNL     1     -11.094   5.868  66.580  1.00  0.00     0.000 HD 
BRANCH   9  11
HETATM   11  C   UNL     1      -9.502   7.226  66.452  1.00  0.00    -0.127 C  
BRANCH  11  12
HETATM   12  C   UNL     1     -10.491   8.190  67.116  1.00  0.00    -0.326 C  
BRANCH  12  13
HETATM   13  S   UNL     1     -10.035   9.942  66.886  1.00  0.00    -0.224 SA 
BRANCH  13  14
HETATM   14  C   UNL     1     -10.823  10.661  68.364  1.00  0.00    -0.237 C  
BRANCH  14  15
HETATM   15  C   UNL     1     -10.411   9.928  69.582  1.00  0.00    -0.249 A  
HETATM   16  C   UNL     1      -9.191   9.598  70.127  1.00  0.00    -0.287 A  
HETATM   17  C   UNL     1      -9.471   8.877  71.313  1.00  0.00    -0.343 A  
HETATM   18  C   UNL     1     -10.843   8.803  71.414  1.00  0.00    -0.289 A  
HETATM   19  O   UNL     1     -11.421   9.434  70.354  1.00  0.00    -0.256 OA 
BRANCH  18  20
HETATM   20  C   UNL     1     -11.774   8.180  72.402  1.00  0.00    -0.399 C  
BRANCH  20  21
HETATM   21  N   UNL     1     -12.487   7.000  71.874  1.00  0.00    -0.329 NA 
HETATM   22  C   UNL     1     -13.859   7.336  71.480  1.00  0.00    -0.350 C  
HETATM   23  C   UNL     1     -11.760   6.474  70.715  1.00  0.00    -0.366 C  
ENDBRANCH  20  21
ENDBRANCH  18  20
ENDBRANCH  14  15
ENDBRANCH  13  14
ENDBRANCH  12  13
ENDBRANCH  11  12
ENDBRANCH   9  11
ENDBRANCH   4   9
ENDBRANCH   2   4
TORSDOF 9
ENDMDL
MODEL      261
REMARK 921   NORMALIZED FREE ENERGY PREDICTED BY IDOCK:   -3.51 KCAL/MOL
REMARK 922        TOTAL FREE ENERGY PREDICTED BY IDOCK:   -5.75 KCAL/MOL
REMARK 923 INTER-LIGAND FREE ENERGY PREDICTED BY IDOCK:   -5.22 KCAL/MOL
REMARK 924 INTRA-LIGAND FREE ENERGY PREDICTED BY IDOCK:   -0.53 KCAL/MOL
REMARK 927      BINDING AFFINITY PREDICTED BY RF-SCORE:    0.00 PKD
ROOT
HETATM    1  C   UNL     1     -10.257  18.033  67.346  1.00  0.00    -0.363 C  
HETATM    2  N   UNL     1     -10.528  16.618  67.465  1.00  0.00    -0.312 NA 
HETATM    3  H   UNL     1     -10.508  16.093  66.591  1.00  0.00     0.000 HD 
ENDROOT
BRANCH   2   4
HETATM    4  C   UNL     1     -10.811  15.875  68.599  1.00  0.00    -0.291 C  
HETATM    5  C   UNL     1     -11.962  16.108  69.268  1.00  0.00    -0.079 C  
HETATM    6  O   UNL     1     -11.675  14.448  70.871  1.00  0.00    -0.295 OA 
HETATM    7  N   UNL     1     -12.370  15.380  70.446  1.00  0.00    -0.379 N  
HETATM    8  O   UNL     1     -13.434  15.757  70.959  1.00  0.00    -0.581 OA 
BRANCH   4   9
HETATM    9  N   UNL     1      -9.882  14.939  69.009  1.00  0.00    -0.224 NA 
HETATM   10  H   UNL     1      -9.478  15.105  69.931  1.00  0.00     0.000 HD 
BRANCH   9  11
HETATM   11  C   UNL     1      -9.394  13.757  68.328  1.00  0.00    -0.209 C  
BRANCH  11  12
HETATM   12  C   UNL     1     -10.506  12.704  68.251  1.00  0.00    -0.239 C  
BRANCH  12  13
HETATM   13  S   UNL     1     -11.421  12.753  66.674  1.00  0.00    -0.369 SA 
BRANCH  13  14
HETATM   14  C   UNL     1     -11.145  11.043  66.105  1.00  0.00    -0.012 C  
BRANCH  14  15
HETATM   15  C   UNL     1     -10.308  11.029  64.885  1.00  0.00    -0.313 A  
HETATM   16  C   UNL     1     -10.450  11.570  63.628  1.00  0.00    -0.483 A  
HETATM   17  C   UNL     1      -9.295  11.190  62.902  1.00  0.00    -0.385 A  
HETATM   18  C   UNL     1      -8.523  10.434  63.757  1.00  0.00    -0.162 A  
HETATM   19  O   UNL     1      -9.144  10.324  64.966  1.00  0.00    -0.176 OA 
BRANCH  18  20
HETATM   20  C   UNL     1      -7.214   9.731  63.618  1.00  0.00    -0.119 C  
BRANCH  20  21
HETATM   21  N   UNL     1      -7.194   8.738  62.526  1.00  0.00    -0.097 NA 
HETATM   22  C   UNL     1      -5.892   8.069  62.433  1.00  0.00    -0.070 C  
HETATM   23  C   UNL     1      -8.242   7.741  62.759  1.00  0.00    -0.063 C  
ENDBRANCH  20  21
ENDBRANCH  18  20
ENDBRANCH  14  15
ENDBRANCH  13  14
ENDBRANCH  12  13
ENDBRANCH  11  12
ENDBRANCH   9  11
ENDBRANCH   4   9
ENDBRANCH   2   4
TORSDOF 9
ENDMDL
MODEL      262
REMARK 921   NORMALIZED FREE ENERGY PREDICTED BY IDOCK:   -3.49 KCAL/MOL
REMARK 922        TOTAL FREE ENERGY PREDICTED BY IDOCK:   -5.71 KCAL/MOL
REMARK 923 INTER-LIGAND FREE ENERGY PREDICTED BY IDOCK:   -4.82 KCAL/MOL
REMARK 924 INTRA-LIGAND FREE ENERGY PREDICTED BY IDOCK:   -0.89 KCAL/MOL
REMARK 927      BINDING AFFINITY PREDICTED BY RF-SCORE:    0.00 PKD
ROOT
HETATM    1  C   UNL     1     -11.237  12.423  63.345  1.00  0.00    -0.422 C  
HETATM    2  N   UNL     1     -11.135  11.379  64.339  1.00  0.00    -0.303 NA 
HETATM    3  H   UNL     1     -11.689  10.543  64.155  1.00  0.00     0.000 HD 
ENDROOT
BRANCH   2   4
HETATM    4  C   UNL     1     -10.393  11.355  65.508  1.00  0.00    -0.266 C  
HETATM    5  C   UNL     1      -9.474  10.379  65.683  1.00  0.00    -0.211 C  
HETATM    6  O   UNL     1      -8.688  11.127  67.740  1.00  0.00    -0.128 OA 
HETATM    7  N   UNL     1      -8.631  10.269  66.849  1.00  0.00    -0.126 N  
HETATM    8  O   UNL     1      -7.876   9.286  66.866  1.00  0.00    -0.097 OA 
BRANCH   4   9
HETATM    9  N   UNL     1     -10.648  12.325  66.458  1.00  0.00    -0.230 NA 
HETATM   10  H   UNL     1      -9.822  12.706  66.920  1.00  0.00     0.000 HD 
BRANCH   9  11
HETATM   11  C   UNL     1     -11.911  12.882  66.898  1.00  0.00    -0.379 C  
BRANCH  11  12
HETATM   12  C   UNL     1     -11.777  14.399  67.075  1.00  0.00    -0.399 C  
BRANCH  12  13
HETATM   13  S   UNL     1     -10.693  15.166  65.824  1.00  0.00    -0.370 SA 
BRANCH  13  14
HETATM   14  C   UNL     1     -10.133  16.628  66.759  1.00  0.00    -0.291 C  
BRANCH  14  15
HETATM   15  C   UNL     1      -8.656  16.715  66.753  1.00  0.00    -0.236 A  
HETATM   16  C   UNL     1      -7.756  17.576  66.168  1.00  0.00    -0.304 A  
HETATM   17  C   UNL     1      -6.470  17.115  66.541  1.00  0.00    -0.268 A  
HETATM   18  C   UNL     1      -6.663  15.997  67.324  1.00  0.00    -0.197 A  
HETATM   19  O   UNL     1      -7.997  15.743  67.447  1.00  0.00    -0.141 OA 
BRANCH  18  20
HETATM   20  C   UNL     1      -5.741  15.047  68.013  1.00  0.00    -0.139 C  
BRANCH  20  21
HETATM   21  N   UNL     1      -6.306  13.692  68.171  1.00  0.00    -0.107 NA 
HETATM   22  C   UNL     1      -5.487  12.687  67.485  1.00  0.00    -0.110 C  
HETATM   23  C   UNL     1      -6.389  13.366  69.597  1.00  0.00    -0.093 C  
ENDBRANCH  20  21
ENDBRANCH  18  20
ENDBRANCH  14  15
ENDBRANCH  13  14
ENDBRANCH  12  13
ENDBRANCH  11  12
ENDBRANCH   9  11
ENDBRANCH   4   9
ENDBRANCH   2   4
TORSDOF 9
ENDMDL
MODEL      263
REMARK 921   NORMALIZED FREE ENERGY PREDICTED BY IDOCK:   -3.48 KCAL/MOL
REMARK 922        TOTAL FREE ENERGY PREDICTED BY IDOCK:   -5.70 KCAL/MOL
REMARK 923 INTER-LIGAND FREE ENERGY PREDICTED BY IDOCK:   -4.92 KCAL/MOL
REMARK 924 INTRA-LIGAND FREE ENERGY PREDICTED BY IDOCK:   -0.78 KCAL/MOL
REMARK 927      BINDING AFFINITY PREDICTED BY RF-SCORE:    0.00 PKD
ROOT
HETATM    1  C   UNL     1     -10.976  16.453  69.672  1.00  0.00    -0.329 C  
HETATM    2  N   UNL     1     -10.387  16.289  68.363  1.00  0.00    -0.259 NA 
HETATM    3  H   UNL     1     -10.319  17.139  67.804  1.00  0.00     0.000 HD 
ENDROOT
BRANCH   2   4
HETATM    4  C   UNL     1      -9.902  15.141  67.760  1.00  0.00    -0.223 C  
HETATM    5  C   UNL     1      -8.657  14.712  68.064  1.00  0.00    -0.162 C  
HETATM    6  O   UNL     1      -8.712  12.793  66.752  1.00  0.00    -0.197 OA 
HETATM    7  N   UNL     1      -8.060  13.519  67.513  1.00  0.00    -0.174 N  
HETATM    8  O   UNL     1      -6.892  13.300  67.867  1.00  0.00    -0.105 OA 
BRANCH   4   9
HETATM    9  N   UNL     1     -10.715  14.496  66.847  1.00  0.00    -0.284 NA 
HETATM   10  H   UNL     1     -10.402  14.544  65.878  1.00  0.00     0.000 HD 
BRANCH   9  11
HETATM   11  C   UNL     1     -11.946  13.761  67.059  1.00  0.00    -0.413 C  
BRANCH  11  12
HETATM   12  C   UNL     1     -11.942  13.131  68.457  1.00  0.00    -0.289 C  
BRANCH  12  13
HETATM   13  S   UNL     1     -11.563  11.347  68.430  1.00  0.00    -0.309 SA 
BRANCH  13  14
HETATM   14  C   UNL     1     -12.055  10.902  70.128  1.00  0.00    -0.349 C  
BRANCH  14  15
HETATM   15  C   UNL     1     -11.239   9.774  70.627  1.00  0.00    -0.334 A  
HETATM   16  C   UNL     1     -11.323   8.955  71.731  1.00  0.00    -0.431 A  
HETATM   17  C   UNL     1     -10.226   8.063  71.643  1.00  0.00    -0.256 A  
HETATM   18  C   UNL     1      -9.536   8.398  70.498  1.00  0.00    -0.170 A  
HETATM   19  O   UNL     1     -10.146   9.449  69.880  1.00  0.00    -0.191 OA 
BRANCH  18  20
HETATM   20  C   UNL     1      -8.302   7.871  69.844  1.00  0.00    -0.122 C  
BRANCH  20  21
HETATM   21  N   UNL     1      -8.304   8.023  68.376  1.00  0.00    -0.126 NA 
HETATM   22  C   UNL     1      -7.004   8.490  67.884  1.00  0.00    -0.074 C  
HETATM   23  C   UNL     1      -8.628   6.735  67.757  1.00  0.00    -0.121 C  
ENDBRANCH  20  21
ENDBRANCH  18  20
ENDBRANCH  14  15
ENDBRANCH  13  14
ENDBRANCH  12  13
ENDBRANCH  11  12
ENDBRANCH   9  11
ENDBRANCH   4   9
ENDBRANCH   2   4
TORSDOF 9
ENDMDL
MODEL      264
REMARK 921   NORMALIZED FREE ENERGY PREDICTED BY IDOCK:   -3.47 KCAL/MOL
REMARK 922        TOTAL FREE ENERGY PREDICTED BY IDOCK:   -5.68 KCAL/MOL
REMARK 923 INTER-LIGAND FREE ENERGY PREDICTED BY IDOCK:   -5.13 KCAL/MOL
REMARK 924 INTRA-LIGAND FREE ENERGY PREDICTED BY IDOCK:   -0.55 KCAL/MOL
REMARK 927      BINDING AFFINITY PREDICTED BY RF-SCORE:    0.00 PKD
ROOT
HETATM    1  C   UNL     1     -11.853  14.606  69.788  1.00  0.00    -0.316 C  
HETATM    2  N   UNL     1     -12.254  14.396  68.415  1.00  0.00    -0.605 NA 
HETATM    3  H   UNL     1     -13.256  14.284  68.264  1.00  0.00     0.000 HD 
ENDROOT
BRANCH   2   4
HETATM    4  C   UNL     1     -11.470  14.326  67.276  1.00  0.00    -0.352 C  
HETATM    5  C   UNL     1     -11.523  15.333  66.377  1.00  0.00    -0.087 C  
HETATM    6  O   UNL     1      -9.916  14.479  64.930  1.00  0.00    -0.307 OA 
HETATM    7  N   UNL     1     -10.735  15.376  65.169  1.00  0.00    -0.414 N  
HETATM    8  O   UNL     1     -10.944  16.353  64.434  1.00  0.00    -0.798 OA 
BRANCH   4   9
HETATM    9  N   UNL     1     -10.681  13.205  67.101  1.00  0.00    -0.254 NA 
HETATM   10  H   UNL     1     -10.891  12.654  66.268  1.00  0.00     0.000 HD 
BRANCH   9  11
HETATM   11  C   UNL     1      -9.601  12.694  67.920  1.00  0.00    -0.211 C  
BRANCH  11  12
HETATM   12  C   UNL     1     -10.048  11.411  68.630  1.00  0.00    -0.210 C  
BRANCH  12  13
HETATM   13  S   UNL     1     -10.708  10.158  67.479  1.00  0.00    -0.283 SA 
BRANCH  13  14
HETATM   14  C   UNL     1      -9.177   9.718  66.593  1.00  0.00    -0.150 C  
BRANCH  14  15
HETATM   15  C   UNL     1      -8.287   8.913  67.459  1.00  0.00    -0.109 A  
HETATM   16  C   UNL     1      -6.920   8.799  67.574  1.00  0.00    -0.075 A  
HETATM   17  C   UNL     1      -6.689   7.846  68.595  1.00  0.00    -0.058 A  
HETATM   18  C   UNL     1      -7.927   7.430  69.034  1.00  0.00    -0.122 A  
HETATM   19  O   UNL     1      -8.906   8.072  68.336  1.00  0.00    -0.134 OA 
BRANCH  18  20
HETATM   20  C   UNL     1      -8.382   6.449  70.063  1.00  0.00    -0.130 C  
BRANCH  20  21
HETATM   21  N   UNL     1      -9.299   5.421  69.529  1.00  0.00    -0.119 NA 
HETATM   22  C   UNL     1      -8.841   4.069  69.864  1.00  0.00    -0.084 C  
HETATM   23  C   UNL     1     -10.639   5.636  70.081  1.00  0.00    -0.309 C  
ENDBRANCH  20  21
ENDBRANCH  18  20
ENDBRANCH  14  15
ENDBRANCH  13  14
ENDBRANCH  12  13
ENDBRANCH  11  12
ENDBRANCH   9  11
ENDBRANCH   4   9
ENDBRANCH   2   4
TORSDOF 9
ENDMDL
MODEL      265
REMARK 921   NORMALIZED FREE ENERGY PREDICTED BY IDOCK:   -3.47 KCAL/MOL
REMARK 922        TOTAL FREE ENERGY PREDICTED BY IDOCK:   -5.68 KCAL/MOL
REMARK 923 INTER-LIGAND FREE ENERGY PREDICTED BY IDOCK:   -5.14 KCAL/MOL
REMARK 924 INTRA-LIGAND FREE ENERGY PREDICTED BY IDOCK:   -0.54 KCAL/MOL
REMARK 927      BINDING AFFINITY PREDICTED BY RF-SCORE:    0.00 PKD
ROOT
HETATM    1  C   UNL     1      -7.453  10.163  65.091  1.00  0.00    -0.141 C  
HETATM    2  N   UNL     1      -7.273   9.141  66.097  1.00  0.00    -0.089 NA 
HETATM    3  H   UNL     1      -6.615   9.371  66.841  1.00  0.00     0.000 HD 
ENDROOT
BRANCH   2   4
HETATM    4  C   UNL     1      -7.868   7.895  66.192  1.00  0.00    -0.094 C  
HETATM    5  C   UNL     1      -7.878   7.085  65.110  1.00  0.00    -0.124 C  
HETATM    6  O   UNL     1      -8.924   5.282  66.140  1.00  0.00    -0.130 OA 
HETATM    7  N   UNL     1      -8.449   5.760  65.101  1.00  0.00    -0.149 N  
HETATM    8  O   UNL     1      -8.412   5.174  64.009  1.00  0.00    -0.134 OA 
BRANCH   4   9
HETATM    9  N   UNL     1      -8.451   7.545  67.395  1.00  0.00    -0.115 NA 
HETATM   10  H   UNL     1      -9.417   7.223  67.330  1.00  0.00     0.000 HD 
BRANCH   9  11
HETATM   11  C   UNL     1      -7.899   7.567  68.734  1.00  0.00    -0.121 C  
BRANCH  11  12
HETATM   12  C   UNL     1      -8.533   8.704  69.541  1.00  0.00    -0.129 C  
BRANCH  12  13
HETATM   13  S   UNL     1     -10.255   9.050  69.047  1.00  0.00    -0.208 SA 
BRANCH  13  14
HETATM   14  C   UNL     1     -11.102   8.709  70.625  1.00  0.00    -0.249 C  
BRANCH  14  15
HETATM   15  C   UNL     1     -11.916   9.872  71.040  1.00  0.00    -0.365 A  
HETATM   16  C   UNL     1     -12.994  10.026  71.882  1.00  0.00    -0.547 A  
HETATM   17  C   UNL     1     -13.324  11.403  71.851  1.00  0.00    -0.409 A  
HETATM   18  C   UNL     1     -12.434  12.003  70.987  1.00  0.00    -0.276 A  
HETATM   19  O   UNL     1     -11.579  11.069  70.481  1.00  0.00    -0.314 OA 
BRANCH  18  20
HETATM   20  C   UNL     1     -12.245  13.403  70.506  1.00  0.00    -0.352 C  
BRANCH  20  21
HETATM   21  N   UNL     1     -12.569  14.422  71.524  1.00  0.00    -0.332 NA 
HETATM   22  C   UNL     1     -11.444  15.338  71.742  1.00  0.00    -0.421 C  
HETATM   23  C   UNL     1     -13.743  15.183  71.091  1.00  0.00    -0.437 C  
ENDBRANCH  20  21
ENDBRANCH  18  20
ENDBRANCH  14  15
ENDBRANCH  13  14
ENDBRANCH  12  13
ENDBRANCH  11  12
ENDBRANCH   9  11
ENDBRANCH   4   9
ENDBRANCH   2   4
TORSDOF 9
ENDMDL
MODEL      266
REMARK 921   NORMALIZED FREE ENERGY PREDICTED BY IDOCK:   -3.46 KCAL/MOL
REMARK 922        TOTAL FREE ENERGY PREDICTED BY IDOCK:   -5.67 KCAL/MOL
REMARK 923 INTER-LIGAND FREE ENERGY PREDICTED BY IDOCK:   -4.99 KCAL/MOL
REMARK 924 INTRA-LIGAND FREE ENERGY PREDICTED BY IDOCK:   -0.68 KCAL/MOL
REMARK 927      BINDING AFFINITY PREDICTED BY RF-SCORE:    0.00 PKD
ROOT
HETATM    1  C   UNL     1      -9.314   4.057  66.967  1.00  0.00    -0.183 C  
HETATM    2  N   UNL     1      -8.909   5.301  67.581  1.00  0.00    -0.106 NA 
HETATM    3  H   UNL     1      -8.485   5.216  68.504  1.00  0.00     0.000 HD 
ENDROOT
BRANCH   2   4
HETATM    4  C   UNL     1      -9.016   6.592  67.092  1.00  0.00    -0.118 C  
HETATM    5  C   UNL     1      -8.496   6.882  65.878  1.00  0.00    -0.144 C  
HETATM    6  O   UNL     1      -9.178   9.105  65.825  1.00  0.00    -0.201 OA 
HETATM    7  N   UNL     1      -8.569   8.185  65.263  1.00  0.00    -0.142 N  
HETATM    8  O   UNL     1      -7.998   8.286  64.166  1.00  0.00    -0.139 OA 
BRANCH   4   9
HETATM    9  N   UNL     1      -9.635   7.537  67.888  1.00  0.00    -0.141 NA 
HETATM   10  H   UNL     1      -9.369   8.504  67.698  1.00  0.00     0.000 HD 
BRANCH   9  11
HETATM   11  C   UNL     1     -10.604   7.363  68.951  1.00  0.00    -0.176 C  
BRANCH  11  12
HETATM   12  C   UNL     1      -9.966   7.713  70.300  1.00  0.00    -0.189 C  
BRANCH  12  13
HETATM   13  S   UNL     1      -9.474   9.466  70.418  1.00  0.00    -0.271 SA 
BRANCH  13  14
HETATM   14  C   UNL     1     -11.122  10.246  70.437  1.00  0.00    -0.319 C  
BRANCH  14  15
HETATM   15  C   UNL     1     -11.307  11.099  69.242  1.00  0.00    -0.281 A  
HETATM   16  C   UNL     1     -11.332  10.849  67.889  1.00  0.00    -0.380 A  
HETATM   17  C   UNL     1     -11.545  12.100  67.261  1.00  0.00    -0.404 A  
HETATM   18  C   UNL     1     -11.629  13.038  68.268  1.00  0.00    -0.340 A  
HETATM   19  O   UNL     1     -11.473  12.432  69.479  1.00  0.00    -0.271 OA 
BRANCH  18  20
HETATM   20  C   UNL     1     -11.828  14.517  68.287  1.00  0.00    -0.312 C  
BRANCH  20  21
HETATM   21  N   UNL     1     -10.576  15.280  68.117  1.00  0.00    -0.249 NA 
HETATM   22  C   UNL     1     -10.209  15.399  66.702  1.00  0.00    -0.277 C  
HETATM   23  C   UNL     1     -10.742  16.617  68.694  1.00  0.00    -0.349 C  
ENDBRANCH  20  21
ENDBRANCH  18  20
ENDBRANCH  14  15
ENDBRANCH  13  14
ENDBRANCH  12  13
ENDBRANCH  11  12
ENDBRANCH   9  11
ENDBRANCH   4   9
ENDBRANCH   2   4
TORSDOF 9
ENDMDL
MODEL      267
REMARK 921   NORMALIZED FREE ENERGY PREDICTED BY IDOCK:   -3.46 KCAL/MOL
REMARK 922        TOTAL FREE ENERGY PREDICTED BY IDOCK:   -5.67 KCAL/MOL
REMARK 923 INTER-LIGAND FREE ENERGY PREDICTED BY IDOCK:   -5.70 KCAL/MOL
REMARK 924 INTRA-LIGAND FREE ENERGY PREDICTED BY IDOCK:    0.04 KCAL/MOL
REMARK 927      BINDING AFFINITY PREDICTED BY RF-SCORE:    0.00 PKD
ROOT
HETATM    1  C   UNL     1     -13.000  13.687  71.670  1.00  0.00    -0.362 C  
HETATM    2  N   UNL     1     -13.179  14.282  70.365  1.00  0.00    -0.365 NA 
HETATM    3  H   UNL     1     -14.144  14.479  70.103  1.00  0.00     0.000 HD 
ENDROOT
BRANCH   2   4
HETATM    4  C   UNL     1     -12.225  14.621  69.421  1.00  0.00    -0.235 C  
HETATM    5  C   UNL     1     -11.771  15.894  69.372  1.00  0.00    -0.343 C  
HETATM    6  O   UNL     1     -10.225  15.555  67.668  1.00  0.00    -0.248 OA 
HETATM    7  N   UNL     1     -10.764  16.353  68.446  1.00  0.00    -0.310 N  
HETATM    8  O   UNL     1     -10.500  17.563  68.508  1.00  0.00    -0.362 OA 
BRANCH   4   9
HETATM    9  N   UNL     1     -11.797  13.638  68.550  1.00  0.00    -0.356 NA 
HETATM   10  H   UNL     1     -12.345  13.549  67.694  1.00  0.00     0.000 HD 
BRANCH   9  11
HETATM   11  C   UNL     1     -10.687  12.714  68.668  1.00  0.00    -0.242 C  
BRANCH  11  12
HETATM   12  C   UNL     1     -11.169  11.396  69.282  1.00  0.00    -0.277 C  
BRANCH  12  13
HETATM   13  S   UNL     1     -11.254  10.037  68.067  1.00  0.00     0.011 SA 
BRANCH  13  14
HETATM   14  C   UNL     1      -9.474   9.728  67.828  1.00  0.00    -0.133 C  
BRANCH  14  15
HETATM   15  C   UNL     1      -9.072  10.044  66.439  1.00  0.00    -0.149 A  
HETATM   16  C   UNL     1      -7.877   9.993  65.760  1.00  0.00    -0.128 A  
HETATM   17  C   UNL     1      -8.153  10.435  64.443  1.00  0.00    -0.107 A  
HETATM   18  C   UNL     1      -9.497  10.736  64.402  1.00  0.00    -0.256 A  
HETATM   19  O   UNL     1     -10.060  10.509  65.623  1.00  0.00    -0.250 OA 
BRANCH  18  20
HETATM   20  C   UNL     1     -10.408  11.256  63.339  1.00  0.00    -0.391 C  
BRANCH  20  21
HETATM   21  N   UNL     1     -11.088  12.512  63.711  1.00  0.00    -0.415 NA 
HETATM   22  C   UNL     1     -12.475  12.268  64.121  1.00  0.00    -0.434 C  
HETATM   23  C   UNL     1     -10.357  13.152  64.808  1.00  0.00    -0.350 C  
ENDBRANCH  20  21
ENDBRANCH  18  20
ENDBRANCH  14  15
ENDBRANCH  13  14
ENDBRANCH  12  13
ENDBRANCH  11  12
ENDBRANCH   9  11
ENDBRANCH   4   9
ENDBRANCH   2   4
TORSDOF 9
ENDMDL
MODEL      268
REMARK 921   NORMALIZED FREE ENERGY PREDICTED BY IDOCK:   -3.46 KCAL/MOL
REMARK 922        TOTAL FREE ENERGY PREDICTED BY IDOCK:   -5.66 KCAL/MOL
REMARK 923 INTER-LIGAND FREE ENERGY PREDICTED BY IDOCK:   -4.96 KCAL/MOL
REMARK 924 INTRA-LIGAND FREE ENERGY PREDICTED BY IDOCK:   -0.70 KCAL/MOL
REMARK 927      BINDING AFFINITY PREDICTED BY RF-SCORE:    0.00 PKD
ROOT
HETATM    1  C   UNL     1     -12.460  12.592  63.633  1.00  0.00    -0.427 C  
HETATM    2  N   UNL     1     -11.758  11.982  64.739  1.00  0.00    -0.310 NA 
HETATM    3  H   UNL     1     -11.758  10.962  64.748  1.00  0.00     0.000 HD 
ENDROOT
BRANCH   2   4
HETATM    4  C   UNL     1     -11.086  12.586  65.788  1.00  0.00    -0.308 C  
HETATM    5  C   UNL     1     -11.798  13.189  66.766  1.00  0.00    -0.385 C  
HETATM    6  O   UNL     1      -9.977  13.804  68.075  1.00  0.00    -0.231 OA 
HETATM    7  N   UNL     1     -11.204  13.829  67.915  1.00  0.00    -0.263 N  
HETATM    8  O   UNL     1     -12.005  14.373  68.690  1.00  0.00    -0.326 OA 
BRANCH   4   9
HETATM    9  N   UNL     1      -9.705  12.564  65.771  1.00  0.00    -0.369 NA 
HETATM   10  H   UNL     1      -9.255  13.467  65.927  1.00  0.00     0.000 HD 
BRANCH   9  11
HETATM   11  C   UNL     1      -8.797  11.453  65.564  1.00  0.00    -0.030 C  
BRANCH  11  12
HETATM   12  C   UNL     1      -9.215  10.269  66.443  1.00  0.00    -0.158 C  
BRANCH  12  13
HETATM   13  S   UNL     1      -8.426  10.296  68.089  1.00  0.00    -0.125 SA 
BRANCH  13  14
HETATM   14  C   UNL     1      -9.884  10.654  69.122  1.00  0.00    -0.200 C  
BRANCH  14  15
HETATM   15  C   UNL     1     -10.138   9.543  70.067  1.00  0.00    -0.242 A  
HETATM   16  C   UNL     1     -10.859   9.433  71.234  1.00  0.00    -0.431 A  
HETATM   17  C   UNL     1     -10.701   8.095  71.670  1.00  0.00    -0.299 A  
HETATM   18  C   UNL     1      -9.887   7.474  70.748  1.00  0.00    -0.178 A  
HETATM   19  O   UNL     1      -9.532   8.358  69.773  1.00  0.00    -0.161 OA 
BRANCH  18  20
HETATM   20  C   UNL     1      -9.330   6.094  70.626  1.00  0.00    -0.165 C  
BRANCH  20  21
HETATM   21  N   UNL     1      -8.876   5.763  69.261  1.00  0.00    -0.116 NA 
HETATM   22  C   UNL     1      -7.413   5.791  69.161  1.00  0.00    -0.084 C  
HETATM   23  C   UNL     1      -9.366   4.431  68.897  1.00  0.00    -0.153 C  
ENDBRANCH  20  21
ENDBRANCH  18  20
ENDBRANCH  14  15
ENDBRANCH  13  14
ENDBRANCH  12  13
ENDBRANCH  11  12
ENDBRANCH   9  11
ENDBRANCH   4   9
ENDBRANCH   2   4
TORSDOF 9
ENDMDL
MODEL      269
REMARK 921   NORMALIZED FREE ENERGY PREDICTED BY IDOCK:   -3.45 KCAL/MOL
REMARK 922        TOTAL FREE ENERGY PREDICTED BY IDOCK:   -5.66 KCAL/MOL
REMARK 923 INTER-LIGAND FREE ENERGY PREDICTED BY IDOCK:   -5.39 KCAL/MOL
REMARK 924 INTRA-LIGAND FREE ENERGY PREDICTED BY IDOCK:   -0.27 KCAL/MOL
REMARK 927      BINDING AFFINITY PREDICTED BY RF-SCORE:    0.00 PKD
ROOT
HETATM    1  C   UNL     1     -12.069  12.229  69.795  1.00  0.00    -0.229 C  
HETATM    2  N   UNL     1     -11.355  11.198  69.077  1.00  0.00    -0.248 NA 
HETATM    3  H   UNL     1     -11.542  11.152  68.076  1.00  0.00     0.000 HD 
ENDROOT
BRANCH   2   4
HETATM    4  C   UNL     1     -10.454  10.263  69.557  1.00  0.00    -0.244 C  
HETATM    5  C   UNL     1     -10.894   9.023  69.868  1.00  0.00    -0.218 C  
HETATM    6  O   UNL     1      -8.822   8.149  70.460  1.00  0.00    -0.139 OA 
HETATM    7  N   UNL     1     -10.042   7.965  70.354  1.00  0.00    -0.193 N  
HETATM    8  O   UNL     1     -10.620   6.905  70.634  1.00  0.00    -0.215 OA 
BRANCH   4   9
HETATM    9  N   UNL     1      -9.139  10.654  69.719  1.00  0.00    -0.357 NA 
HETATM   10  H   UNL     1      -8.841  10.780  70.687  1.00  0.00     0.000 HD 
BRANCH   9  11
HETATM   11  C   UNL     1      -8.119  10.912  68.723  1.00  0.00    -0.145 C  
BRANCH  11  12
HETATM   12  C   UNL     1      -8.388  12.256  68.038  1.00  0.00    -0.165 C  
BRANCH  12  13
HETATM   13  S   UNL     1      -7.309  13.593  68.652  1.00  0.00    -0.103 SA 
BRANCH  13  14
HETATM   14  C   UNL     1      -7.881  14.961  67.591  1.00  0.00    -0.172 C  
BRANCH  14  15
HETATM   15  C   UNL     1      -9.313  14.794  67.254  1.00  0.00    -0.206 A  
HETATM   16  C   UNL     1     -10.481  14.938  67.968  1.00  0.00    -0.246 A  
HETATM   17  C   UNL     1     -11.531  14.625  67.072  1.00  0.00    -0.379 A  
HETATM   18  C   UNL     1     -10.940  14.302  65.869  1.00  0.00    -0.304 A  
HETATM   19  O   UNL     1      -9.585  14.394  65.980  1.00  0.00    -0.302 OA 
BRANCH  18  20
HETATM   20  C   UNL     1     -11.470  13.874  64.541  1.00  0.00    -0.381 C  
BRANCH  20  21
HETATM   21  N   UNL     1     -11.759  12.428  64.462  1.00  0.00    -0.345 NA 
HETATM   22  C   UNL     1     -12.648  12.120  63.337  1.00  0.00    -0.463 C  
HETATM   23  C   UNL     1     -10.502  11.691  64.310  1.00  0.00    -0.331 C  
ENDBRANCH  20  21
ENDBRANCH  18  20
ENDBRANCH  14  15
ENDBRANCH  13  14
ENDBRANCH  12  13
ENDBRANCH  11  12
ENDBRANCH   9  11
ENDBRANCH   4   9
ENDBRANCH   2   4
TORSDOF 9
ENDMDL
MODEL      270
REMARK 921   NORMALIZED FREE ENERGY PREDICTED BY IDOCK:   -3.45 KCAL/MOL
REMARK 922        TOTAL FREE ENERGY PREDICTED BY IDOCK:   -5.65 KCAL/MOL
REMARK 923 INTER-LIGAND FREE ENERGY PREDICTED BY IDOCK:   -5.10 KCAL/MOL
REMARK 924 INTRA-LIGAND FREE ENERGY PREDICTED BY IDOCK:   -0.55 KCAL/MOL
REMARK 927      BINDING AFFINITY PREDICTED BY RF-SCORE:    0.00 PKD
ROOT
HETATM    1  C   UNL     1     -10.284  17.092  66.251  1.00  0.00    -0.329 C  
HETATM    2  N   UNL     1     -10.125  15.737  65.772  1.00  0.00    -0.344 NA 
HETATM    3  H   UNL     1      -9.172  15.469  65.526  1.00  0.00     0.000 HD 
ENDROOT
BRANCH   2   4
HETATM    4  C   UNL     1     -11.083  14.753  65.599  1.00  0.00    -0.342 C  
HETATM    5  C   UNL     1     -11.422  14.377  64.346  1.00  0.00    -0.288 C  
HETATM    6  O   UNL     1     -12.926  12.717  64.967  1.00  0.00    -0.812 OA 
HETATM    7  N   UNL     1     -12.389  13.348  64.048  1.00  0.00    -0.371 N  
HETATM    8  O   UNL     1     -12.612  13.164  62.842  1.00  0.00    -0.427 OA 
BRANCH   4   9
HETATM    9  N   UNL     1     -11.671  14.215  66.727  1.00  0.00    -0.391 NA 
HETATM   10  H   UNL     1     -12.690  14.253  66.745  1.00  0.00     0.000 HD 
BRANCH   9  11
HETATM   11  C   UNL     1     -11.058  13.604  67.890  1.00  0.00    -0.261 C  
BRANCH  11  12
HETATM   12  C   UNL     1     -10.610  12.177  67.554  1.00  0.00    -0.214 C  
BRANCH  12  13
HETATM   13  S   UNL     1      -8.836  11.897  67.878  1.00  0.00    -0.179 SA 
BRANCH  13  14
HETATM   14  C   UNL     1      -8.455  10.742  66.519  1.00  0.00    -0.147 C  
BRANCH  14  15
HETATM   15  C   UNL     1      -8.042   9.426  67.055  1.00  0.00    -0.105 A  
HETATM   16  C   UNL     1      -7.539   9.008  68.266  1.00  0.00    -0.091 A  
HETATM   17  C   UNL     1      -7.339   7.611  68.148  1.00  0.00    -0.099 A  
HETATM   18  C   UNL     1      -7.724   7.264  66.870  1.00  0.00    -0.110 A  
HETATM   19  O   UNL     1      -8.144   8.372  66.197  1.00  0.00    -0.099 OA 
BRANCH  18  20
HETATM   20  C   UNL     1      -7.751   5.978  66.113  1.00  0.00    -0.102 C  
BRANCH  20  21
HETATM   21  N   UNL     1      -8.814   5.056  66.560  1.00  0.00    -0.112 NA 
HETATM   22  C   UNL     1      -9.614   4.573  65.429  1.00  0.00    -0.179 C  
HETATM   23  C   UNL     1      -8.207   3.917  67.253  1.00  0.00    -0.098 C  
ENDBRANCH  20  21
ENDBRANCH  18  20
ENDBRANCH  14  15
ENDBRANCH  13  14
ENDBRANCH  12  13
ENDBRANCH  11  12
ENDBRANCH   9  11
ENDBRANCH   4   9
ENDBRANCH   2   4
TORSDOF 9
ENDMDL
MODEL      271
REMARK 921   NORMALIZED FREE ENERGY PREDICTED BY IDOCK:   -3.44 KCAL/MOL
REMARK 922        TOTAL FREE ENERGY PREDICTED BY IDOCK:   -5.64 KCAL/MOL
REMARK 923 INTER-LIGAND FREE ENERGY PREDICTED BY IDOCK:   -4.76 KCAL/MOL
REMARK 924 INTRA-LIGAND FREE ENERGY PREDICTED BY IDOCK:   -0.89 KCAL/MOL
REMARK 927      BINDING AFFINITY PREDICTED BY RF-SCORE:    0.00 PKD
ROOT
HETATM    1  C   UNL     1     -11.302  10.725  70.040  1.00  0.00    -0.319 C  
HETATM    2  N   UNL     1     -11.725  10.594  68.664  1.00  0.00    -0.614 NA 
HETATM    3  H   UNL     1     -12.696  10.845  68.478  1.00  0.00     0.000 HD 
ENDROOT
BRANCH   2   4
HETATM    4  C   UNL     1     -10.999  10.173  67.563  1.00  0.00    -0.255 C  
HETATM    5  C   UNL     1     -10.660   8.869  67.456  1.00  0.00    -0.237 C  
HETATM    6  O   UNL     1      -9.611   9.038  65.388  1.00  0.00    -0.191 OA 
HETATM    7  N   UNL     1      -9.925   8.317  66.344  1.00  0.00    -0.235 N  
HETATM    8  O   UNL     1      -9.659   7.109  66.432  1.00  0.00    -0.168 OA 
BRANCH   4   9
HETATM    9  N   UNL     1     -10.631  11.122  66.628  1.00  0.00    -0.255 NA 
HETATM   10  H   UNL     1     -10.664  10.809  65.658  1.00  0.00     0.000 HD 
BRANCH   9  11
HETATM   11  C   UNL     1     -10.206  12.494  66.818  1.00  0.00    -0.231 C  
BRANCH  11  12
HETATM   12  C   UNL     1      -9.070  12.550  67.845  1.00  0.00    -0.199 C  
BRANCH  12  13
HETATM   13  S   UNL     1      -7.703  11.408  67.452  1.00  0.00    -0.143 SA 
BRANCH  13  14
HETATM   14  C   UNL     1      -7.059  11.110  69.132  1.00  0.00    -0.116 C  
BRANCH  14  15
HETATM   15  C   UNL     1      -7.533   9.806  69.647  1.00  0.00    -0.113 A  
HETATM   16  C   UNL     1      -7.458   8.514  69.178  1.00  0.00    -0.088 A  
HETATM   17  C   UNL     1      -8.116   7.708  70.139  1.00  0.00    -0.118 A  
HETATM   18  C   UNL     1      -8.559   8.558  71.130  1.00  0.00    -0.169 A  
HETATM   19  O   UNL     1      -8.214   9.841  70.828  1.00  0.00    -0.251 OA 
BRANCH  18  20
HETATM   20  C   UNL     1      -9.321   8.357  72.398  1.00  0.00    -0.285 C  
BRANCH  20  21
HETATM   21  N   UNL     1     -10.241   7.203  72.353  1.00  0.00    -0.185 NA 
HETATM   22  C   UNL     1     -10.385   6.582  73.674  1.00  0.00    -0.304 C  
HETATM   23  C   UNL     1     -11.552   7.647  71.874  1.00  0.00    -0.280 C  
ENDBRANCH  20  21
ENDBRANCH  18  20
ENDBRANCH  14  15
ENDBRANCH  13  14
ENDBRANCH  12  13
ENDBRANCH  11  12
ENDBRANCH   9  11
ENDBRANCH   4   9
ENDBRANCH   2   4
TORSDOF 9
ENDMDL
MODEL      272
REMARK 921   NORMALIZED FREE ENERGY PREDICTED BY IDOCK:   -3.44 KCAL/MOL
REMARK 922        TOTAL FREE ENERGY PREDICTED BY IDOCK:   -5.63 KCAL/MOL
REMARK 923 INTER-LIGAND FREE ENERGY PREDICTED BY IDOCK:   -5.51 KCAL/MOL
REMARK 924 INTRA-LIGAND FREE ENERGY PREDICTED BY IDOCK:   -0.13 KCAL/MOL
REMARK 927      BINDING AFFINITY PREDICTED BY RF-SCORE:    0.00 PKD
ROOT
HETATM    1  C   UNL     1     -10.527  19.498  65.952  1.00  0.00    -0.491 C  
HETATM    2  N   UNL     1     -10.561  18.492  66.990  1.00  0.00    -0.398 NA 
HETATM    3  H   UNL     1     -11.464  18.361  67.444  1.00  0.00     0.000 HD 
ENDROOT
BRANCH   2   4
HETATM    4  C   UNL     1      -9.539  17.682  67.455  1.00  0.00    -0.267 C  
HETATM    5  C   UNL     1      -8.544  18.232  68.186  1.00  0.00    -0.278 C  
HETATM    6  O   UNL     1      -7.397  16.251  68.599  1.00  0.00    -0.160 OA 
HETATM    7  N   UNL     1      -7.443  17.481  68.739  1.00  0.00    -0.260 N  
HETATM    8  O   UNL     1      -6.594  18.153  69.344  1.00  0.00    -0.256 OA 
BRANCH   4   9
HETATM    9  N   UNL     1      -9.574  16.341  67.125  1.00  0.00    -0.230 NA 
HETATM   10  H   UNL     1      -8.969  15.741  67.685  1.00  0.00     0.000 HD 
BRANCH   9  11
HETATM   11  C   UNL     1     -10.340  15.658  66.102  1.00  0.00    -0.316 C  
BRANCH  11  12
HETATM   12  C   UNL     1     -11.605  15.050  66.718  1.00  0.00    -0.204 C  
BRANCH  12  13
HETATM   13  S   UNL     1     -12.010  13.409  66.031  1.00  0.00    -0.435 SA 
BRANCH  13  14
HETATM   14  C   UNL     1     -11.748  12.382  67.514  1.00  0.00    -0.357 C  
BRANCH  14  15
HETATM   15  C   UNL     1     -10.793  11.289  67.227  1.00  0.00    -0.267 A  
HETATM   16  C   UNL     1      -9.484  11.256  66.803  1.00  0.00    -0.196 A  
HETATM   17  C   UNL     1      -9.133   9.887  66.711  1.00  0.00    -0.164 A  
HETATM   18  C   UNL     1     -10.252   9.168  67.076  1.00  0.00    -0.263 A  
HETATM   19  O   UNL     1     -11.271  10.021  67.381  1.00  0.00    -0.205 OA 
BRANCH  18  20
HETATM   20  C   UNL     1     -10.555   7.710  67.179  1.00  0.00    -0.340 C  
BRANCH  20  21
HETATM   21  N   UNL     1      -9.683   6.995  68.132  1.00  0.00    -0.132 NA 
HETATM   22  C   UNL     1      -8.294   6.959  67.665  1.00  0.00    -0.123 C  
HETATM   23  C   UNL     1      -9.745   7.660  69.436  1.00  0.00    -0.165 C  
ENDBRANCH  20  21
ENDBRANCH  18  20
ENDBRANCH  14  15
ENDBRANCH  13  14
ENDBRANCH  12  13
ENDBRANCH  11  12
ENDBRANCH   9  11
ENDBRANCH   4   9
ENDBRANCH   2   4
TORSDOF 9
ENDMDL
MODEL      273
REMARK 921   NORMALIZED FREE ENERGY PREDICTED BY IDOCK:   -3.43 KCAL/MOL
REMARK 922        TOTAL FREE ENERGY PREDICTED BY IDOCK:   -5.62 KCAL/MOL
REMARK 923 INTER-LIGAND FREE ENERGY PREDICTED BY IDOCK:   -4.72 KCAL/MOL
REMARK 924 INTRA-LIGAND FREE ENERGY PREDICTED BY IDOCK:   -0.90 KCAL/MOL
REMARK 927      BINDING AFFINITY PREDICTED BY RF-SCORE:    0.00 PKD
ROOT
HETATM    1  C   UNL     1     -11.213  12.103  68.623  1.00  0.00    -0.269 C  
HETATM    2  N   UNL     1     -10.679  11.250  69.660  1.00  0.00    -0.454 NA 
HETATM    3  H   UNL     1      -9.789  11.548  70.056  1.00  0.00     0.000 HD 
ENDROOT
BRANCH   2   4
HETATM    4  C   UNL     1     -11.206  10.085  70.190  1.00  0.00    -0.304 C  
HETATM    5  C   UNL     1     -12.211  10.167  71.090  1.00  0.00    -0.389 C  
HETATM    6  O   UNL     1     -12.518   7.876  71.351  1.00  0.00    -0.313 OA 
HETATM    7  N   UNL     1     -12.849   9.020  71.691  1.00  0.00    -0.341 N  
HETATM    8  O   UNL     1     -13.723   9.279  72.532  1.00  0.00    -0.467 OA 
BRANCH   4   9
HETATM    9  N   UNL     1     -10.656   8.883  69.789  1.00  0.00    -0.223 NA 
HETATM   10  H   UNL     1     -10.371   8.262  70.546  1.00  0.00     0.000 HD 
BRANCH   9  11
HETATM   11  C   UNL     1     -10.423   8.371  68.453  1.00  0.00    -0.164 C  
BRANCH  11  12
HETATM   12  C   UNL     1      -8.950   7.981  68.294  1.00  0.00    -0.132 C  
BRANCH  12  13
HETATM   13  S   UNL     1      -7.900   9.379  67.771  1.00  0.00    -0.095 SA 
BRANCH  13  14
HETATM   14  C   UNL     1      -7.393  10.010  69.405  1.00  0.00    -0.100 C  
BRANCH  14  15
HETATM   15  C   UNL     1      -6.967  11.424  69.308  1.00  0.00    -0.115 A  
HETATM   16  C   UNL     1      -6.051  12.191  69.991  1.00  0.00    -0.138 A  
HETATM   17  C   UNL     1      -6.119  13.486  69.422  1.00  0.00    -0.103 A  
HETATM   18  C   UNL     1      -7.077  13.432  68.432  1.00  0.00    -0.108 A  
HETATM   19  O   UNL     1      -7.605  12.177  68.367  1.00  0.00    -0.116 OA 
BRANCH  18  20
HETATM   20  C   UNL     1      -7.634  14.436  67.478  1.00  0.00    -0.193 C  
BRANCH  20  21
HETATM   21  N   UNL     1      -9.109  14.491  67.479  1.00  0.00    -0.186 NA 
HETATM   22  C   UNL     1      -9.610  15.428  68.490  1.00  0.00    -0.201 C  
HETATM   23  C   UNL     1      -9.578  14.903  66.153  1.00  0.00    -0.310 C  
ENDBRANCH  20  21
ENDBRANCH  18  20
ENDBRANCH  14  15
ENDBRANCH  13  14
ENDBRANCH  12  13
ENDBRANCH  11  12
ENDBRANCH   9  11
ENDBRANCH   4   9
ENDBRANCH   2   4
TORSDOF 9
ENDMDL
MODEL      274
REMARK 921   NORMALIZED FREE ENERGY PREDICTED BY IDOCK:   -3.43 KCAL/MOL
REMARK 922        TOTAL FREE ENERGY PREDICTED BY IDOCK:   -5.62 KCAL/MOL
REMARK 923 INTER-LIGAND FREE ENERGY PREDICTED BY IDOCK:   -5.62 KCAL/MOL
REMARK 924 INTRA-LIGAND FREE ENERGY PREDICTED BY IDOCK:    0.01 KCAL/MOL
REMARK 927      BINDING AFFINITY PREDICTED BY RF-SCORE:    0.00 PKD
ROOT
HETATM    1  C   UNL     1      -9.878  17.943  66.377  1.00  0.00    -0.337 C  
HETATM    2  N   UNL     1     -10.186  16.936  65.387  1.00  0.00    -0.623 NA 
HETATM    3  H   UNL     1      -9.748  17.070  64.476  1.00  0.00     0.000 HD 
ENDROOT
BRANCH   2   4
HETATM    4  C   UNL     1     -10.992  15.816  65.500  1.00  0.00    -0.268 C  
HETATM    5  C   UNL     1     -11.442  15.213  64.378  1.00  0.00    -0.235 C  
HETATM    6  O   UNL     1     -12.563  13.477  65.444  1.00  0.00    -0.470 OA 
HETATM    7  N   UNL     1     -12.268  14.030  64.376  1.00  0.00    -0.440 N  
HETATM    8  O   UNL     1     -12.629  13.637  63.257  1.00  0.00    -0.816 OA 
BRANCH   4   9
HETATM    9  N   UNL     1     -11.321  15.380  66.769  1.00  0.00    -0.200 NA 
HETATM   10  H   UNL     1     -11.655  14.418  66.823  1.00  0.00     0.000 HD 
BRANCH   9  11
HETATM   11  C   UNL     1     -11.263  16.083  68.035  1.00  0.00    -0.303 C  
BRANCH  11  12
HETATM   12  C   UNL     1     -10.653  15.175  69.108  1.00  0.00    -0.256 C  
BRANCH  12  13
HETATM   13  S   UNL     1     -10.673  13.411  68.640  1.00  0.00    -0.240 SA 
BRANCH  13  14
HETATM   14  C   UNL     1      -8.937  13.211  68.122  1.00  0.00    -0.195 C  
BRANCH  14  15
HETATM   15  C   UNL     1      -8.833  12.230  67.018  1.00  0.00    -0.205 A  
HETATM   16  C   UNL     1      -9.539  12.030  65.854  1.00  0.00    -0.238 A  
HETATM   17  C   UNL     1      -8.946  10.910  65.221  1.00  0.00    -0.202 A  
HETATM   18  C   UNL     1      -7.921  10.491  66.042  1.00  0.00    -0.149 A  
HETATM   19  O   UNL     1      -7.856  11.288  67.146  1.00  0.00    -0.136 OA 
BRANCH  18  20
HETATM   20  C   UNL     1      -6.930   9.377  65.969  1.00  0.00    -0.090 C  
BRANCH  20  21
HETATM   21  N   UNL     1      -6.866   8.567  67.202  1.00  0.00    -0.066 NA 
HETATM   22  C   UNL     1      -7.999   7.641  67.294  1.00  0.00    -0.118 C  
HETATM   23  C   UNL     1      -5.611   7.810  67.219  1.00  0.00    -0.036 C  
ENDBRANCH  20  21
ENDBRANCH  18  20
ENDBRANCH  14  15
ENDBRANCH  13  14
ENDBRANCH  12  13
ENDBRANCH  11  12
ENDBRANCH   9  11
ENDBRANCH   4   9
ENDBRANCH   2   4
TORSDOF 9
ENDMDL
MODEL      275
REMARK 921   NORMALIZED FREE ENERGY PREDICTED BY IDOCK:   -3.42 KCAL/MOL
REMARK 922        TOTAL FREE ENERGY PREDICTED BY IDOCK:   -5.60 KCAL/MOL
REMARK 923 INTER-LIGAND FREE ENERGY PREDICTED BY IDOCK:   -5.11 KCAL/MOL
REMARK 924 INTRA-LIGAND FREE ENERGY PREDICTED BY IDOCK:   -0.49 KCAL/MOL
REMARK 927      BINDING AFFINITY PREDICTED BY RF-SCORE:    0.00 PKD
ROOT
HETATM    1  C   UNL     1     -12.193  13.027  63.355  1.00  0.00    -0.472 C  
HETATM    2  N   UNL     1     -11.942  11.800  64.076  1.00  0.00    -0.321 NA 
HETATM    3  H   UNL     1     -12.768  11.245  64.298  1.00  0.00     0.000 HD 
ENDROOT
BRANCH   2   4
HETATM    4  C   UNL     1     -10.737  11.272  64.509  1.00  0.00    -0.323 C  
HETATM    5  C   UNL     1     -10.030  10.476  63.676  1.00  0.00    -0.234 C  
HETATM    6  O   UNL     1      -8.222  10.146  65.101  1.00  0.00    -0.140 OA 
HETATM    7  N   UNL     1      -8.755   9.890  64.013  1.00  0.00    -0.193 N  
HETATM    8  O   UNL     1      -8.268   9.148  63.147  1.00  0.00    -0.156 OA 
BRANCH   4   9
HETATM    9  N   UNL     1     -10.325  11.567  65.794  1.00  0.00    -0.240 NA 
HETATM   10  H   UNL     1     -10.078  10.759  66.366  1.00  0.00     0.000 HD 
BRANCH   9  11
HETATM   11  C   UNL     1     -10.189  12.851  66.453  1.00  0.00    -0.267 C  
BRANCH  11  12
HETATM   12  C   UNL     1     -10.019  12.647  67.962  1.00  0.00    -0.220 C  
BRANCH  12  13
HETATM   13  S   UNL     1      -8.337  12.107  68.420  1.00  0.00    -0.108 SA 
BRANCH  13  14
HETATM   14  C   UNL     1      -7.359  13.364  67.533  1.00  0.00    -0.156 C  
BRANCH  14  15
HETATM   15  C   UNL     1      -7.798  14.726  67.909  1.00  0.00    -0.137 A  
HETATM   16  C   UNL     1      -7.827  15.422  69.096  1.00  0.00    -0.212 A  
HETATM   17  C   UNL     1      -8.373  16.693  68.794  1.00  0.00    -0.252 A  
HETATM   18  C   UNL     1      -8.652  16.692  67.444  1.00  0.00    -0.189 A  
HETATM   19  O   UNL     1      -8.312  15.488  66.902  1.00  0.00    -0.214 OA 
BRANCH  18  20
HETATM   20  C   UNL     1      -9.242  17.696  66.511  1.00  0.00    -0.269 C  
BRANCH  20  21
HETATM   21  N   UNL     1      -9.063  19.091  66.960  1.00  0.00    -0.287 NA 
HETATM   22  C   UNL     1      -8.345  19.889  65.961  1.00  0.00    -0.273 C  
HETATM   23  C   UNL     1     -10.377  19.689  67.213  1.00  0.00    -0.451 C  
ENDBRANCH  20  21
ENDBRANCH  18  20
ENDBRANCH  14  15
ENDBRANCH  13  14
ENDBRANCH  12  13
ENDBRANCH  11  12
ENDBRANCH   9  11
ENDBRANCH   4   9
ENDBRANCH   2   4
TORSDOF 9
ENDMDL
MODEL      276
REMARK 921   NORMALIZED FREE ENERGY PREDICTED BY IDOCK:   -3.41 KCAL/MOL
REMARK 922        TOTAL FREE ENERGY PREDICTED BY IDOCK:   -5.60 KCAL/MOL
REMARK 923 INTER-LIGAND FREE ENERGY PREDICTED BY IDOCK:   -4.98 KCAL/MOL
REMARK 924 INTRA-LIGAND FREE ENERGY PREDICTED BY IDOCK:   -0.62 KCAL/MOL
REMARK 927      BINDING AFFINITY PREDICTED BY RF-SCORE:    0.00 PKD
ROOT
HETATM    1  C   UNL     1      -6.700   6.427  65.915  1.00  0.00    -0.048 C  
HETATM    2  N   UNL     1      -6.740   7.826  65.552  1.00  0.00    -0.045 NA 
HETATM    3  H   UNL     1      -5.834   8.291  65.502  1.00  0.00     0.000 HD 
ENDROOT
BRANCH   2   4
HETATM    4  C   UNL     1      -7.835   8.623  65.264  1.00  0.00    -0.107 C  
HETATM    5  C   UNL     1      -7.980   9.114  64.013  1.00  0.00    -0.141 C  
HETATM    6  O   UNL     1     -10.009  10.187  64.386  1.00  0.00    -0.314 OA 
HETATM    7  N   UNL     1      -9.091   9.935  63.595  1.00  0.00    -0.255 N  
HETATM    8  O   UNL     1      -9.041  10.337  62.423  1.00  0.00    -0.236 OA 
BRANCH   4   9
HETATM    9  N   UNL     1      -8.721   8.902  66.286  1.00  0.00    -0.134 NA 
HETATM   10  H   UNL     1      -9.707   8.796  66.046  1.00  0.00     0.000 HD 
BRANCH   9  11
HETATM   11  C   UNL     1      -8.462   9.322  67.649  1.00  0.00    -0.116 C  
BRANCH  11  12
HETATM   12  C   UNL     1      -8.073  10.805  67.672  1.00  0.00    -0.114 C  
BRANCH  12  13
HETATM   13  S   UNL     1      -9.456  11.893  68.151  1.00  0.00    -0.197 SA 
BRANCH  13  14
HETATM   14  C   UNL     1     -10.809  10.672  68.191  1.00  0.00    -0.245 C  
BRANCH  14  15
HETATM   15  C   UNL     1     -11.494  10.697  69.502  1.00  0.00    -0.291 A  
HETATM   16  C   UNL     1     -12.153  11.675  70.212  1.00  0.00    -0.443 A  
HETATM   17  C   UNL     1     -12.585  11.066  71.415  1.00  0.00    -0.498 A  
HETATM   18  C   UNL     1     -12.157   9.756  71.369  1.00  0.00    -0.400 A  
HETATM   19  O   UNL     1     -11.481   9.530  70.207  1.00  0.00    -0.251 OA 
BRANCH  18  20
HETATM   20  C   UNL     1     -12.269   8.600  72.307  1.00  0.00    -0.378 C  
BRANCH  20  21
HETATM   21  N   UNL     1     -11.331   7.502  71.999  1.00  0.00    -0.262 NA 
HETATM   22  C   UNL     1     -10.417   7.248  73.117  1.00  0.00    -0.339 C  
HETATM   23  C   UNL     1     -12.091   6.285  71.702  1.00  0.00    -0.168 C  
ENDBRANCH  20  21
ENDBRANCH  18  20
ENDBRANCH  14  15
ENDBRANCH  13  14
ENDBRANCH  12  13
ENDBRANCH  11  12
ENDBRANCH   9  11
ENDBRANCH   4   9
ENDBRANCH   2   4
TORSDOF 9
ENDMDL
MODEL      277
REMARK 921   NORMALIZED FREE ENERGY PREDICTED BY IDOCK:   -3.41 KCAL/MOL
REMARK 922        TOTAL FREE ENERGY PREDICTED BY IDOCK:   -5.59 KCAL/MOL
REMARK 923 INTER-LIGAND FREE ENERGY PREDICTED BY IDOCK:   -5.06 KCAL/MOL
REMARK 924 INTRA-LIGAND FREE ENERGY PREDICTED BY IDOCK:   -0.53 KCAL/MOL
REMARK 927      BINDING AFFINITY PREDICTED BY RF-SCORE:    0.00 PKD
ROOT
HETATM    1  C   UNL     1     -12.283  11.100  69.910  1.00  0.00    -0.314 C  
HETATM    2  N   UNL     1     -11.838  10.486  68.680  1.00  0.00    -0.716 NA 
HETATM    3  H   UNL     1     -12.361  10.750  67.845  1.00  0.00     0.000 HD 
ENDROOT
BRANCH   2   4
HETATM    4  C   UNL     1     -10.803   9.590  68.475  1.00  0.00    -0.132 C  
HETATM    5  C   UNL     1     -10.253   8.965  69.539  1.00  0.00    -0.204 C  
HETATM    6  O   UNL     1      -8.757   7.657  68.331  1.00  0.00    -0.128 OA 
HETATM    7  N   UNL     1      -9.186   7.998  69.441  1.00  0.00    -0.152 N  
HETATM    8  O   UNL     1      -8.769   7.558  70.523  1.00  0.00    -0.143 OA 
BRANCH   4   9
HETATM    9  N   UNL     1     -10.362   9.394  67.180  1.00  0.00    -0.251 NA 
HETATM   10  H   UNL     1     -10.439   8.437  66.836  1.00  0.00     0.000 HD 
BRANCH   9  11
HETATM   11  C   UNL     1      -9.807  10.343  66.236  1.00  0.00    -0.218 C  
BRANCH  11  12
HETATM   12  C   UNL     1      -8.326  10.583  66.549  1.00  0.00    -0.141 C  
BRANCH  12  13
HETATM   13  S   UNL     1      -8.069  11.853  67.834  1.00  0.00    -0.158 SA 
BRANCH  13  14
HETATM   14  C   UNL     1      -8.832  13.287  67.006  1.00  0.00    -0.212 C  
BRANCH  14  15
HETATM   15  C   UNL     1      -8.582  14.526  67.775  1.00  0.00    -0.175 A  
HETATM   16  C   UNL     1      -7.583  14.929  68.631  1.00  0.00    -0.124 A  
HETATM   17  C   UNL     1      -7.927  16.236  69.052  1.00  0.00    -0.238 A  
HETATM   18  C   UNL     1      -9.119  16.548  68.433  1.00  0.00    -0.222 A  
HETATM   19  O   UNL     1      -9.528  15.502  67.661  1.00  0.00    -0.207 OA 
BRANCH  18  20
HETATM   20  C   UNL     1     -10.014  17.742  68.458  1.00  0.00    -0.370 C  
BRANCH  20  21
HETATM   21  N   UNL     1      -9.478  18.893  67.705  1.00  0.00    -0.297 NA 
HETATM   22  C   UNL     1      -9.003  18.490  66.377  1.00  0.00    -0.266 C  
HETATM   23  C   UNL     1     -10.526  19.908  67.563  1.00  0.00    -0.395 C  
ENDBRANCH  20  21
ENDBRANCH  18  20
ENDBRANCH  14  15
ENDBRANCH  13  14
ENDBRANCH  12  13
ENDBRANCH  11  12
ENDBRANCH   9  11
ENDBRANCH   4   9
ENDBRANCH   2   4
TORSDOF 9
ENDMDL
MODEL      278
REMARK 921   NORMALIZED FREE ENERGY PREDICTED BY IDOCK:   -3.40 KCAL/MOL
REMARK 922        TOTAL FREE ENERGY PREDICTED BY IDOCK:   -5.58 KCAL/MOL
REMARK 923 INTER-LIGAND FREE ENERGY PREDICTED BY IDOCK:   -5.25 KCAL/MOL
REMARK 924 INTRA-LIGAND FREE ENERGY PREDICTED BY IDOCK:   -0.32 KCAL/MOL
REMARK 927      BINDING AFFINITY PREDICTED BY RF-SCORE:    0.00 PKD
ROOT
HETATM    1  C   UNL     1     -10.810   3.804  64.142  1.00  0.00    -0.161 C  
HETATM    2  N   UNL     1     -11.199   4.596  65.287  1.00  0.00    -0.991 NA 
HETATM    3  H   UNL     1     -12.139   4.422  65.640  1.00  0.00     0.000 HD 
ENDROOT
BRANCH   2   4
HETATM    4  C   UNL     1     -10.476   5.559  65.971  1.00  0.00     0.002 C  
HETATM    5  C   UNL     1     -10.909   5.971  67.183  1.00  0.00    -0.329 C  
HETATM    6  O   UNL     1      -9.148   7.428  67.611  1.00  0.00    -0.126 OA 
HETATM    7  N   UNL     1     -10.225   6.950  67.992  1.00  0.00    -0.166 N  
HETATM    8  O   UNL     1     -10.788   7.245  69.057  1.00  0.00    -0.195 OA 
BRANCH   4   9
HETATM    9  N   UNL     1      -9.347   6.074  65.364  1.00  0.00    -0.358 NA 
HETATM   10  H   UNL     1      -9.347   7.086  65.236  1.00  0.00     0.000 HD 
BRANCH   9  11
HETATM   11  C   UNL     1      -8.162   5.395  64.880  1.00  0.00    -0.138 C  
BRANCH  11  12
HETATM   12  C   UNL     1      -7.742   5.978  63.527  1.00  0.00    -0.097 C  
BRANCH  12  13
HETATM   13  S   UNL     1      -6.966   7.623  63.675  1.00  0.00    -0.063 SA 
BRANCH  13  14
HETATM   14  C   UNL     1      -8.325   8.661  63.045  1.00  0.00    -0.153 C  
BRANCH  14  15
HETATM   15  C   UNL     1      -8.724   9.666  64.055  1.00  0.00    -0.219 A  
HETATM   16  C   UNL     1      -8.126  10.161  65.192  1.00  0.00    -0.148 A  
HETATM   17  C   UNL     1      -9.030  11.108  65.732  1.00  0.00    -0.207 A  
HETATM   18  C   UNL     1     -10.126  11.127  64.897  1.00  0.00    -0.289 A  
HETATM   19  O   UNL     1      -9.948  10.240  63.878  1.00  0.00    -0.278 OA 
BRANCH  18  20
HETATM   20  C   UNL     1     -11.415  11.879  64.903  1.00  0.00    -0.253 C  
BRANCH  20  21
HETATM   21  N   UNL     1     -11.414  13.040  65.815  1.00  0.00    -0.319 NA 
HETATM   22  C   UNL     1     -12.249  14.129  65.298  1.00  0.00    -0.434 C  
HETATM   23  C   UNL     1     -11.911  12.623  67.129  1.00  0.00    -0.330 C  
ENDBRANCH  20  21
ENDBRANCH  18  20
ENDBRANCH  14  15
ENDBRANCH  13  14
ENDBRANCH  12  13
ENDBRANCH  11  12
ENDBRANCH   9  11
ENDBRANCH   4   9
ENDBRANCH   2   4
TORSDOF 9
ENDMDL
MODEL      279
REMARK 921   NORMALIZED FREE ENERGY PREDICTED BY IDOCK:   -3.39 KCAL/MOL
REMARK 922        TOTAL FREE ENERGY PREDICTED BY IDOCK:   -5.56 KCAL/MOL
REMARK 923 INTER-LIGAND FREE ENERGY PREDICTED BY IDOCK:   -5.11 KCAL/MOL
REMARK 924 INTRA-LIGAND FREE ENERGY PREDICTED BY IDOCK:   -0.46 KCAL/MOL
REMARK 927      BINDING AFFINITY PREDICTED BY RF-SCORE:    0.00 PKD
ROOT
HETATM    1  C   UNL     1      -8.246   6.368  64.653  1.00  0.00    -0.069 C  
HETATM    2  N   UNL     1      -8.097   7.692  65.214  1.00  0.00    -0.128 NA 
HETATM    3  H   UNL     1      -7.179   7.901  65.604  1.00  0.00     0.000 HD 
ENDROOT
BRANCH   2   4
HETATM    4  C   UNL     1      -9.026   8.715  65.297  1.00  0.00    -0.098 C  
HETATM    5  C   UNL     1      -9.065   9.649  64.321  1.00  0.00    -0.218 C  
HETATM    6  O   UNL     1     -10.871  10.842  65.173  1.00  0.00    -0.192 OA 
HETATM    7  N   UNL     1     -10.004  10.745  64.294  1.00  0.00    -0.315 N  
HETATM    8  O   UNL     1      -9.868  11.536  63.348  1.00  0.00    -0.335 OA 
BRANCH   4   9
HETATM    9  N   UNL     1      -9.859   8.746  66.399  1.00  0.00    -0.270 NA 
HETATM   10  H   UNL     1      -9.920   9.648  66.871  1.00  0.00     0.000 HD 
BRANCH   9  11
HETATM   11  C   UNL     1     -10.661   7.690  66.985  1.00  0.00    -0.336 C  
BRANCH  11  12
HETATM   12  C   UNL     1      -9.840   6.937  68.037  1.00  0.00    -0.139 C  
BRANCH  12  13
HETATM   13  S   UNL     1     -10.290   7.392  69.746  1.00  0.00    -0.228 SA 
BRANCH  13  14
HETATM   14  C   UNL     1      -9.455   9.008  69.863  1.00  0.00    -0.177 C  
BRANCH  14  15
HETATM   15  C   UNL     1     -10.448  10.100  69.974  1.00  0.00    -0.274 A  
HETATM   16  C   UNL     1     -11.398  10.429  70.913  1.00  0.00    -0.307 A  
HETATM   17  C   UNL     1     -12.040  11.596  70.432  1.00  0.00    -0.462 A  
HETATM   18  C   UNL     1     -11.448  11.903  69.226  1.00  0.00    -0.306 A  
HETATM   19  O   UNL     1     -10.483  10.985  68.937  1.00  0.00    -0.188 OA 
BRANCH  18  20
HETATM   20  C   UNL     1     -11.661  12.980  68.215  1.00  0.00    -0.353 C  
BRANCH  20  21
HETATM   21  N   UNL     1     -10.899  14.212  68.500  1.00  0.00    -0.244 NA 
HETATM   22  C   UNL     1     -11.200  14.731  69.838  1.00  0.00    -0.257 C  
HETATM   23  C   UNL     1      -9.465  13.928  68.396  1.00  0.00    -0.211 C  
ENDBRANCH  20  21
ENDBRANCH  18  20
ENDBRANCH  14  15
ENDBRANCH  13  14
ENDBRANCH  12  13
ENDBRANCH  11  12
ENDBRANCH   9  11
ENDBRANCH   4   9
ENDBRANCH   2   4
TORSDOF 9
ENDMDL
MODEL      280
REMARK 921   NORMALIZED FREE ENERGY PREDICTED BY IDOCK:   -3.39 KCAL/MOL
REMARK 922        TOTAL FREE ENERGY PREDICTED BY IDOCK:   -5.56 KCAL/MOL
REMARK 923 INTER-LIGAND FREE ENERGY PREDICTED BY IDOCK:   -5.58 KCAL/MOL
REMARK 924 INTRA-LIGAND FREE ENERGY PREDICTED BY IDOCK:    0.02 KCAL/MOL
REMARK 927      BINDING AFFINITY PREDICTED BY RF-SCORE:    0.00 PKD
ROOT
HETATM    1  C   UNL     1     -11.948  12.810  69.996  1.00  0.00    -0.301 C  
HETATM    2  N   UNL     1     -11.936  11.373  69.838  1.00  0.00    -0.336 NA 
HETATM    3  H   UNL     1     -12.020  11.038  68.879  1.00  0.00     0.000 HD 
ENDROOT
BRANCH   2   4
HETATM    4  C   UNL     1     -11.826  10.389  70.805  1.00  0.00    -0.368 C  
HETATM    5  C   UNL     1     -12.947   9.915  71.393  1.00  0.00    -0.407 C  
HETATM    6  O   UNL     1     -11.895   8.327  72.726  1.00  0.00    -0.388 OA 
HETATM    7  N   UNL     1     -12.954   8.877  72.394  1.00  0.00    -0.419 N  
HETATM    8  O   UNL     1     -14.068   8.597  72.860  1.00  0.00    -0.357 OA 
BRANCH   4   9
HETATM    9  N   UNL     1     -10.560   9.950  71.143  1.00  0.00    -0.272 NA 
HETATM   10  H   UNL     1     -10.302  10.085  72.121  1.00  0.00     0.000 HD 
BRANCH   9  11
HETATM   11  C   UNL     1      -9.544   9.328  70.319  1.00  0.00    -0.235 C  
BRANCH  11  12
HETATM   12  C   UNL     1      -8.744  10.404  69.576  1.00  0.00    -0.084 C  
BRANCH  12  13
HETATM   13  S   UNL     1      -7.182   9.771  68.878  1.00  0.00    -0.074 SA 
BRANCH  13  14
HETATM   14  C   UNL     1      -7.826   8.938  67.390  1.00  0.00    -0.097 C  
BRANCH  14  15
HETATM   15  C   UNL     1      -9.077   9.581  66.934  1.00  0.00    -0.135 A  
HETATM   16  C   UNL     1     -10.407   9.234  67.007  1.00  0.00    -0.325 A  
HETATM   17  C   UNL     1     -11.123  10.278  66.372  1.00  0.00     0.223 A  
HETATM   18  C   UNL     1     -10.186  11.194  65.943  1.00  0.00    -0.251 A  
HETATM   19  O   UNL     1      -8.935  10.766  66.275  1.00  0.00    -0.160 OA 
BRANCH  18  20
HETATM   20  C   UNL     1     -10.270  12.489  65.206  1.00  0.00    -0.282 C  
BRANCH  20  21
HETATM   21  N   UNL     1     -10.491  12.326  63.755  1.00  0.00    -0.417 NA 
HETATM   22  C   UNL     1      -9.686  11.227  63.211  1.00  0.00    -0.382 C  
HETATM   23  C   UNL     1     -11.911  12.061  63.509  1.00  0.00    -0.507 C  
ENDBRANCH  20  21
ENDBRANCH  18  20
ENDBRANCH  14  15
ENDBRANCH  13  14
ENDBRANCH  12  13
ENDBRANCH  11  12
ENDBRANCH   9  11
ENDBRANCH   4   9
ENDBRANCH   2   4
TORSDOF 9
ENDMDL
MODEL      281
REMARK 921   NORMALIZED FREE ENERGY PREDICTED BY IDOCK:   -3.38 KCAL/MOL
REMARK 922        TOTAL FREE ENERGY PREDICTED BY IDOCK:   -5.54 KCAL/MOL
REMARK 923 INTER-LIGAND FREE ENERGY PREDICTED BY IDOCK:   -4.77 KCAL/MOL
REMARK 924 INTRA-LIGAND FREE ENERGY PREDICTED BY IDOCK:   -0.77 KCAL/MOL
REMARK 927      BINDING AFFINITY PREDICTED BY RF-SCORE:    0.00 PKD
ROOT
HETATM    1  C   UNL     1     -11.074   6.302  67.027  1.00  0.00    -0.297 C  
HETATM    2  N   UNL     1     -10.542   6.581  68.342  1.00  0.00    -0.220 NA 
HETATM    3  H   UNL     1     -10.071   7.480  68.442  1.00  0.00     0.000 HD 
ENDROOT
BRANCH   2   4
HETATM    4  C   UNL     1     -10.583   5.801  69.485  1.00  0.00    -0.319 C  
HETATM    5  C   UNL     1      -9.799   4.703  69.561  1.00  0.00    -0.216 C  
HETATM    6  O   UNL     1     -10.402   4.098  71.724  1.00  0.00    -0.130 OA 
HETATM    7  N   UNL     1      -9.744   3.831  70.710  1.00  0.00    -0.181 N  
HETATM    8  O   UNL     1      -9.005   2.843  70.590  1.00  0.00    -0.081 OA 
BRANCH   4   9
HETATM    9  N   UNL     1     -11.451   6.173  70.493  1.00  0.00    -0.319 NA 
HETATM   10  H   UNL     1     -12.185   5.497  70.705  1.00  0.00     0.000 HD 
BRANCH   9  11
HETATM   11  C   UNL     1     -11.476   7.379  71.297  1.00  0.00    -0.272 C  
BRANCH  11  12
HETATM   12  C   UNL     1     -10.134   7.554  72.016  1.00  0.00    -0.187 C  
BRANCH  12  13
HETATM   13  S   UNL     1      -9.136   8.919  71.330  1.00  0.00    -0.239 SA 
BRANCH  13  14
HETATM   14  C   UNL     1     -10.349   9.637  70.174  1.00  0.00    -0.266 C  
BRANCH  14  15
HETATM   15  C   UNL     1      -9.669  10.458  69.148  1.00  0.00    -0.220 A  
HETATM   16  C   UNL     1      -8.357  10.594  68.756  1.00  0.00    -0.144 A  
HETATM   17  C   UNL     1      -8.354  11.553  67.714  1.00  0.00    -0.136 A  
HETATM   18  C   UNL     1      -9.663  11.950  67.541  1.00  0.00    -0.181 A  
HETATM   19  O   UNL     1     -10.467  11.291  68.422  1.00  0.00    -0.181 OA 
BRANCH  18  20
HETATM   20  C   UNL     1     -10.335  12.926  66.633  1.00  0.00    -0.251 C  
BRANCH  20  21
HETATM   21  N   UNL     1     -10.153  12.618  65.201  1.00  0.00    -0.267 NA 
HETATM   22  C   UNL     1     -10.657  11.281  64.873  1.00  0.00    -0.300 C  
HETATM   23  C   UNL     1     -10.859  13.619  64.397  1.00  0.00    -0.361 C  
ENDBRANCH  20  21
ENDBRANCH  18  20
ENDBRANCH  14  15
ENDBRANCH  13  14
ENDBRANCH  12  13
ENDBRANCH  11  12
ENDBRANCH   9  11
ENDBRANCH   4   9
ENDBRANCH   2   4
TORSDOF 9
ENDMDL
MODEL      282
REMARK 921   NORMALIZED FREE ENERGY PREDICTED BY IDOCK:   -3.37 KCAL/MOL
REMARK 922        TOTAL FREE ENERGY PREDICTED BY IDOCK:   -5.54 KCAL/MOL
REMARK 923 INTER-LIGAND FREE ENERGY PREDICTED BY IDOCK:   -5.40 KCAL/MOL
REMARK 924 INTRA-LIGAND FREE ENERGY PREDICTED BY IDOCK:   -0.14 KCAL/MOL
REMARK 927      BINDING AFFINITY PREDICTED BY RF-SCORE:    0.00 PKD
ROOT
HETATM    1  C   UNL     1     -11.341  11.593  69.012  1.00  0.00    -0.275 C  
HETATM    2  N   UNL     1     -11.920  11.814  67.706  1.00  0.00    -0.600 NA 
HETATM    3  H   UNL     1     -12.938  11.861  67.681  1.00  0.00     0.000 HD 
ENDROOT
BRANCH   2   4
HETATM    4  C   UNL     1     -11.287  11.970  66.485  1.00  0.00    -0.354 C  
HETATM    5  C   UNL     1     -12.012  11.858  65.349  1.00  0.00     0.020 C  
HETATM    6  O   UNL     1     -10.273  12.334  63.880  1.00  0.00    -0.366 OA 
HETATM    7  N   UNL     1     -11.462  12.023  64.025  1.00  0.00    -0.377 N  
HETATM    8  O   UNL     1     -12.260  11.840  63.093  1.00  0.00    -0.429 OA 
BRANCH   4   9
HETATM    9  N   UNL     1      -9.927  12.211  66.485  1.00  0.00    -0.209 NA 
HETATM   10  H   UNL     1      -9.344  11.399  66.282  1.00  0.00     0.000 HD 
BRANCH   9  11
HETATM   11  C   UNL     1      -9.203  13.442  66.731  1.00  0.00    -0.236 C  
BRANCH  11  12
HETATM   12  C   UNL     1     -10.184  14.618  66.796  1.00  0.00    -0.268 C  
BRANCH  12  13
HETATM   13  S   UNL     1     -10.251  15.572  65.242  1.00  0.00    -0.297 SA 
BRANCH  13  14
HETATM   14  C   UNL     1     -10.088  17.260  65.911  1.00  0.00    -0.211 C  
BRANCH  14  15
HETATM   15  C   UNL     1      -8.697  17.515  66.347  1.00  0.00    -0.242 A  
HETATM   16  C   UNL     1      -7.581  16.720  66.482  1.00  0.00    -0.334 A  
HETATM   17  C   UNL     1      -6.549  17.566  66.954  1.00  0.00    -0.221 A  
HETATM   18  C   UNL     1      -7.099  18.824  67.086  1.00  0.00    -0.204 A  
HETATM   19  O   UNL     1      -8.413  18.794  66.726  1.00  0.00    -0.268 OA 
BRANCH  18  20
HETATM   20  C   UNL     1      -6.566  20.142  67.541  1.00  0.00    -0.224 C  
BRANCH  20  21
HETATM   21  N   UNL     1      -6.575  20.303  69.008  1.00  0.00    -0.282 NA 
HETATM   22  C   UNL     1      -7.703  19.592  69.619  1.00  0.00     0.177 C  
HETATM   23  C   UNL     1      -5.318  19.792  69.559  1.00  0.00    -0.204 C  
ENDBRANCH  20  21
ENDBRANCH  18  20
ENDBRANCH  14  15
ENDBRANCH  13  14
ENDBRANCH  12  13
ENDBRANCH  11  12
ENDBRANCH   9  11
ENDBRANCH   4   9
ENDBRANCH   2   4
TORSDOF 9
ENDMDL
MODEL      283
REMARK 921   NORMALIZED FREE ENERGY PREDICTED BY IDOCK:   -3.37 KCAL/MOL
REMARK 922        TOTAL FREE ENERGY PREDICTED BY IDOCK:   -5.53 KCAL/MOL
REMARK 923 INTER-LIGAND FREE ENERGY PREDICTED BY IDOCK:   -4.91 KCAL/MOL
REMARK 924 INTRA-LIGAND FREE ENERGY PREDICTED BY IDOCK:   -0.63 KCAL/MOL
REMARK 927      BINDING AFFINITY PREDICTED BY RF-SCORE:    0.00 PKD
ROOT
HETATM    1  C   UNL     1     -12.114  15.900  71.764  1.00  0.00    -0.492 C  
HETATM    2  N   UNL     1     -12.463  15.382  70.461  1.00  0.00    -0.399 NA 
HETATM    3  H   UNL     1     -12.911  16.047  69.831  1.00  0.00     0.000 HD 
ENDROOT
BRANCH   2   4
HETATM    4  C   UNL     1     -12.277  14.110  69.948  1.00  0.00    -0.359 C  
HETATM    5  C   UNL     1     -12.545  13.039  70.728  1.00  0.00    -0.241 C  
HETATM    6  O   UNL     1     -12.075  11.422  69.125  1.00  0.00    -0.324 OA 
HETATM    7  N   UNL     1     -12.407  11.671  70.291  1.00  0.00    -0.285 N  
HETATM    8  O   UNL     1     -12.651  10.812  71.152  1.00  0.00    -0.359 OA 
BRANCH   4   9
HETATM    9  N   UNL     1     -11.797  13.995  68.657  1.00  0.00    -0.346 NA 
HETATM   10  H   UNL     1     -11.959  13.091  68.214  1.00  0.00     0.000 HD 
BRANCH   9  11
HETATM   11  C   UNL     1     -11.100  14.966  67.838  1.00  0.00    -0.298 C  
BRANCH  11  12
HETATM   12  C   UNL     1      -9.701  15.222  68.411  1.00  0.00    -0.213 C  
BRANCH  12  13
HETATM   13  S   UNL     1      -8.372  14.924  67.198  1.00  0.00    -0.218 SA 
BRANCH  13  14
HETATM   14  C   UNL     1      -7.463  13.598  68.057  1.00  0.00    -0.133 C  
BRANCH  14  15
HETATM   15  C   UNL     1      -7.459  12.360  67.247  1.00  0.00    -0.135 A  
HETATM   16  C   UNL     1      -6.540  11.354  67.052  1.00  0.00    -0.125 A  
HETATM   17  C   UNL     1      -7.136  10.446  66.144  1.00  0.00    -0.130 A  
HETATM   18  C   UNL     1      -8.379  10.957  65.834  1.00  0.00    -0.149 A  
HETATM   19  O   UNL     1      -8.575  12.131  66.497  1.00  0.00    -0.165 OA 
BRANCH  18  20
HETATM   20  C   UNL     1      -9.488  10.506  64.943  1.00  0.00    -0.252 C  
BRANCH  20  21
HETATM   21  N   UNL     1      -9.312  10.913  63.535  1.00  0.00    -0.247 NA 
HETATM   22  C   UNL     1      -8.604   9.885  62.764  1.00  0.00    -0.189 C  
HETATM   23  C   UNL     1     -10.626  11.157  62.934  1.00  0.00     0.153 C  
ENDBRANCH  20  21
ENDBRANCH  18  20
ENDBRANCH  14  15
ENDBRANCH  13  14
ENDBRANCH  12  13
ENDBRANCH  11  12
ENDBRANCH   9  11
ENDBRANCH   4   9
ENDBRANCH   2   4
TORSDOF 9
ENDMDL
MODEL      284
REMARK 921   NORMALIZED FREE ENERGY PREDICTED BY IDOCK:   -3.36 KCAL/MOL
REMARK 922        TOTAL FREE ENERGY PREDICTED BY IDOCK:   -5.52 KCAL/MOL
REMARK 923 INTER-LIGAND FREE ENERGY PREDICTED BY IDOCK:   -4.78 KCAL/MOL
REMARK 924 INTRA-LIGAND FREE ENERGY PREDICTED BY IDOCK:   -0.74 KCAL/MOL
REMARK 927      BINDING AFFINITY PREDICTED BY RF-SCORE:    0.00 PKD
ROOT
HETATM    1  C   UNL     1     -11.030   6.295  67.101  1.00  0.00    -0.370 C  
HETATM    2  N   UNL     1     -10.600   6.733  68.409  1.00  0.00    -0.210 NA 
HETATM    3  H   UNL     1     -10.189   7.666  68.446  1.00  0.00     0.000 HD 
ENDROOT
BRANCH   2   4
HETATM    4  C   UNL     1     -10.667   6.065  69.621  1.00  0.00    -0.335 C  
HETATM    5  C   UNL     1      -9.733   5.132  69.910  1.00  0.00    -0.199 C  
HETATM    6  O   UNL     1     -10.515   4.632  72.042  1.00  0.00    -0.192 OA 
HETATM    7  N   UNL     1      -9.692   4.392  71.148  1.00  0.00    -0.175 N  
HETATM    8  O   UNL     1      -8.793   3.542  71.228  1.00  0.00    -0.079 OA 
BRANCH   4   9
HETATM    9  N   UNL     1     -11.711   6.371  70.472  1.00  0.00    -0.371 NA 
HETATM   10  H   UNL     1     -12.295   5.580  70.743  1.00  0.00     0.000 HD 
BRANCH   9  11
HETATM   11  C   UNL     1     -12.101   7.646  71.040  1.00  0.00    -0.258 C  
BRANCH  11  12
HETATM   12  C   UNL     1     -10.904   8.291  71.746  1.00  0.00    -0.267 C  
BRANCH  12  13
HETATM   13  S   UNL     1     -10.342   9.824  70.933  1.00  0.00    -0.042 SA 
BRANCH  13  14
HETATM   14  C   UNL     1     -11.519   9.883  69.542  1.00  0.00    -0.068 C  
BRANCH  14  15
HETATM   15  C   UNL     1     -11.022  10.782  68.477  1.00  0.00    -0.243 A  
HETATM   16  C   UNL     1     -11.005  10.710  67.103  1.00  0.00    -0.312 A  
HETATM   17  C   UNL     1     -10.378  11.898  66.654  1.00  0.00    -0.242 A  
HETATM   18  C   UNL     1     -10.043  12.617  67.781  1.00  0.00    -0.220 A  
HETATM   19  O   UNL     1     -10.425  11.934  68.897  1.00  0.00    -0.202 OA 
BRANCH  18  20
HETATM   20  C   UNL     1      -9.361  13.926  68.007  1.00  0.00    -0.204 C  
BRANCH  20  21
HETATM   21  N   UNL     1     -10.134  15.083  67.516  1.00  0.00    -0.228 NA 
HETATM   22  C   UNL     1     -11.480  15.114  68.096  1.00  0.00    -0.342 C  
HETATM   23  C   UNL     1      -9.425  16.319  67.858  1.00  0.00    -0.218 C  
ENDBRANCH  20  21
ENDBRANCH  18  20
ENDBRANCH  14  15
ENDBRANCH  13  14
ENDBRANCH  12  13
ENDBRANCH  11  12
ENDBRANCH   9  11
ENDBRANCH   4   9
ENDBRANCH   2   4
TORSDOF 9
ENDMDL
MODEL      285
REMARK 921   NORMALIZED FREE ENERGY PREDICTED BY IDOCK:   -3.35 KCAL/MOL
REMARK 922        TOTAL FREE ENERGY PREDICTED BY IDOCK:   -5.50 KCAL/MOL
REMARK 923 INTER-LIGAND FREE ENERGY PREDICTED BY IDOCK:   -4.44 KCAL/MOL
REMARK 924 INTRA-LIGAND FREE ENERGY PREDICTED BY IDOCK:   -1.06 KCAL/MOL
REMARK 927      BINDING AFFINITY PREDICTED BY RF-SCORE:    0.00 PKD
ROOT
HETATM    1  C   UNL     1      -9.576   6.260  68.740  1.00  0.00    -0.121 C  
HETATM    2  N   UNL     1      -9.956   7.545  68.198  1.00  0.00    -0.166 NA 
HETATM    3  H   UNL     1     -10.862   7.899  68.505  1.00  0.00     0.000 HD 
ENDROOT
BRANCH   2   4
HETATM    4  C   UNL     1      -9.264   8.364  67.322  1.00  0.00    -0.138 C  
HETATM    5  C   UNL     1      -9.914   8.890  66.260  1.00  0.00    -0.266 C  
HETATM    6  O   UNL     1      -8.124  10.129  65.444  1.00  0.00    -0.137 OA 
HETATM    7  N   UNL     1      -9.300   9.771  65.296  1.00  0.00    -0.236 N  
HETATM    8  O   UNL     1     -10.030  10.123  64.359  1.00  0.00    -0.314 OA 
BRANCH   4   9
HETATM    9  N   UNL     1      -7.922   8.586  67.565  1.00  0.00    -0.106 NA 
HETATM   10  H   UNL     1      -7.296   8.324  66.804  1.00  0.00     0.000 HD 
BRANCH   9  11
HETATM   11  C   UNL     1      -7.271   9.133  68.737  1.00  0.00    -0.074 C  
BRANCH  11  12
HETATM   12  C   UNL     1      -7.977  10.422  69.172  1.00  0.00    -0.141 C  
BRANCH  12  13
HETATM   13  S   UNL     1      -6.842  11.845  69.297  1.00  0.00    -0.039 SA 
BRANCH  13  14
HETATM   14  C   UNL     1      -7.315  12.749  67.787  1.00  0.00    -0.130 C  
BRANCH  14  15
HETATM   15  C   UNL     1      -8.692  13.277  67.906  1.00  0.00    -0.192 A  
HETATM   16  C   UNL     1      -9.293  14.187  68.747  1.00  0.00    -0.092 A  
HETATM   17  C   UNL     1     -10.650  14.254  68.350  1.00  0.00    -0.255 A  
HETATM   18  C   UNL     1     -10.797  13.376  67.298  1.00  0.00    -0.269 A  
HETATM   19  O   UNL     1      -9.606  12.769  67.031  1.00  0.00    -0.216 OA 
BRANCH  18  20
HETATM   20  C   UNL     1     -11.954  12.966  66.448  1.00  0.00    -0.395 C  
BRANCH  20  21
HETATM   21  N   UNL     1     -11.755  13.242  65.011  1.00  0.00    -0.321 NA 
HETATM   22  C   UNL     1     -12.639  12.419  64.180  1.00  0.00    -0.403 C  
HETATM   23  C   UNL     1     -12.015  14.660  64.750  1.00  0.00    -0.433 C  
ENDBRANCH  20  21
ENDBRANCH  18  20
ENDBRANCH  14  15
ENDBRANCH  13  14
ENDBRANCH  12  13
ENDBRANCH  11  12
ENDBRANCH   9  11
ENDBRANCH   4   9
ENDBRANCH   2   4
TORSDOF 9
ENDMDL
MODEL      286
REMARK 921   NORMALIZED FREE ENERGY PREDICTED BY IDOCK:   -3.31 KCAL/MOL
REMARK 922        TOTAL FREE ENERGY PREDICTED BY IDOCK:   -5.44 KCAL/MOL
REMARK 923 INTER-LIGAND FREE ENERGY PREDICTED BY IDOCK:   -4.85 KCAL/MOL
REMARK 924 INTRA-LIGAND FREE ENERGY PREDICTED BY IDOCK:   -0.59 KCAL/MOL
REMARK 927      BINDING AFFINITY PREDICTED BY RF-SCORE:    0.00 PKD
ROOT
HETATM    1  C   UNL     1     -10.520  17.648  67.810  1.00  0.00    -0.378 C  
HETATM    2  N   UNL     1     -10.929  16.263  67.755  1.00  0.00    -0.314 NA 
HETATM    3  H   UNL     1     -10.963  15.854  66.822  1.00  0.00     0.000 HD 
ENDROOT
BRANCH   2   4
HETATM    4  C   UNL     1     -11.283  15.414  68.790  1.00  0.00    -0.301 C  
HETATM    5  C   UNL     1     -12.369  15.706  69.540  1.00  0.00    -0.113 C  
HETATM    6  O   UNL     1     -12.274  13.814  70.889  1.00  0.00    -0.347 OA 
HETATM    7  N   UNL     1     -12.841  14.883  70.627  1.00  0.00    -0.359 N  
HETATM    8  O   UNL     1     -13.826  15.326  71.238  1.00  0.00    -0.482 OA 
BRANCH   4   9
HETATM    9  N   UNL     1     -10.484  14.311  69.025  1.00  0.00    -0.317 NA 
HETATM   10  H   UNL     1     -10.191  14.188  69.994  1.00  0.00     0.000 HD 
BRANCH   9  11
HETATM   11  C   UNL     1     -10.001  13.304  68.103  1.00  0.00    -0.234 C  
BRANCH  11  12
HETATM   12  C   UNL     1     -11.170  12.445  67.609  1.00  0.00    -0.288 C  
BRANCH  12  13
HETATM   13  S   UNL     1     -11.675  12.849  65.903  1.00  0.00    -0.421 SA 
BRANCH  13  14
HETATM   14  C   UNL     1     -11.147  11.323  65.057  1.00  0.00    -0.089 C  
BRANCH  14  15
HETATM   15  C   UNL     1      -9.874  10.827  65.626  1.00  0.00    -0.245 A  
HETATM   16  C   UNL     1      -8.559  11.212  65.494  1.00  0.00    -0.045 A  
HETATM   17  C   UNL     1      -7.805  10.323  66.298  1.00  0.00    -0.118 A  
HETATM   18  C   UNL     1      -8.705   9.445  66.865  1.00  0.00    -0.127 A  
HETATM   19  O   UNL     1      -9.968   9.743  66.448  1.00  0.00    -0.217 OA 
BRANCH  18  20
HETATM   20  C   UNL     1      -8.569   8.278  67.786  1.00  0.00    -0.131 C  
BRANCH  20  21
HETATM   21  N   UNL     1      -7.668   7.227  67.272  1.00  0.00    -0.107 NA 
HETATM   22  C   UNL     1      -7.415   6.197  68.285  1.00  0.00    -0.087 C  
HETATM   23  C   UNL     1      -8.270   6.612  66.087  1.00  0.00    -0.124 C  
ENDBRANCH  20  21
ENDBRANCH  18  20
ENDBRANCH  14  15
ENDBRANCH  13  14
ENDBRANCH  12  13
ENDBRANCH  11  12
ENDBRANCH   9  11
ENDBRANCH   4   9
ENDBRANCH   2   4
TORSDOF 9
ENDMDL
MODEL      287
REMARK 921   NORMALIZED FREE ENERGY PREDICTED BY IDOCK:   -3.31 KCAL/MOL
REMARK 922        TOTAL FREE ENERGY PREDICTED BY IDOCK:   -5.44 KCAL/MOL
REMARK 923 INTER-LIGAND FREE ENERGY PREDICTED BY IDOCK:   -5.13 KCAL/MOL
REMARK 924 INTRA-LIGAND FREE ENERGY PREDICTED BY IDOCK:   -0.31 KCAL/MOL
REMARK 927      BINDING AFFINITY PREDICTED BY RF-SCORE:    0.00 PKD
ROOT
HETATM    1  C   UNL     1      -8.824   8.800  70.503  1.00  0.00    -0.176 C  
HETATM    2  N   UNL     1      -8.875   9.301  69.148  1.00  0.00    -0.137 NA 
HETATM    3  H   UNL     1      -8.945  10.314  69.059  1.00  0.00     0.000 HD 
ENDROOT
BRANCH   2   4
HETATM    4  C   UNL     1      -8.844   8.600  67.955  1.00  0.00    -0.137 C  
HETATM    5  C   UNL     1      -7.903   7.645  67.776  1.00  0.00    -0.120 C  
HETATM    6  O   UNL     1      -8.616   6.966  65.670  1.00  0.00    -0.149 OA 
HETATM    7  N   UNL     1      -7.791   6.840  66.585  1.00  0.00    -0.105 N  
HETATM    8  O   UNL     1      -6.841   6.043  66.571  1.00  0.00    -0.058 OA 
BRANCH   4   9
HETATM    9  N   UNL     1      -9.770   8.930  66.984  1.00  0.00    -0.174 NA 
HETATM   10  H   UNL     1     -10.574   8.305  66.922  1.00  0.00     0.000 HD 
BRANCH   9  11
HETATM   11  C   UNL     1      -9.772  10.030  66.041  1.00  0.00    -0.240 C  
BRANCH  11  12
HETATM   12  C   UNL     1      -9.760  11.364  66.796  1.00  0.00    -0.198 C  
BRANCH  12  13
HETATM   13  S   UNL     1     -11.424  12.088  66.981  1.00  0.00    -0.317 SA 
BRANCH  13  14
HETATM   14  C   UNL     1     -11.549  12.112  68.800  1.00  0.00    -0.327 C  
BRANCH  14  15
HETATM   15  C   UNL     1     -11.631  13.502  69.298  1.00  0.00    -0.316 A  
HETATM   16  C   UNL     1     -12.403  14.128  70.250  1.00  0.00    -0.421 A  
HETATM   17  C   UNL     1     -12.004  15.486  70.252  1.00  0.00    -0.401 A  
HETATM   18  C   UNL     1     -11.018  15.608  69.296  1.00  0.00    -0.267 A  
HETATM   19  O   UNL     1     -10.795  14.401  68.704  1.00  0.00    -0.235 OA 
BRANCH  18  20
HETATM   20  C   UNL     1     -10.202  16.753  68.795  1.00  0.00    -0.299 C  
BRANCH  20  21
HETATM   21  N   UNL     1     -10.752  17.378  67.576  1.00  0.00    -0.322 NA 
HETATM   22  C   UNL     1     -10.641  18.839  67.626  1.00  0.00    -0.419 C  
HETATM   23  C   UNL     1     -10.032  16.871  66.405  1.00  0.00    -0.309 C  
ENDBRANCH  20  21
ENDBRANCH  18  20
ENDBRANCH  14  15
ENDBRANCH  13  14
ENDBRANCH  12  13
ENDBRANCH  11  12
ENDBRANCH   9  11
ENDBRANCH   4   9
ENDBRANCH   2   4
TORSDOF 9
ENDMDL
MODEL      288
REMARK 921   NORMALIZED FREE ENERGY PREDICTED BY IDOCK:   -3.30 KCAL/MOL
REMARK 922        TOTAL FREE ENERGY PREDICTED BY IDOCK:   -5.43 KCAL/MOL
REMARK 923 INTER-LIGAND FREE ENERGY PREDICTED BY IDOCK:   -4.89 KCAL/MOL
REMARK 924 INTRA-LIGAND FREE ENERGY PREDICTED BY IDOCK:   -0.54 KCAL/MOL
REMARK 927      BINDING AFFINITY PREDICTED BY RF-SCORE:    0.00 PKD
ROOT
HETATM    1  C   UNL     1     -13.383   9.006  71.903  1.00  0.00    -0.417 C  
HETATM    2  N   UNL     1     -12.615   7.862  72.339  1.00  0.00    -0.540 NA 
HETATM    3  H   UNL     1     -13.104   7.215  72.957  1.00  0.00     0.000 HD 
ENDROOT
BRANCH   2   4
HETATM    4  C   UNL     1     -11.308   7.519  72.035  1.00  0.00    -0.273 C  
HETATM    5  C   UNL     1     -10.298   8.256  72.549  1.00  0.00    -0.331 C  
HETATM    6  O   UNL     1      -8.567   6.987  71.655  1.00  0.00    -0.116 OA 
HETATM    7  N   UNL     1      -8.901   7.978  72.317  1.00  0.00    -0.148 N  
HETATM    8  O   UNL     1      -8.109   8.784  72.827  1.00  0.00    -0.398 OA 
BRANCH   4   9
HETATM    9  N   UNL     1     -11.099   6.444  71.193  1.00  0.00    -0.277 NA 
HETATM   10  H   UNL     1     -10.571   5.672  71.599  1.00  0.00     0.000 HD 
BRANCH   9  11
HETATM   11  C   UNL     1     -11.516   6.248  69.819  1.00  0.00    -0.379 C  
BRANCH  11  12
HETATM   12  C   UNL     1     -10.334   5.748  68.982  1.00  0.00    -0.245 C  
BRANCH  12  13
HETATM   13  S   UNL     1     -10.086   6.716  67.455  1.00  0.00    -0.181 SA 
BRANCH  13  14
HETATM   14  C   UNL     1     -10.701   8.338  68.017  1.00  0.00    -0.047 C  
BRANCH  14  15
HETATM   15  C   UNL     1     -10.119   9.427  67.201  1.00  0.00    -0.231 A  
HETATM   16  C   UNL     1     -10.595  10.638  66.753  1.00  0.00    -0.297 A  
HETATM   17  C   UNL     1      -9.544  11.221  66.005  1.00  0.00    -0.245 A  
HETATM   18  C   UNL     1      -8.495  10.327  66.035  1.00  0.00    -0.140 A  
HETATM   19  O   UNL     1      -8.846   9.225  66.756  1.00  0.00    -0.125 OA 
BRANCH  18  20
HETATM   20  C   UNL     1      -7.124  10.324  65.445  1.00  0.00    -0.139 C  
BRANCH  20  21
HETATM   21  N   UNL     1      -7.040   9.604  64.159  1.00  0.00    -0.114 NA 
HETATM   22  C   UNL     1      -7.952  10.177  63.164  1.00  0.00    -0.154 C  
HETATM   23  C   UNL     1      -5.665   9.668  63.657  1.00  0.00    -0.094 C  
ENDBRANCH  20  21
ENDBRANCH  18  20
ENDBRANCH  14  15
ENDBRANCH  13  14
ENDBRANCH  12  13
ENDBRANCH  11  12
ENDBRANCH   9  11
ENDBRANCH   4   9
ENDBRANCH   2   4
TORSDOF 9
ENDMDL
MODEL      289
REMARK 921   NORMALIZED FREE ENERGY PREDICTED BY IDOCK:   -3.30 KCAL/MOL
REMARK 922        TOTAL FREE ENERGY PREDICTED BY IDOCK:   -5.43 KCAL/MOL
REMARK 923 INTER-LIGAND FREE ENERGY PREDICTED BY IDOCK:   -5.35 KCAL/MOL
REMARK 924 INTRA-LIGAND FREE ENERGY PREDICTED BY IDOCK:   -0.08 KCAL/MOL
REMARK 927      BINDING AFFINITY PREDICTED BY RF-SCORE:    0.00 PKD
ROOT
HETATM    1  C   UNL     1      -8.540  20.296  67.163  1.00  0.00    -0.338 C  
HETATM    2  N   UNL     1      -9.836  19.661  67.083  1.00  0.00    -0.346 NA 
HETATM    3  H   UNL     1     -10.632  20.265  67.283  1.00  0.00     0.000 HD 
ENDROOT
BRANCH   2   4
HETATM    4  C   UNL     1     -10.148  18.348  66.772  1.00  0.00    -0.373 C  
HETATM    5  C   UNL     1     -10.605  18.055  65.535  1.00  0.00     0.012 C  
HETATM    6  O   UNL     1     -10.766  15.757  65.852  1.00  0.00    -0.321 OA 
HETATM    7  N   UNL     1     -10.940  16.722  65.096  1.00  0.00    -0.218 N  
HETATM    8  O   UNL     1     -11.389  16.641  63.943  1.00  0.00    -1.104 OA 
BRANCH   4   9
HETATM    9  N   UNL     1      -9.999  17.395  67.761  1.00  0.00    -0.289 NA 
HETATM   10  H   UNL     1     -10.850  17.168  68.276  1.00  0.00     0.000 HD 
BRANCH   9  11
HETATM   11  C   UNL     1      -8.816  16.670  68.179  1.00  0.00    -0.206 C  
BRANCH  11  12
HETATM   12  C   UNL     1      -9.221  15.343  68.831  1.00  0.00    -0.216 C  
BRANCH  12  13
HETATM   13  S   UNL     1      -7.812  14.207  69.063  1.00  0.00     0.060 SA 
BRANCH  13  14
HETATM   14  C   UNL     1      -7.640  13.580  67.360  1.00  0.00    -0.128 C  
BRANCH  14  15
HETATM   15  C   UNL     1      -8.586  12.469  67.116  1.00  0.00    -0.200 A  
HETATM   16  C   UNL     1      -9.021  11.406  67.876  1.00  0.00    -0.153 A  
HETATM   17  C   UNL     1      -9.933  10.689  67.064  1.00  0.00    -0.243 A  
HETATM   18  C   UNL     1      -9.991  11.352  65.856  1.00  0.00    -0.234 A  
HETATM   19  O   UNL     1      -9.162  12.433  65.881  1.00  0.00    -0.132 OA 
BRANCH  18  20
HETATM   20  C   UNL     1     -10.736  11.116  64.584  1.00  0.00    -0.280 C  
BRANCH  20  21
HETATM   21  N   UNL     1     -12.067  11.753  64.556  1.00  0.00    -0.145 NA 
HETATM   22  C   UNL     1     -12.013  13.130  65.058  1.00  0.00    -0.383 C  
HETATM   23  C   UNL     1     -12.575  11.752  63.181  1.00  0.00    -0.114 C  
ENDBRANCH  20  21
ENDBRANCH  18  20
ENDBRANCH  14  15
ENDBRANCH  13  14
ENDBRANCH  12  13
ENDBRANCH  11  12
ENDBRANCH   9  11
ENDBRANCH   4   9
ENDBRANCH   2   4
TORSDOF 9
ENDMDL
MODEL      290
REMARK 921   NORMALIZED FREE ENERGY PREDICTED BY IDOCK:   -3.30 KCAL/MOL
REMARK 922        TOTAL FREE ENERGY PREDICTED BY IDOCK:   -5.42 KCAL/MOL
REMARK 923 INTER-LIGAND FREE ENERGY PREDICTED BY IDOCK:   -4.89 KCAL/MOL
REMARK 924 INTRA-LIGAND FREE ENERGY PREDICTED BY IDOCK:   -0.53 KCAL/MOL
REMARK 927      BINDING AFFINITY PREDICTED BY RF-SCORE:    0.00 PKD
ROOT
HETATM    1  C   UNL     1      -7.446  12.285  68.548  1.00  0.00    -0.113 C  
HETATM    2  N   UNL     1      -8.852  12.616  68.595  1.00  0.00    -0.386 NA 
HETATM    3  H   UNL     1      -9.291  12.531  69.512  1.00  0.00     0.000 HD 
ENDROOT
BRANCH   2   4
HETATM    4  C   UNL     1      -9.688  13.031  67.572  1.00  0.00    -0.206 C  
HETATM    5  C   UNL     1      -9.800  14.352  67.308  1.00  0.00    -0.247 C  
HETATM    6  O   UNL     1     -11.238  14.136  65.494  1.00  0.00    -0.305 OA 
HETATM    7  N   UNL     1     -10.623  14.894  66.254  1.00  0.00    -0.299 N  
HETATM    8  O   UNL     1     -10.644  16.132  66.183  1.00  0.00    -0.313 OA 
BRANCH   4   9
HETATM    9  N   UNL     1     -10.393  12.065  66.879  1.00  0.00    -0.211 NA 
HETATM   10  H   UNL     1     -10.294  12.101  65.865  1.00  0.00     0.000 HD 
BRANCH   9  11
HETATM   11  C   UNL     1     -11.252  11.009  67.376  1.00  0.00    -0.285 C  
BRANCH  11  12
HETATM   12  C   UNL     1     -10.417   9.764  67.693  1.00  0.00    -0.251 C  
BRANCH  12  13
HETATM   13  S   UNL     1      -9.641   9.034  66.212  1.00  0.00    -0.276 SA 
BRANCH  13  14
HETATM   14  C   UNL     1      -8.635   7.734  67.000  1.00  0.00    -0.129 C  
BRANCH  14  15
HETATM   15  C   UNL     1      -9.439   6.984  67.991  1.00  0.00    -0.125 A  
HETATM   16  C   UNL     1     -10.530   6.151  67.896  1.00  0.00    -0.286 A  
HETATM   17  C   UNL     1     -10.837   5.751  69.219  1.00  0.00    -0.374 A  
HETATM   18  C   UNL     1      -9.920   6.370  70.041  1.00  0.00    -0.169 A  
HETATM   19  O   UNL     1      -9.071   7.133  69.295  1.00  0.00    -0.139 OA 
BRANCH  18  20
HETATM   20  C   UNL     1      -9.699   6.382  71.517  1.00  0.00    -0.168 C  
BRANCH  20  21
HETATM   21  N   UNL     1     -10.333   7.529  72.196  1.00  0.00    -0.203 NA 
HETATM   22  C   UNL     1     -11.628   7.159  72.777  1.00  0.00    -0.140 C  
HETATM   23  C   UNL     1      -9.444   8.018  73.253  1.00  0.00    -0.266 C  
ENDBRANCH  20  21
ENDBRANCH  18  20
ENDBRANCH  14  15
ENDBRANCH  13  14
ENDBRANCH  12  13
ENDBRANCH  11  12
ENDBRANCH   9  11
ENDBRANCH   4   9
ENDBRANCH   2   4
TORSDOF 9
ENDMDL
MODEL      291
REMARK 921   NORMALIZED FREE ENERGY PREDICTED BY IDOCK:   -3.29 KCAL/MOL
REMARK 922        TOTAL FREE ENERGY PREDICTED BY IDOCK:   -5.41 KCAL/MOL
REMARK 923 INTER-LIGAND FREE ENERGY PREDICTED BY IDOCK:   -5.15 KCAL/MOL
REMARK 924 INTRA-LIGAND FREE ENERGY PREDICTED BY IDOCK:   -0.26 KCAL/MOL
REMARK 927      BINDING AFFINITY PREDICTED BY RF-SCORE:    0.00 PKD
ROOT
HETATM    1  C   UNL     1     -10.653   6.539  67.752  1.00  0.00    -0.259 C  
HETATM    2  N   UNL     1      -9.991   7.552  68.541  1.00  0.00    -0.163 NA 
HETATM    3  H   UNL     1      -9.847   8.447  68.073  1.00  0.00     0.000 HD 
ENDROOT
BRANCH   2   4
HETATM    4  C   UNL     1      -9.525   7.480  69.843  1.00  0.00    -0.160 C  
HETATM    5  C   UNL     1      -8.272   7.027  70.070  1.00  0.00    -0.133 C  
HETATM    6  O   UNL     1      -8.300   7.322  72.376  1.00  0.00    -0.106 OA 
HETATM    7  N   UNL     1      -7.677   6.930  71.380  1.00  0.00    -0.091 N  
HETATM    8  O   UNL     1      -6.534   6.449  71.409  1.00  0.00    -0.047 OA 
BRANCH   4   9
HETATM    9  N   UNL     1     -10.382   7.856  70.860  1.00  0.00    -0.200 NA 
HETATM   10  H   UNL     1     -10.017   7.728  71.803  1.00  0.00     0.000 HD 
BRANCH   9  11
HETATM   11  C   UNL     1     -11.721   8.405  70.788  1.00  0.00    -0.202 C  
BRANCH  11  12
HETATM   12  C   UNL     1     -11.694   9.894  71.153  1.00  0.00    -0.396 C  
BRANCH  12  13
HETATM   13  S   UNL     1     -12.375  10.959  69.838  1.00  0.00    -0.218 SA 
BRANCH  13  14
HETATM   14  C   UNL     1     -12.518  12.527  70.756  1.00  0.00    -0.268 C  
BRANCH  14  15
HETATM   15  C   UNL     1     -12.135  13.670  69.897  1.00  0.00    -0.341 A  
HETATM   16  C   UNL     1     -11.819  14.985  70.149  1.00  0.00    -0.357 A  
HETATM   17  C   UNL     1     -11.547  15.574  68.890  1.00  0.00    -0.384 A  
HETATM   18  C   UNL     1     -11.721  14.584  67.947  1.00  0.00    -0.351 A  
HETATM   19  O   UNL     1     -12.091  13.422  68.557  1.00  0.00    -0.352 OA 
BRANCH  18  20
HETATM   20  C   UNL     1     -11.607  14.544  66.459  1.00  0.00    -0.371 C  
BRANCH  20  21
HETATM   21  N   UNL     1     -10.218  14.652  65.973  1.00  0.00    -0.295 NA 
HETATM   22  C   UNL     1      -9.259  14.192  66.983  1.00  0.00    -0.239 C  
HETATM   23  C   UNL     1     -10.067  13.852  64.755  1.00  0.00    -0.215 C  
ENDBRANCH  20  21
ENDBRANCH  18  20
ENDBRANCH  14  15
ENDBRANCH  13  14
ENDBRANCH  12  13
ENDBRANCH  11  12
ENDBRANCH   9  11
ENDBRANCH   4   9
ENDBRANCH   2   4
TORSDOF 9
ENDMDL
MODEL      292
REMARK 921   NORMALIZED FREE ENERGY PREDICTED BY IDOCK:   -3.29 KCAL/MOL
REMARK 922        TOTAL FREE ENERGY PREDICTED BY IDOCK:   -5.41 KCAL/MOL
REMARK 923 INTER-LIGAND FREE ENERGY PREDICTED BY IDOCK:   -4.88 KCAL/MOL
REMARK 924 INTRA-LIGAND FREE ENERGY PREDICTED BY IDOCK:   -0.53 KCAL/MOL
REMARK 927      BINDING AFFINITY PREDICTED BY RF-SCORE:    0.00 PKD
ROOT
HETATM    1  C   UNL     1     -12.144  15.729  70.551  1.00  0.00    -0.374 C  
HETATM    2  N   UNL     1     -11.670  16.198  69.269  1.00  0.00    -0.279 NA 
HETATM    3  H   UNL     1     -12.226  16.937  68.840  1.00  0.00     0.000 HD 
ENDROOT
BRANCH   2   4
HETATM    4  C   UNL     1     -10.568  15.784  68.540  1.00  0.00    -0.253 C  
HETATM    5  C   UNL     1      -9.485  15.310  69.196  1.00  0.00    -0.236 C  
HETATM    6  O   UNL     1      -8.237  14.793  67.303  1.00  0.00    -0.188 OA 
HETATM    7  N   UNL     1      -8.292  14.833  68.539  1.00  0.00    -0.153 N  
HETATM    8  O   UNL     1      -7.377  14.476  69.296  1.00  0.00    -0.144 OA 
BRANCH   4   9
HETATM    9  N   UNL     1     -10.619  15.902  67.164  1.00  0.00    -0.315 NA 
HETATM   10  H   UNL     1     -10.180  16.740  66.784  1.00  0.00     0.000 HD 
BRANCH   9  11
HETATM   11  C   UNL     1     -11.202  15.013  66.179  1.00  0.00    -0.307 C  
BRANCH  11  12
HETATM   12  C   UNL     1     -12.246  14.110  66.846  1.00  0.00    -0.365 C  
BRANCH  12  13
HETATM   13  S   UNL     1     -11.659  12.397  67.074  1.00  0.00    -0.353 SA 
BRANCH  13  14
HETATM   14  C   UNL     1     -10.412  12.320  65.747  1.00  0.00    -0.255 C  
BRANCH  14  15
HETATM   15  C   UNL     1      -9.423  11.255  66.023  1.00  0.00    -0.216 A  
HETATM   16  C   UNL     1      -8.063  11.251  66.234  1.00  0.00    -0.108 A  
HETATM   17  C   UNL     1      -7.700   9.898  66.440  1.00  0.00    -0.104 A  
HETATM   18  C   UNL     1      -8.859   9.159  66.334  1.00  0.00    -0.141 A  
HETATM   19  O   UNL     1      -9.911   9.983  66.069  1.00  0.00    -0.241 OA 
BRANCH  18  20
HETATM   20  C   UNL     1      -9.166   7.701  66.430  1.00  0.00    -0.175 C  
BRANCH  20  21
HETATM   21  N   UNL     1     -10.136   7.374  67.493  1.00  0.00    -0.174 NA 
HETATM   22  C   UNL     1     -10.878   6.148  67.183  1.00  0.00    -0.360 C  
HETATM   23  C   UNL     1      -9.425   7.208  68.763  1.00  0.00    -0.141 C  
ENDBRANCH  20  21
ENDBRANCH  18  20
ENDBRANCH  14  15
ENDBRANCH  13  14
ENDBRANCH  12  13
ENDBRANCH  11  12
ENDBRANCH   9  11
ENDBRANCH   4   9
ENDBRANCH   2   4
TORSDOF 9
ENDMDL
MODEL      293
REMARK 921   NORMALIZED FREE ENERGY PREDICTED BY IDOCK:   -3.29 KCAL/MOL
REMARK 922        TOTAL FREE ENERGY PREDICTED BY IDOCK:   -5.40 KCAL/MOL
REMARK 923 INTER-LIGAND FREE ENERGY PREDICTED BY IDOCK:   -5.09 KCAL/MOL
REMARK 924 INTRA-LIGAND FREE ENERGY PREDICTED BY IDOCK:   -0.31 KCAL/MOL
REMARK 927      BINDING AFFINITY PREDICTED BY RF-SCORE:    0.00 PKD
ROOT
HETATM    1  C   UNL     1     -10.646  13.282  64.192  1.00  0.00    -0.309 C  
HETATM    2  N   UNL     1     -10.925  14.637  64.610  1.00  0.00    -0.582 NA 
HETATM    3  H   UNL     1     -11.008  15.319  63.857  1.00  0.00     0.000 HD 
ENDROOT
BRANCH   2   4
HETATM    4  C   UNL     1     -11.096  15.140  65.889  1.00  0.00    -0.319 C  
HETATM    5  C   UNL     1     -11.476  14.303  66.880  1.00  0.00    -0.363 C  
HETATM    6  O   UNL     1     -11.423  15.880  68.589  1.00  0.00    -0.363 OA 
HETATM    7  N   UNL     1     -11.663  14.713  68.251  1.00  0.00    -0.328 N  
HETATM    8  O   UNL     1     -12.059  13.824  69.020  1.00  0.00    -0.346 OA 
BRANCH   4   9
HETATM    9  N   UNL     1     -10.891  16.492  66.086  1.00  0.00    -0.130 NA 
HETATM   10  H   UNL     1     -11.706  17.082  65.918  1.00  0.00     0.000 HD 
BRANCH   9  11
HETATM   11  C   UNL     1      -9.694  17.198  66.496  1.00  0.00    -0.287 C  
BRANCH  11  12
HETATM   12  C   UNL     1      -8.457  16.344  66.197  1.00  0.00    -0.294 C  
BRANCH  12  13
HETATM   13  S   UNL     1      -6.893  17.209  66.564  1.00  0.00    -0.256 SA 
BRANCH  13  14
HETATM   14  C   UNL     1      -6.451  16.392  68.133  1.00  0.00    -0.129 C  
BRANCH  14  15
HETATM   15  C   UNL     1      -6.898  14.981  68.129  1.00  0.00    -0.131 A  
HETATM   16  C   UNL     1      -7.960  14.318  68.702  1.00  0.00    -0.139 A  
HETATM   17  C   UNL     1      -7.825  12.960  68.325  1.00  0.00    -0.142 A  
HETATM   18  C   UNL     1      -6.687  12.875  67.553  1.00  0.00    -0.154 A  
HETATM   19  O   UNL     1      -6.112  14.106  67.440  1.00  0.00    -0.343 OA 
BRANCH  18  20
HETATM   20  C   UNL     1      -5.985  11.751  66.866  1.00  0.00    -0.140 C  
BRANCH  20  21
HETATM   21  N   UNL     1      -6.905  10.776  66.247  1.00  0.00    -0.132 NA 
HETATM   22  C   UNL     1      -6.409  10.326  64.942  1.00  0.00    -0.121 C  
HETATM   23  C   UNL     1      -7.059   9.623  67.137  1.00  0.00    -0.086 C  
ENDBRANCH  20  21
ENDBRANCH  18  20
ENDBRANCH  14  15
ENDBRANCH  13  14
ENDBRANCH  12  13
ENDBRANCH  11  12
ENDBRANCH   9  11
ENDBRANCH   4   9
ENDBRANCH   2   4
TORSDOF 9
ENDMDL
MODEL      294
REMARK 921   NORMALIZED FREE ENERGY PREDICTED BY IDOCK:   -3.29 KCAL/MOL
REMARK 922        TOTAL FREE ENERGY PREDICTED BY IDOCK:   -5.40 KCAL/MOL
REMARK 923 INTER-LIGAND FREE ENERGY PREDICTED BY IDOCK:   -4.80 KCAL/MOL
REMARK 924 INTRA-LIGAND FREE ENERGY PREDICTED BY IDOCK:   -0.60 KCAL/MOL
REMARK 927      BINDING AFFINITY PREDICTED BY RF-SCORE:    0.00 PKD
ROOT
HETATM    1  C   UNL     1      -8.634  18.364  67.679  1.00  0.00    -0.259 C  
HETATM    2  N   UNL     1      -8.696  16.923  67.586  1.00  0.00    -0.208 NA 
HETATM    3  H   UNL     1      -8.234  16.416  68.340  1.00  0.00     0.000 HD 
ENDROOT
BRANCH   2   4
HETATM    4  C   UNL     1      -9.294  16.134  66.618  1.00  0.00    -0.242 C  
HETATM    5  C   UNL     1     -10.211  16.686  65.793  1.00  0.00    -0.307 C  
HETATM    6  O   UNL     1     -10.589  14.784  64.509  1.00  0.00    -0.293 OA 
HETATM    7  N   UNL     1     -10.880  15.966  64.737  1.00  0.00    -0.416 N  
HETATM    8  O   UNL     1     -11.727  16.616  64.106  1.00  0.00    -1.034 OA 
BRANCH   4   9
HETATM    9  N   UNL     1      -8.938  14.800  66.558  1.00  0.00    -0.399 NA 
HETATM   10  H   UNL     1      -8.519  14.503  65.677  1.00  0.00     0.000 HD 
BRANCH   9  11
HETATM   11  C   UNL     1      -9.072  13.760  67.558  1.00  0.00    -0.209 C  
BRANCH  11  12
HETATM   12  C   UNL     1     -10.543  13.351  67.692  1.00  0.00    -0.243 C  
BRANCH  12  13
HETATM   13  S   UNL     1     -10.754  11.583  68.091  1.00  0.00    -0.219 SA 
BRANCH  13  14
HETATM   14  C   UNL     1      -9.312  11.340  69.180  1.00  0.00     0.102 C  
BRANCH  14  15
HETATM   15  C   UNL     1      -8.445  10.259  68.662  1.00  0.00    -0.127 A  
HETATM   16  C   UNL     1      -7.094  10.005  68.734  1.00  0.00    -0.071 A  
HETATM   17  C   UNL     1      -6.881   8.800  68.022  1.00  0.00    -0.070 A  
HETATM   18  C   UNL     1      -8.112   8.397  67.551  1.00  0.00    -0.110 A  
HETATM   19  O   UNL     1      -9.068   9.291  67.931  1.00  0.00    -0.128 OA 
BRANCH  18  20
HETATM   20  C   UNL     1      -8.576   7.239  66.731  1.00  0.00    -0.127 C  
BRANCH  20  21
HETATM   21  N   UNL     1      -9.265   6.199  67.520  1.00  0.00    -0.113 NA 
HETATM   22  C   UNL     1     -10.259   5.485  66.713  1.00  0.00    -0.233 C  
HETATM   23  C   UNL     1      -8.276   5.247  68.034  1.00  0.00    -0.098 C  
ENDBRANCH  20  21
ENDBRANCH  18  20
ENDBRANCH  14  15
ENDBRANCH  13  14
ENDBRANCH  12  13
ENDBRANCH  11  12
ENDBRANCH   9  11
ENDBRANCH   4   9
ENDBRANCH   2   4
TORSDOF 9
ENDMDL
MODEL      295
REMARK 921   NORMALIZED FREE ENERGY PREDICTED BY IDOCK:   -3.28 KCAL/MOL
REMARK 922        TOTAL FREE ENERGY PREDICTED BY IDOCK:   -5.40 KCAL/MOL
REMARK 923 INTER-LIGAND FREE ENERGY PREDICTED BY IDOCK:   -4.97 KCAL/MOL
REMARK 924 INTRA-LIGAND FREE ENERGY PREDICTED BY IDOCK:   -0.43 KCAL/MOL
REMARK 927      BINDING AFFINITY PREDICTED BY RF-SCORE:    0.00 PKD
ROOT
HETATM    1  C   UNL     1     -10.928   6.508  66.908  1.00  0.00    -0.338 C  
HETATM    2  N   UNL     1      -9.555   6.104  66.708  1.00  0.00    -0.144 NA 
HETATM    3  H   UNL     1      -9.424   5.157  66.353  1.00  0.00     0.000 HD 
ENDROOT
BRANCH   2   4
HETATM    4  C   UNL     1      -8.392   6.821  66.931  1.00  0.00    -0.114 C  
HETATM    5  C   UNL     1      -7.435   6.838  65.977  1.00  0.00    -0.081 C  
HETATM    6  O   UNL     1      -5.980   8.271  67.088  1.00  0.00    -0.050 OA 
HETATM    7  N   UNL     1      -6.195   7.568  66.093  1.00  0.00    -0.041 N  
HETATM    8  O   UNL     1      -5.411   7.434  65.142  1.00  0.00    -0.028 OA 
BRANCH   4   9
HETATM    9  N   UNL     1      -8.254   7.472  68.142  1.00  0.00    -0.124 NA 
HETATM   10  H   UNL     1      -7.558   7.073  68.772  1.00  0.00     0.000 HD 
BRANCH   9  11
HETATM   11  C   UNL     1      -8.948   8.637  68.653  1.00  0.00    -0.142 C  
BRANCH  11  12
HETATM   12  C   UNL     1      -9.160   8.497  70.164  1.00  0.00    -0.152 C  
BRANCH  12  13
HETATM   13  S   UNL     1     -10.653   9.363  70.755  1.00  0.00    -0.327 SA 
BRANCH  13  14
HETATM   14  C   UNL     1     -11.267  10.029  69.173  1.00  0.00    -0.149 C  
BRANCH  14  15
HETATM   15  C   UNL     1     -11.614  11.461  69.311  1.00  0.00    -0.317 A  
HETATM   16  C   UNL     1     -12.077  12.231  70.353  1.00  0.00    -0.385 A  
HETATM   17  C   UNL     1     -12.220  13.544  69.841  1.00  0.00    -0.356 A  
HETATM   18  C   UNL     1     -11.844  13.492  68.515  1.00  0.00    -0.362 A  
HETATM   19  O   UNL     1     -11.484  12.220  68.186  1.00  0.00    -0.270 OA 
BRANCH  18  20
HETATM   20  C   UNL     1     -11.776  14.505  67.421  1.00  0.00    -0.400 C  
BRANCH  20  21
HETATM   21  N   UNL     1     -11.465  13.923  66.101  1.00  0.00    -0.335 NA 
HETATM   22  C   UNL     1     -12.658  13.859  65.249  1.00  0.00    -0.478 C  
HETATM   23  C   UNL     1     -10.437  14.735  65.444  1.00  0.00    -0.380 C  
ENDBRANCH  20  21
ENDBRANCH  18  20
ENDBRANCH  14  15
ENDBRANCH  13  14
ENDBRANCH  12  13
ENDBRANCH  11  12
ENDBRANCH   9  11
ENDBRANCH   4   9
ENDBRANCH   2   4
TORSDOF 9
ENDMDL
MODEL      296
REMARK 921   NORMALIZED FREE ENERGY PREDICTED BY IDOCK:   -3.27 KCAL/MOL
REMARK 922        TOTAL FREE ENERGY PREDICTED BY IDOCK:   -5.39 KCAL/MOL
REMARK 923 INTER-LIGAND FREE ENERGY PREDICTED BY IDOCK:   -4.80 KCAL/MOL
REMARK 924 INTRA-LIGAND FREE ENERGY PREDICTED BY IDOCK:   -0.58 KCAL/MOL
REMARK 927      BINDING AFFINITY PREDICTED BY RF-SCORE:    0.00 PKD
ROOT
HETATM    1  C   UNL     1     -12.285  15.338  70.140  1.00  0.00    -0.364 C  
HETATM    2  N   UNL     1     -11.791  15.903  68.905  1.00  0.00    -0.465 NA 
HETATM    3  H   UNL     1     -12.363  16.646  68.504  1.00  0.00     0.000 HD 
ENDROOT
BRANCH   2   4
HETATM    4  C   UNL     1     -10.652  15.577  68.189  1.00  0.00    -0.266 C  
HETATM    5  C   UNL     1      -9.625  14.971  68.825  1.00  0.00    -0.220 C  
HETATM    6  O   UNL     1      -8.266  14.725  66.955  1.00  0.00    -0.203 OA 
HETATM    7  N   UNL     1      -8.401  14.568  68.175  1.00  0.00    -0.140 N  
HETATM    8  O   UNL     1      -7.546  14.067  68.920  1.00  0.00    -0.123 OA 
BRANCH   4   9
HETATM    9  N   UNL     1     -10.610  15.914  66.850  1.00  0.00    -0.314 NA 
HETATM   10  H   UNL     1     -10.200  16.825  66.645  1.00  0.00     0.000 HD 
BRANCH   9  11
HETATM   11  C   UNL     1     -11.060  15.167  65.692  1.00  0.00    -0.334 C  
BRANCH  11  12
HETATM   12  C   UNL     1     -12.287  14.327  66.059  1.00  0.00    -0.395 C  
BRANCH  12  13
HETATM   13  S   UNL     1     -11.886  12.568  66.334  1.00  0.00    -0.322 SA 
BRANCH  13  14
HETATM   14  C   UNL     1     -10.411  12.420  65.273  1.00  0.00    -0.282 C  
BRANCH  14  15
HETATM   15  C   UNL     1      -9.693  11.157  65.553  1.00  0.00    -0.228 A  
HETATM   16  C   UNL     1      -9.870   9.853  65.152  1.00  0.00    -0.348 A  
HETATM   17  C   UNL     1      -8.844   9.105  65.779  1.00  0.00    -0.210 A  
HETATM   18  C   UNL     1      -8.109   9.996  66.530  1.00  0.00    -0.119 A  
HETATM   19  O   UNL     1      -8.631  11.249  66.404  1.00  0.00    -0.168 OA 
BRANCH  18  20
HETATM   20  C   UNL     1      -6.923   9.860  67.426  1.00  0.00    -0.083 C  
BRANCH  20  21
HETATM   21  N   UNL     1      -7.254   9.976  68.860  1.00  0.00    -0.074 NA 
HETATM   22  C   UNL     1      -7.212   8.671  69.527  1.00  0.00    -0.060 C  
HETATM   23  C   UNL     1      -6.302  10.886  69.503  1.00  0.00    -0.082 C  
ENDBRANCH  20  21
ENDBRANCH  18  20
ENDBRANCH  14  15
ENDBRANCH  13  14
ENDBRANCH  12  13
ENDBRANCH  11  12
ENDBRANCH   9  11
ENDBRANCH   4   9
ENDBRANCH   2   4
TORSDOF 9
ENDMDL
MODEL      297
REMARK 921   NORMALIZED FREE ENERGY PREDICTED BY IDOCK:   -3.26 KCAL/MOL
REMARK 922        TOTAL FREE ENERGY PREDICTED BY IDOCK:   -5.36 KCAL/MOL
REMARK 923 INTER-LIGAND FREE ENERGY PREDICTED BY IDOCK:   -4.80 KCAL/MOL
REMARK 924 INTRA-LIGAND FREE ENERGY PREDICTED BY IDOCK:   -0.56 KCAL/MOL
REMARK 927      BINDING AFFINITY PREDICTED BY RF-SCORE:    0.00 PKD
ROOT
HETATM    1  C   UNL     1      -8.882  12.888  66.726  1.00  0.00    -0.147 C  
HETATM    2  N   UNL     1      -9.879  13.053  67.759  1.00  0.00    -0.218 NA 
HETATM    3  H   UNL     1     -10.476  12.243  67.925  1.00  0.00     0.000 HD 
ENDROOT
BRANCH   2   4
HETATM    4  C   UNL     1     -10.140  14.156  68.554  1.00  0.00    -0.243 C  
HETATM    5  C   UNL     1     -11.355  14.279  69.133  1.00  0.00    -0.276 C  
HETATM    6  O   UNL     1     -10.899  16.245  70.288  1.00  0.00    -0.319 OA 
HETATM    7  N   UNL     1     -11.728  15.373  69.997  1.00  0.00    -0.300 N  
HETATM    8  O   UNL     1     -12.899  15.351  70.404  1.00  0.00    -0.390 OA 
BRANCH   4   9
HETATM    9  N   UNL     1      -9.142  15.101  68.699  1.00  0.00    -0.187 NA 
HETATM   10  H   UNL     1      -9.240  15.928  68.110  1.00  0.00     0.000 HD 
BRANCH   9  11
HETATM   11  C   UNL     1      -7.977  15.094  69.561  1.00  0.00    -0.175 C  
BRANCH  11  12
HETATM   12  C   UNL     1      -6.704  14.975  68.716  1.00  0.00    -0.099 C  
BRANCH  12  13
HETATM   13  S   UNL     1      -5.236  15.674  69.544  1.00  0.00    -0.105 SA 
BRANCH  13  14
HETATM   14  C   UNL     1      -5.603  17.451  69.371  1.00  0.00    -0.201 C  
BRANCH  14  15
HETATM   15  C   UNL     1      -6.123  17.746  68.017  1.00  0.00    -0.164 A  
HETATM   16  C   UNL     1      -5.531  17.914  66.786  1.00  0.00    -0.179 A  
HETATM   17  C   UNL     1      -6.582  18.185  65.877  1.00  0.00    -0.316 A  
HETATM   18  C   UNL     1      -7.749  18.174  66.609  1.00  0.00    -0.236 A  
HETATM   19  O   UNL     1      -7.472  17.917  67.918  1.00  0.00    -0.208 OA 
BRANCH  18  20
HETATM   20  C   UNL     1      -9.185  18.396  66.266  1.00  0.00    -0.207 C  
BRANCH  20  21
HETATM   21  N   UNL     1      -9.622  19.794  66.448  1.00  0.00    -0.387 NA 
HETATM   22  C   UNL     1     -10.615  20.180  65.440  1.00  0.00    -0.018 C  
HETATM   23  C   UNL     1     -10.196  19.952  67.787  1.00  0.00    -0.429 C  
ENDBRANCH  20  21
ENDBRANCH  18  20
ENDBRANCH  14  15
ENDBRANCH  13  14
ENDBRANCH  12  13
ENDBRANCH  11  12
ENDBRANCH   9  11
ENDBRANCH   4   9
ENDBRANCH   2   4
TORSDOF 9
ENDMDL
MODEL      298
REMARK 921   NORMALIZED FREE ENERGY PREDICTED BY IDOCK:   -3.25 KCAL/MOL
REMARK 922        TOTAL FREE ENERGY PREDICTED BY IDOCK:   -5.35 KCAL/MOL
REMARK 923 INTER-LIGAND FREE ENERGY PREDICTED BY IDOCK:   -4.61 KCAL/MOL
REMARK 924 INTRA-LIGAND FREE ENERGY PREDICTED BY IDOCK:   -0.74 KCAL/MOL
REMARK 927      BINDING AFFINITY PREDICTED BY RF-SCORE:    0.00 PKD
ROOT
HETATM    1  C   UNL     1     -11.517  10.795  69.794  1.00  0.00    -0.311 C  
HETATM    2  N   UNL     1     -11.266   9.374  69.711  1.00  0.00    -0.398 NA 
HETATM    3  H   UNL     1     -11.548   8.929  68.838  1.00  0.00     0.000 HD 
ENDROOT
BRANCH   2   4
HETATM    4  C   UNL     1     -10.697   8.531  70.651  1.00  0.00    -0.220 C  
HETATM    5  C   UNL     1      -9.725   9.007  71.460  1.00  0.00    -0.295 C  
HETATM    6  O   UNL     1      -9.442   7.063  72.703  1.00  0.00    -0.141 OA 
HETATM    7  N   UNL     1      -9.078   8.226  72.487  1.00  0.00    -0.230 N  
HETATM    8  O   UNL     1      -8.175   8.808  73.105  1.00  0.00    -0.411 OA 
BRANCH   4   9
HETATM    9  N   UNL     1     -11.139   7.223  70.700  1.00  0.00    -0.257 NA 
HETATM   10  H   UNL     1     -11.333   6.865  71.635  1.00  0.00     0.000 HD 
BRANCH   9  11
HETATM   11  C   UNL     1     -11.369   6.281  69.623  1.00  0.00    -0.422 C  
BRANCH  11  12
HETATM   12  C   UNL     1     -10.080   5.510  69.320  1.00  0.00    -0.223 C  
BRANCH  12  13
HETATM   13  S   UNL     1      -9.184   6.168  67.873  1.00  0.00    -0.114 SA 
BRANCH  13  14
HETATM   14  C   UNL     1     -10.500   7.192  67.136  1.00  0.00    -0.319 C  
BRANCH  14  15
HETATM   15  C   UNL     1      -9.960   8.500  66.703  1.00  0.00    -0.293 A  
HETATM   16  C   UNL     1     -10.515   9.606  66.100  1.00  0.00    -0.111 A  
HETATM   17  C   UNL     1      -9.461  10.538  65.939  1.00  0.00    -0.236 A  
HETATM   18  C   UNL     1      -8.327   9.941  66.446  1.00  0.00    -0.125 A  
HETATM   19  O   UNL     1      -8.625   8.692  66.903  1.00  0.00    -0.117 OA 
BRANCH  18  20
HETATM   20  C   UNL     1      -6.902  10.368  66.567  1.00  0.00    -0.107 C  
BRANCH  20  21
HETATM   21  N   UNL     1      -6.660  11.296  67.690  1.00  0.00    -0.068 NA 
HETATM   22  C   UNL     1      -6.926  12.685  67.304  1.00  0.00    -0.100 C  
HETATM   23  C   UNL     1      -7.522  10.927  68.816  1.00  0.00    -0.112 C  
ENDBRANCH  20  21
ENDBRANCH  18  20
ENDBRANCH  14  15
ENDBRANCH  13  14
ENDBRANCH  12  13
ENDBRANCH  11  12
ENDBRANCH   9  11
ENDBRANCH   4   9
ENDBRANCH   2   4
TORSDOF 9
ENDMDL
MODEL      299
REMARK 921   NORMALIZED FREE ENERGY PREDICTED BY IDOCK:   -3.25 KCAL/MOL
REMARK 922        TOTAL FREE ENERGY PREDICTED BY IDOCK:   -5.35 KCAL/MOL
REMARK 923 INTER-LIGAND FREE ENERGY PREDICTED BY IDOCK:   -5.17 KCAL/MOL
REMARK 924 INTRA-LIGAND FREE ENERGY PREDICTED BY IDOCK:   -0.17 KCAL/MOL
REMARK 927      BINDING AFFINITY PREDICTED BY RF-SCORE:    0.00 PKD
ROOT
HETATM    1  C   UNL     1     -12.346  14.327  64.591  1.00  0.00    -0.415 C  
HETATM    2  N   UNL     1     -12.010  14.184  65.989  1.00  0.00    -0.396 NA 
HETATM    3  H   UNL     1     -12.652  13.612  66.537  1.00  0.00     0.000 HD 
ENDROOT
BRANCH   2   4
HETATM    4  C   UNL     1     -10.941  14.715  66.690  1.00  0.00    -0.323 C  
HETATM    5  C   UNL     1     -10.892  16.048  66.907  1.00  0.00    -0.203 C  
HETATM    6  O   UNL     1      -8.934  16.039  68.161  1.00  0.00    -0.179 OA 
HETATM    7  N   UNL     1      -9.839  16.706  67.642  1.00  0.00    -0.252 N  
HETATM    8  O   UNL     1      -9.928  17.941  67.706  1.00  0.00    -0.303 OA 
BRANCH   4   9
HETATM    9  N   UNL     1      -9.951  13.850  67.116  1.00  0.00    -0.236 NA 
HETATM   10  H   UNL     1      -9.001  14.118  66.860  1.00  0.00     0.000 HD 
BRANCH   9  11
HETATM   11  C   UNL     1     -10.060  12.618  67.871  1.00  0.00    -0.222 C  
BRANCH  11  12
HETATM   12  C   UNL     1     -10.683  11.524  66.997  1.00  0.00    -0.259 C  
BRANCH  12  13
HETATM   13  S   UNL     1      -9.438  10.422  66.245  1.00  0.00    -0.179 SA 
BRANCH  13  14
HETATM   14  C   UNL     1     -10.261   8.815  66.491  1.00  0.00    -0.244 C  
BRANCH  14  15
HETATM   15  C   UNL     1      -9.942   8.265  67.828  1.00  0.00    -0.186 A  
HETATM   16  C   UNL     1      -8.840   7.633  68.358  1.00  0.00    -0.130 A  
HETATM   17  C   UNL     1      -9.162   7.345  69.706  1.00  0.00    -0.140 A  
HETATM   18  C   UNL     1     -10.442   7.811  69.914  1.00  0.00    -0.232 A  
HETATM   19  O   UNL     1     -10.926   8.364  68.766  1.00  0.00    -0.014 OA 
BRANCH  18  20
HETATM   20  C   UNL     1     -11.363   7.810  71.089  1.00  0.00    -0.269 C  
BRANCH  20  21
HETATM   21  N   UNL     1     -12.254   8.987  71.137  1.00  0.00    -0.295 NA 
HETATM   22  C   UNL     1     -13.213   8.887  72.242  1.00  0.00    -0.447 C  
HETATM   23  C   UNL     1     -11.446  10.198  71.298  1.00  0.00    -0.249 C  
ENDBRANCH  20  21
ENDBRANCH  18  20
ENDBRANCH  14  15
ENDBRANCH  13  14
ENDBRANCH  12  13
ENDBRANCH  11  12
ENDBRANCH   9  11
ENDBRANCH   4   9
ENDBRANCH   2   4
TORSDOF 9
ENDMDL
MODEL      300
REMARK 921   NORMALIZED FREE ENERGY PREDICTED BY IDOCK:   -3.24 KCAL/MOL
REMARK 922        TOTAL FREE ENERGY PREDICTED BY IDOCK:   -5.33 KCAL/MOL
REMARK 923 INTER-LIGAND FREE ENERGY PREDICTED BY IDOCK:   -4.87 KCAL/MOL
REMARK 924 INTRA-LIGAND FREE ENERGY PREDICTED BY IDOCK:   -0.46 KCAL/MOL
REMARK 927      BINDING AFFINITY PREDICTED BY RF-SCORE:    0.00 PKD
ROOT
HETATM    1  C   UNL     1     -10.773   7.585  67.130  1.00  0.00    -0.309 C  
HETATM    2  N   UNL     1      -9.445   8.141  67.012  1.00  0.00    -0.165 NA 
HETATM    3  H   UNL     1      -9.308   8.788  66.236  1.00  0.00     0.000 HD 
ENDROOT
BRANCH   2   4
HETATM    4  C   UNL     1      -8.331   7.919  67.804  1.00  0.00    -0.129 C  
HETATM    5  C   UNL     1      -7.518   6.876  67.521  1.00  0.00    -0.097 C  
HETATM    6  O   UNL     1      -5.957   7.298  69.191  1.00  0.00    -0.025 OA 
HETATM    7  N   UNL     1      -6.322   6.564  68.263  1.00  0.00    -0.036 N  
HETATM    8  O   UNL     1      -5.720   5.544  67.895  1.00  0.00    -0.012 OA 
BRANCH   4   9
HETATM    9  N   UNL     1      -8.115   8.768  68.873  1.00  0.00    -0.112 NA 
HETATM   10  H   UNL     1      -7.269   9.333  68.813  1.00  0.00     0.000 HD 
BRANCH   9  11
HETATM   11  C   UNL     1      -8.911   8.976  70.066  1.00  0.00    -0.173 C  
BRANCH  11  12
HETATM   12  C   UNL     1      -9.062   7.655  70.829  1.00  0.00    -0.153 C  
BRANCH  12  13
HETATM   13  S   UNL     1      -8.270   7.691  72.472  1.00  0.00    -0.127 SA 
BRANCH  13  14
HETATM   14  C   UNL     1      -9.742   7.476  73.527  1.00  0.00    -0.303 C  
BRANCH  14  15
HETATM   15  C   UNL     1     -10.976   7.503  72.710  1.00  0.00    -0.359 A  
HETATM   16  C   UNL     1     -11.726   6.531  72.088  1.00  0.00    -0.353 A  
HETATM   17  C   UNL     1     -12.797   7.206  71.454  1.00  0.00    -0.431 A  
HETATM   18  C   UNL     1     -12.630   8.548  71.720  1.00  0.00    -0.346 A  
HETATM   19  O   UNL     1     -11.513   8.734  72.478  1.00  0.00    -0.306 OA 
BRANCH  18  20
HETATM   20  C   UNL     1     -13.388   9.777  71.342  1.00  0.00    -0.371 C  
BRANCH  20  21
HETATM   21  N   UNL     1     -12.567  11.005  71.371  1.00  0.00    -0.399 NA 
HETATM   22  C   UNL     1     -12.054  11.337  70.038  1.00  0.00    -0.348 C  
HETATM   23  C   UNL     1     -13.378  12.116  71.876  1.00  0.00    -0.318 C  
ENDBRANCH  20  21
ENDBRANCH  18  20
ENDBRANCH  14  15
ENDBRANCH  13  14
ENDBRANCH  12  13
ENDBRANCH  11  12
ENDBRANCH   9  11
ENDBRANCH   4   9
ENDBRANCH   2   4
TORSDOF 9
ENDMDL
MODEL      301
REMARK 921   NORMALIZED FREE ENERGY PREDICTED BY IDOCK:   -3.23 KCAL/MOL
REMARK 922        TOTAL FREE ENERGY PREDICTED BY IDOCK:   -5.31 KCAL/MOL
REMARK 923 INTER-LIGAND FREE ENERGY PREDICTED BY IDOCK:   -4.95 KCAL/MOL
REMARK 924 INTRA-LIGAND FREE ENERGY PREDICTED BY IDOCK:   -0.37 KCAL/MOL
REMARK 927      BINDING AFFINITY PREDICTED BY RF-SCORE:    0.00 PKD
ROOT
HETATM    1  C   UNL     1      -7.847  15.218  67.189  1.00  0.00    -0.214 C  
HETATM    2  N   UNL     1      -8.796  14.724  66.217  1.00  0.00    -0.479 NA 
HETATM    3  H   UNL     1      -8.569  14.923  65.243  1.00  0.00     0.000 HD 
ENDROOT
BRANCH   2   4
HETATM    4  C   UNL     1      -9.971  14.020  66.422  1.00  0.00    -0.294 C  
HETATM    5  C   UNL     1     -11.043  14.288  65.645  1.00  0.00    -0.316 C  
HETATM    6  O   UNL     1     -12.443  12.675  66.564  1.00  0.00    -0.407 OA 
HETATM    7  N   UNL     1     -12.308  13.602  65.755  1.00  0.00    -0.463 N  
HETATM    8  O   UNL     1     -13.199  14.008  64.993  1.00  0.00    -0.720 OA 
BRANCH   4   9
HETATM    9  N   UNL     1      -9.997  13.085  67.439  1.00  0.00    -0.225 NA 
HETATM   10  H   UNL     1     -10.409  13.409  68.314  1.00  0.00     0.000 HD 
BRANCH   9  11
HETATM   11  C   UNL     1      -9.527  11.715  67.451  1.00  0.00    -0.167 C  
BRANCH  11  12
HETATM   12  C   UNL     1      -9.457  11.176  66.018  1.00  0.00    -0.208 C  
BRANCH  12  13
HETATM   13  S   UNL     1      -7.896  10.299  65.665  1.00  0.00    -0.153 SA 
BRANCH  13  14
HETATM   14  C   UNL     1      -8.550   8.630  65.333  1.00  0.00    -0.181 C  
BRANCH  14  15
HETATM   15  C   UNL     1      -8.071   7.671  66.353  1.00  0.00    -0.113 A  
HETATM   16  C   UNL     1      -6.825   7.325  66.822  1.00  0.00    -0.065 A  
HETATM   17  C   UNL     1      -7.037   6.328  67.806  1.00  0.00    -0.081 A  
HETATM   18  C   UNL     1      -8.398   6.121  67.870  1.00  0.00    -0.117 A  
HETATM   19  O   UNL     1      -9.032   6.932  66.977  1.00  0.00    -0.116 OA 
BRANCH  18  20
HETATM   20  C   UNL     1      -9.268   5.214  68.676  1.00  0.00    -0.119 C  
BRANCH  20  21
HETATM   21  N   UNL     1      -9.237   5.503  70.123  1.00  0.00    -0.138 NA 
HETATM   22  C   UNL     1     -10.020   6.699  70.447  1.00  0.00    -0.175 C  
HETATM   23  C   UNL     1      -9.772   4.353  70.857  1.00  0.00    -0.197 C  
ENDBRANCH  20  21
ENDBRANCH  18  20
ENDBRANCH  14  15
ENDBRANCH  13  14
ENDBRANCH  12  13
ENDBRANCH  11  12
ENDBRANCH   9  11
ENDBRANCH   4   9
ENDBRANCH   2   4
TORSDOF 9
ENDMDL
MODEL      302
REMARK 921   NORMALIZED FREE ENERGY PREDICTED BY IDOCK:   -3.21 KCAL/MOL
REMARK 922        TOTAL FREE ENERGY PREDICTED BY IDOCK:   -5.28 KCAL/MOL
REMARK 923 INTER-LIGAND FREE ENERGY PREDICTED BY IDOCK:   -5.07 KCAL/MOL
REMARK 924 INTRA-LIGAND FREE ENERGY PREDICTED BY IDOCK:   -0.22 KCAL/MOL
REMARK 927      BINDING AFFINITY PREDICTED BY RF-SCORE:    0.00 PKD
ROOT
HETATM    1  C   UNL     1     -11.854  12.351  67.382  1.00  0.00    -0.289 C  
HETATM    2  N   UNL     1     -12.109  11.456  68.487  1.00  0.00    -0.567 NA 
HETATM    3  H   UNL     1     -13.026  11.549  68.924  1.00  0.00     0.000 HD 
ENDROOT
BRANCH   2   4
HETATM    4  C   UNL     1     -11.284  10.490  69.038  1.00  0.00    -0.259 C  
HETATM    5  C   UNL     1     -11.500  10.086  70.309  1.00  0.00    -0.300 C  
HETATM    6  O   UNL     1      -9.819   8.480  70.365  1.00  0.00    -0.174 OA 
HETATM    7  N   UNL     1     -10.719   9.072  70.976  1.00  0.00    -0.245 N  
HETATM    8  O   UNL     1     -11.026   8.858  72.158  1.00  0.00    -0.362 OA 
BRANCH   4   9
HETATM    9  N   UNL     1     -10.253   9.999  68.261  1.00  0.00    -0.165 NA 
HETATM   10  H   UNL     1      -9.315  10.217  68.596  1.00  0.00     0.000 HD 
BRANCH   9  11
HETATM   11  C   UNL     1     -10.302   9.219  67.040  1.00  0.00    -0.255 C  
BRANCH  11  12
HETATM   12  C   UNL     1      -9.073   9.524  66.177  1.00  0.00    -0.166 C  
BRANCH  12  13
HETATM   13  S   UNL     1      -9.067  11.230  65.529  1.00  0.00    -0.123 SA 
BRANCH  13  14
HETATM   14  C   UNL     1      -8.107  12.053  66.843  1.00  0.00    -0.127 C  
BRANCH  14  15
HETATM   15  C   UNL     1      -8.658  13.397  67.125  1.00  0.00    -0.195 A  
HETATM   16  C   UNL     1      -8.980  14.478  66.336  1.00  0.00    -0.153 A  
HETATM   17  C   UNL     1      -9.462  15.478  67.215  1.00  0.00    -0.218 A  
HETATM   18  C   UNL     1      -9.396  14.950  68.487  1.00  0.00    -0.196 A  
HETATM   19  O   UNL     1      -8.895  13.683  68.437  1.00  0.00    -0.179 OA 
BRANCH  18  20
HETATM   20  C   UNL     1      -9.732  15.477  69.842  1.00  0.00    -0.160 C  
BRANCH  20  21
HETATM   21  N   UNL     1     -11.103  16.016  69.939  1.00  0.00    -0.327 NA 
HETATM   22  C   UNL     1     -12.074  15.135  69.282  1.00  0.00    -0.244 C  
HETATM   23  C   UNL     1     -11.462  16.174  71.351  1.00  0.00    -0.363 C  
ENDBRANCH  20  21
ENDBRANCH  18  20
ENDBRANCH  14  15
ENDBRANCH  13  14
ENDBRANCH  12  13
ENDBRANCH  11  12
ENDBRANCH   9  11
ENDBRANCH   4   9
ENDBRANCH   2   4
TORSDOF 9
ENDMDL
MODEL      303
REMARK 921   NORMALIZED FREE ENERGY PREDICTED BY IDOCK:   -3.21 KCAL/MOL
REMARK 922        TOTAL FREE ENERGY PREDICTED BY IDOCK:   -5.28 KCAL/MOL
REMARK 923 INTER-LIGAND FREE ENERGY PREDICTED BY IDOCK:   -4.61 KCAL/MOL
REMARK 924 INTRA-LIGAND FREE ENERGY PREDICTED BY IDOCK:   -0.67 KCAL/MOL
REMARK 927      BINDING AFFINITY PREDICTED BY RF-SCORE:    0.00 PKD
ROOT
HETATM    1  C   UNL     1     -12.785  12.959  65.215  1.00  0.00    -0.321 C  
HETATM    2  N   UNL     1     -12.057  13.591  66.292  1.00  0.00    -0.419 NA 
HETATM    3  H   UNL     1     -12.479  13.505  67.216  1.00  0.00     0.000 HD 
ENDROOT
BRANCH   2   4
HETATM    4  C   UNL     1     -10.866  14.296  66.246  1.00  0.00    -0.310 C  
HETATM    5  C   UNL     1     -10.891  15.611  65.935  1.00  0.00    -0.293 C  
HETATM    6  O   UNL     1      -8.608  15.982  66.175  1.00  0.00    -0.333 OA 
HETATM    7  N   UNL     1      -9.717  16.447  65.880  1.00  0.00    -0.312 N  
HETATM    8  O   UNL     1      -9.918  17.621  65.532  1.00  0.00    -0.533 OA 
BRANCH   4   9
HETATM    9  N   UNL     1      -9.695  13.608  66.499  1.00  0.00    -0.285 NA 
HETATM   10  H   UNL     1      -8.963  13.726  65.798  1.00  0.00     0.000 HD 
BRANCH   9  11
HETATM   11  C   UNL     1      -9.349  12.743  67.609  1.00  0.00    -0.191 C  
BRANCH  11  12
HETATM   12  C   UNL     1      -8.051  13.230  68.263  1.00  0.00    -0.156 C  
BRANCH  12  13
HETATM   13  S   UNL     1      -7.029  11.864  68.910  1.00  0.00    -0.103 SA 
BRANCH  13  14
HETATM   14  C   UNL     1      -6.411  11.172  67.341  1.00  0.00    -0.067 C  
BRANCH  14  15
HETATM   15  C   UNL     1      -7.187   9.971  66.960  1.00  0.00    -0.090 A  
HETATM   16  C   UNL     1      -7.610   9.454  65.757  1.00  0.00    -0.099 A  
HETATM   17  C   UNL     1      -8.325   8.271  66.066  1.00  0.00    -0.130 A  
HETATM   18  C   UNL     1      -8.302   8.144  67.438  1.00  0.00    -0.122 A  
HETATM   19  O   UNL     1      -7.617   9.186  67.989  1.00  0.00    -0.084 OA 
BRANCH  18  20
HETATM   20  C   UNL     1      -8.869   7.146  68.393  1.00  0.00    -0.127 C  
BRANCH  20  21
HETATM   21  N   UNL     1     -10.308   7.343  68.661  1.00  0.00    -0.195 NA 
HETATM   22  C   UNL     1     -11.040   6.074  68.613  1.00  0.00    -0.211 C  
HETATM   23  C   UNL     1     -10.473   7.955  69.982  1.00  0.00    -0.231 C  
ENDBRANCH  20  21
ENDBRANCH  18  20
ENDBRANCH  14  15
ENDBRANCH  13  14
ENDBRANCH  12  13
ENDBRANCH  11  12
ENDBRANCH   9  11
ENDBRANCH   4   9
ENDBRANCH   2   4
TORSDOF 9
ENDMDL
MODEL      304
REMARK 921   NORMALIZED FREE ENERGY PREDICTED BY IDOCK:   -3.19 KCAL/MOL
REMARK 922        TOTAL FREE ENERGY PREDICTED BY IDOCK:   -5.25 KCAL/MOL
REMARK 923 INTER-LIGAND FREE ENERGY PREDICTED BY IDOCK:   -4.96 KCAL/MOL
REMARK 924 INTRA-LIGAND FREE ENERGY PREDICTED BY IDOCK:   -0.29 KCAL/MOL
REMARK 927      BINDING AFFINITY PREDICTED BY RF-SCORE:    0.00 PKD
ROOT
HETATM    1  C   UNL     1      -9.095  20.387  67.042  1.00  0.00    -0.333 C  
HETATM    2  N   UNL     1     -10.152  19.432  67.291  1.00  0.00    -0.364 NA 
HETATM    3  H   UNL     1     -10.920  19.770  67.869  1.00  0.00     0.000 HD 
ENDROOT
BRANCH   2   4
HETATM    4  C   UNL     1     -10.267  18.123  66.854  1.00  0.00    -0.372 C  
HETATM    5  C   UNL     1     -10.769  17.881  65.623  1.00  0.00    -0.052 C  
HETATM    6  O   UNL     1     -10.521  15.570  65.687  1.00  0.00    -0.322 OA 
HETATM    7  N   UNL     1     -10.914  16.562  65.058  1.00  0.00    -0.308 N  
HETATM    8  O   UNL     1     -11.436  16.521  63.934  1.00  0.00    -1.145 OA 
BRANCH   4   9
HETATM    9  N   UNL     1      -9.881  17.116  67.717  1.00  0.00    -0.266 NA 
HETATM   10  H   UNL     1     -10.391  16.238  67.614  1.00  0.00     0.000 HD 
BRANCH   9  11
HETATM   11  C   UNL     1      -8.862  17.117  68.747  1.00  0.00    -0.235 C  
BRANCH  11  12
HETATM   12  C   UNL     1      -8.537  15.678  69.161  1.00  0.00    -0.251 C  
BRANCH  12  13
HETATM   13  S   UNL     1      -6.763  15.280  69.013  1.00  0.00    -0.132 SA 
BRANCH  13  14
HETATM   14  C   UNL     1      -6.833  14.061  67.660  1.00  0.00    -0.179 C  
BRANCH  14  15
HETATM   15  C   UNL     1      -6.902  12.686  68.202  1.00  0.00    -0.090 A  
HETATM   16  C   UNL     1      -6.600  12.128  69.424  1.00  0.00    -0.090 A  
HETATM   17  C   UNL     1      -6.880  10.745  69.306  1.00  0.00    -0.092 A  
HETATM   18  C   UNL     1      -7.328  10.542  68.018  1.00  0.00    -0.089 A  
HETATM   19  O   UNL     1      -7.333  11.723  67.338  1.00  0.00    -0.117 OA 
BRANCH  18  20
HETATM   20  C   UNL     1      -7.770   9.336  67.257  1.00  0.00    -0.095 C  
BRANCH  20  21
HETATM   21  N   UNL     1      -9.094   8.833  67.671  1.00  0.00    -0.134 NA 
HETATM   22  C   UNL     1      -9.000   8.009  68.881  1.00  0.00    -0.141 C  
HETATM   23  C   UNL     1      -9.987   9.967  67.920  1.00  0.00    -0.154 C  
ENDBRANCH  20  21
ENDBRANCH  18  20
ENDBRANCH  14  15
ENDBRANCH  13  14
ENDBRANCH  12  13
ENDBRANCH  11  12
ENDBRANCH   9  11
ENDBRANCH   4   9
ENDBRANCH   2   4
TORSDOF 9
ENDMDL
MODEL      305
REMARK 921   NORMALIZED FREE ENERGY PREDICTED BY IDOCK:   -3.16 KCAL/MOL
REMARK 922        TOTAL FREE ENERGY PREDICTED BY IDOCK:   -5.22 KCAL/MOL
REMARK 923 INTER-LIGAND FREE ENERGY PREDICTED BY IDOCK:   -4.87 KCAL/MOL
REMARK 924 INTRA-LIGAND FREE ENERGY PREDICTED BY IDOCK:   -0.35 KCAL/MOL
REMARK 927      BINDING AFFINITY PREDICTED BY RF-SCORE:    0.00 PKD
ROOT
HETATM    1  C   UNL     1     -10.591   3.963  64.186  1.00  0.00    -0.229 C  
HETATM    2  N   UNL     1     -11.072   4.427  65.468  1.00  0.00    -0.781 NA 
HETATM    3  H   UNL     1     -11.988   4.075  65.745  1.00  0.00     0.000 HD 
ENDROOT
BRANCH   2   4
HETATM    4  C   UNL     1     -10.464   5.281  66.372  1.00  0.00    -0.292 C  
HETATM    5  C   UNL     1     -10.648   5.079  67.696  1.00  0.00     0.081 C  
HETATM    6  O   UNL     1      -9.272   6.807  68.420  1.00  0.00    -0.126 OA 
HETATM    7  N   UNL     1     -10.047   5.892  68.725  1.00  0.00    -0.158 N  
HETATM    8  O   UNL     1     -10.362   5.593  69.887  1.00  0.00    -0.226 OA 
BRANCH   4   9
HETATM    9  N   UNL     1      -9.710   6.325  65.872  1.00  0.00    -0.382 NA 
HETATM   10  H   UNL     1     -10.184   7.228  65.846  1.00  0.00     0.000 HD 
BRANCH   9  11
HETATM   11  C   UNL     1      -8.348   6.332  65.378  1.00  0.00    -0.148 C  
BRANCH  11  12
HETATM   12  C   UNL     1      -8.153   7.498  64.403  1.00  0.00    -0.074 C  
BRANCH  12  13
HETATM   13  S   UNL     1      -7.702   9.055  65.241  1.00  0.00    -0.103 SA 
BRANCH  13  14
HETATM   14  C   UNL     1      -9.330   9.875  65.262  1.00  0.00    -0.251 C  
BRANCH  14  15
HETATM   15  C   UNL     1      -9.460  10.744  66.452  1.00  0.00    -0.171 A  
HETATM   16  C   UNL     1      -8.686  10.945  67.572  1.00  0.00    -0.130 A  
HETATM   17  C   UNL     1      -9.365  11.913  68.352  1.00  0.00    -0.184 A  
HETATM   18  C   UNL     1     -10.514  12.237  67.664  1.00  0.00    -0.214 A  
HETATM   19  O   UNL     1     -10.582  11.517  66.509  1.00  0.00    -0.239 OA 
BRANCH  18  20
HETATM   20  C   UNL     1     -11.653  13.164  67.935  1.00  0.00    -0.336 C  
BRANCH  20  21
HETATM   21  N   UNL     1     -11.296  14.288  68.823  1.00  0.00    -0.259 NA 
HETATM   22  C   UNL     1     -11.553  15.581  68.179  1.00  0.00    -0.304 C  
HETATM   23  C   UNL     1     -12.075  14.194  70.060  1.00  0.00    -0.346 C  
ENDBRANCH  20  21
ENDBRANCH  18  20
ENDBRANCH  14  15
ENDBRANCH  13  14
ENDBRANCH  12  13
ENDBRANCH  11  12
ENDBRANCH   9  11
ENDBRANCH   4   9
ENDBRANCH   2   4
TORSDOF 9
ENDMDL
MODEL      306
REMARK 921   NORMALIZED FREE ENERGY PREDICTED BY IDOCK:   -3.14 KCAL/MOL
REMARK 922        TOTAL FREE ENERGY PREDICTED BY IDOCK:   -5.18 KCAL/MOL
REMARK 923 INTER-LIGAND FREE ENERGY PREDICTED BY IDOCK:   -4.65 KCAL/MOL
REMARK 924 INTRA-LIGAND FREE ENERGY PREDICTED BY IDOCK:   -0.54 KCAL/MOL
REMARK 927      BINDING AFFINITY PREDICTED BY RF-SCORE:    0.00 PKD
ROOT
HETATM    1  C   UNL     1     -13.615   9.777  71.958  1.00  0.00    -0.349 C  
HETATM    2  N   UNL     1     -12.170   9.727  71.954  1.00  0.00    -0.354 NA 
HETATM    3  H   UNL     1     -11.701  10.611  72.147  1.00  0.00     0.000 HD 
ENDROOT
BRANCH   2   4
HETATM    4  C   UNL     1     -11.334   8.648  71.723  1.00  0.00    -0.323 C  
HETATM    5  C   UNL     1     -11.055   7.802  72.740  1.00  0.00    -0.398 C  
HETATM    6  O   UNL     1      -9.745   6.330  71.506  1.00  0.00    -0.163 OA 
HETATM    7  N   UNL     1     -10.216   6.635  72.609  1.00  0.00    -0.182 N  
HETATM    8  O   UNL     1     -10.029   5.997  73.656  1.00  0.00    -0.170 OA 
BRANCH   4   9
HETATM    9  N   UNL     1     -10.800   8.500  70.458  1.00  0.00    -0.225 NA 
HETATM   10  H   UNL     1     -10.897   7.569  70.053  1.00  0.00     0.000 HD 
BRANCH   9  11
HETATM   11  C   UNL     1     -10.123   9.468  69.619  1.00  0.00    -0.212 C  
BRANCH  11  12
HETATM   12  C   UNL     1      -8.881   8.831  68.985  1.00  0.00    -0.137 C  
BRANCH  12  13
HETATM   13  S   UNL     1      -8.362   9.666  67.448  1.00  0.00    -0.114 SA 
BRANCH  13  14
HETATM   14  C   UNL     1      -9.429  11.142  67.525  1.00  0.00    -0.168 C  
BRANCH  14  15
HETATM   15  C   UNL     1      -8.612  12.370  67.641  1.00  0.00    -0.172 A  
HETATM   16  C   UNL     1      -7.313  12.682  67.311  1.00  0.00    -0.106 A  
HETATM   17  C   UNL     1      -7.127  14.036  67.682  1.00  0.00    -0.193 A  
HETATM   18  C   UNL     1      -8.320  14.464  68.222  1.00  0.00    -0.158 A  
HETATM   19  O   UNL     1      -9.226  13.446  68.209  1.00  0.00    -0.204 OA 
BRANCH  18  20
HETATM   20  C   UNL     1      -8.784  15.756  68.808  1.00  0.00    -0.203 C  
BRANCH  20  21
HETATM   21  N   UNL     1      -9.160  16.760  67.792  1.00  0.00    -0.219 NA 
HETATM   22  C   UNL     1     -10.616  16.902  67.692  1.00  0.00    -0.325 C  
HETATM   23  C   UNL     1      -8.565  18.052  68.145  1.00  0.00    -0.273 C  
ENDBRANCH  20  21
ENDBRANCH  18  20
ENDBRANCH  14  15
ENDBRANCH  13  14
ENDBRANCH  12  13
ENDBRANCH  11  12
ENDBRANCH   9  11
ENDBRANCH   4   9
ENDBRANCH   2   4
TORSDOF 9
ENDMDL
MODEL      307
REMARK 921   NORMALIZED FREE ENERGY PREDICTED BY IDOCK:   -3.13 KCAL/MOL
REMARK 922        TOTAL FREE ENERGY PREDICTED BY IDOCK:   -5.17 KCAL/MOL
REMARK 923 INTER-LIGAND FREE ENERGY PREDICTED BY IDOCK:   -3.99 KCAL/MOL
REMARK 924 INTRA-LIGAND FREE ENERGY PREDICTED BY IDOCK:   -1.18 KCAL/MOL
REMARK 927      BINDING AFFINITY PREDICTED BY RF-SCORE:    0.00 PKD
ROOT
HETATM    1  C   UNL     1     -10.730  11.997  68.392  1.00  0.00    -0.229 C  
HETATM    2  N   UNL     1     -10.437  11.164  69.535  1.00  0.00    -0.439 NA 
HETATM    3  H   UNL     1      -9.897  11.611  70.276  1.00  0.00     0.000 HD 
ENDROOT
BRANCH   2   4
HETATM    4  C   UNL     1     -10.784   9.844  69.767  1.00  0.00    -0.267 C  
HETATM    5  C   UNL     1     -11.583   9.547  70.816  1.00  0.00    -0.308 C  
HETATM    6  O   UNL     1     -11.716   7.262  70.408  1.00  0.00    -0.263 OA 
HETATM    7  N   UNL     1     -12.025   8.212  71.139  1.00  0.00    -0.290 N  
HETATM    8  O   UNL     1     -12.716   8.116  72.164  1.00  0.00    -0.323 OA 
BRANCH   4   9
HETATM    9  N   UNL     1     -10.271   8.880  68.920  1.00  0.00    -0.202 NA 
HETATM   10  H   UNL     1      -9.532   8.301  69.319  1.00  0.00     0.000 HD 
BRANCH   9  11
HETATM   11  C   UNL     1     -10.624   8.568  67.550  1.00  0.00    -0.214 C  
BRANCH  11  12
HETATM   12  C   UNL     1      -9.394   8.715  66.648  1.00  0.00    -0.192 C  
BRANCH  12  13
HETATM   13  S   UNL     1      -7.856   9.000  67.588  1.00  0.00    -0.101 SA 
BRANCH  13  14
HETATM   14  C   UNL     1      -7.346   7.273  67.873  1.00  0.00    -0.097 C  
BRANCH  14  15
HETATM   15  C   UNL     1      -7.128   7.026  69.316  1.00  0.00    -0.083 A  
HETATM   16  C   UNL     1      -6.014   6.748  70.075  1.00  0.00    -0.023 A  
HETATM   17  C   UNL     1      -6.471   6.611  71.409  1.00  0.00    -0.046 A  
HETATM   18  C   UNL     1      -7.835   6.806  71.380  1.00  0.00    -0.098 A  
HETATM   19  O   UNL     1      -8.241   7.049  70.102  1.00  0.00    -0.128 OA 
BRANCH  18  20
HETATM   20  C   UNL     1      -8.903   6.785  72.423  1.00  0.00    -0.131 C  
BRANCH  20  21
HETATM   21  N   UNL     1      -9.761   5.585  72.360  1.00  0.00    -0.153 NA 
HETATM   22  C   UNL     1      -8.962   4.355  72.368  1.00  0.00    -0.119 C  
HETATM   23  C   UNL     1     -10.675   5.583  73.505  1.00  0.00    -0.283 C  
ENDBRANCH  20  21
ENDBRANCH  18  20
ENDBRANCH  14  15
ENDBRANCH  13  14
ENDBRANCH  12  13
ENDBRANCH  11  12
ENDBRANCH   9  11
ENDBRANCH   4   9
ENDBRANCH   2   4
TORSDOF 9
ENDMDL
MODEL      308
REMARK 921   NORMALIZED FREE ENERGY PREDICTED BY IDOCK:   -3.12 KCAL/MOL
REMARK 922        TOTAL FREE ENERGY PREDICTED BY IDOCK:   -5.15 KCAL/MOL
REMARK 923 INTER-LIGAND FREE ENERGY PREDICTED BY IDOCK:   -4.46 KCAL/MOL
REMARK 924 INTRA-LIGAND FREE ENERGY PREDICTED BY IDOCK:   -0.70 KCAL/MOL
REMARK 927      BINDING AFFINITY PREDICTED BY RF-SCORE:    0.00 PKD
ROOT
HETATM    1  C   UNL     1     -10.356   4.531  65.345  1.00  0.00    -0.199 C  
HETATM    2  N   UNL     1      -9.181   5.038  66.017  1.00  0.00    -0.148 NA 
HETATM    3  H   UNL     1      -8.637   4.346  66.531  1.00  0.00     0.000 HD 
ENDROOT
BRANCH   2   4
HETATM    4  C   UNL     1      -8.689   6.332  66.061  1.00  0.00    -0.151 C  
HETATM    5  C   UNL     1      -7.359   6.526  66.199  1.00  0.00    -0.080 C  
HETATM    6  O   UNL     1      -7.419   8.848  66.085  1.00  0.00    -0.088 OA 
HETATM    7  N   UNL     1      -6.735   7.827  66.235  1.00  0.00    -0.053 N  
HETATM    8  O   UNL     1      -5.508   7.822  66.414  1.00  0.00    -0.024 OA 
BRANCH   4   9
HETATM    9  N   UNL     1      -9.595   7.373  65.986  1.00  0.00    -0.413 NA 
HETATM   10  H   UNL     1      -9.501   7.970  65.165  1.00  0.00     0.000 HD 
BRANCH   9  11
HETATM   11  C   UNL     1     -10.658   7.743  66.898  1.00  0.00    -0.277 C  
BRANCH  11  12
HETATM   12  C   UNL     1     -10.125   7.775  68.335  1.00  0.00    -0.192 C  
BRANCH  12  13
HETATM   13  S   UNL     1     -10.599   9.290  69.234  1.00  0.00    -0.201 SA 
BRANCH  13  14
HETATM   14  C   UNL     1     -11.035  10.360  67.823  1.00  0.00    -0.309 C  
BRANCH  14  15
HETATM   15  C   UNL     1     -10.232  11.602  67.844  1.00  0.00    -0.189 A  
HETATM   16  C   UNL     1      -8.899  11.870  68.058  1.00  0.00    -0.177 A  
HETATM   17  C   UNL     1      -8.756  13.274  67.951  1.00  0.00    -0.192 A  
HETATM   18  C   UNL     1     -10.012  13.779  67.687  1.00  0.00    -0.238 A  
HETATM   19  O   UNL     1     -10.917  12.762  67.632  1.00  0.00    -0.231 OA 
BRANCH  18  20
HETATM   20  C   UNL     1     -10.548  15.156  67.479  1.00  0.00    -0.269 C  
BRANCH  20  21
HETATM   21  N   UNL     1     -10.075  15.789  66.232  1.00  0.00    -0.284 NA 
HETATM   22  C   UNL     1     -10.686  15.169  65.052  1.00  0.00    -0.430 C  
HETATM   23  C   UNL     1     -10.402  17.217  66.260  1.00  0.00    -0.313 C  
ENDBRANCH  20  21
ENDBRANCH  18  20
ENDBRANCH  14  15
ENDBRANCH  13  14
ENDBRANCH  12  13
ENDBRANCH  11  12
ENDBRANCH   9  11
ENDBRANCH   4   9
ENDBRANCH   2   4
TORSDOF 9
ENDMDL
MODEL      309
REMARK 921   NORMALIZED FREE ENERGY PREDICTED BY IDOCK:   -3.12 KCAL/MOL
REMARK 922        TOTAL FREE ENERGY PREDICTED BY IDOCK:   -5.14 KCAL/MOL
REMARK 923 INTER-LIGAND FREE ENERGY PREDICTED BY IDOCK:   -4.88 KCAL/MOL
REMARK 924 INTRA-LIGAND FREE ENERGY PREDICTED BY IDOCK:   -0.26 KCAL/MOL
REMARK 927      BINDING AFFINITY PREDICTED BY RF-SCORE:    0.00 PKD
ROOT
HETATM    1  C   UNL     1     -12.097  13.340  70.234  1.00  0.00    -0.335 C  
HETATM    2  N   UNL     1     -12.208  11.954  69.842  1.00  0.00    -0.238 NA 
HETATM    3  H   UNL     1     -12.357  11.791  68.847  1.00  0.00     0.000 HD 
ENDROOT
BRANCH   2   4
HETATM    4  C   UNL     1     -12.141  10.815  70.628  1.00  0.00    -0.370 C  
HETATM    5  C   UNL     1     -13.247  10.405  71.289  1.00  0.00    -0.339 C  
HETATM    6  O   UNL     1     -12.305   8.490  72.213  1.00  0.00    -0.355 OA 
HETATM    7  N   UNL     1     -13.298   9.224  72.116  1.00  0.00    -0.434 N  
HETATM    8  O   UNL     1     -14.380   9.023  72.686  1.00  0.00    -0.603 OA 
BRANCH   4   9
HETATM    9  N   UNL     1     -10.928  10.161  70.718  1.00  0.00    -0.366 NA 
HETATM   10  H   UNL     1     -10.672   9.851  71.656  1.00  0.00     0.000 HD 
BRANCH   9  11
HETATM   11  C   UNL     1      -9.964   9.847  69.683  1.00  0.00    -0.231 C  
BRANCH  11  12
HETATM   12  C   UNL     1     -10.633   9.015  68.583  1.00  0.00    -0.160 C  
BRANCH  12  13
HETATM   13  S   UNL     1      -9.832   9.216  66.956  1.00  0.00    -0.227 SA 
BRANCH  13  14
HETATM   14  C   UNL     1      -9.479   7.469  66.570  1.00  0.00    -0.179 C  
BRANCH  14  15
HETATM   15  C   UNL     1      -8.891   6.786  67.744  1.00  0.00    -0.118 A  
HETATM   16  C   UNL     1      -7.768   7.006  68.509  1.00  0.00    -0.120 A  
HETATM   17  C   UNL     1      -7.755   5.988  69.493  1.00  0.00    -0.098 A  
HETATM   18  C   UNL     1      -8.866   5.204  69.263  1.00  0.00    -0.095 A  
HETATM   19  O   UNL     1      -9.555   5.682  68.189  1.00  0.00    -0.108 OA 
BRANCH  18  20
HETATM   20  C   UNL     1      -9.421   3.983  69.917  1.00  0.00    -0.194 C  
BRANCH  20  21
HETATM   21  N   UNL     1      -8.752   2.736  69.498  1.00  0.00    -0.069 NA 
HETATM   22  C   UNL     1      -9.190   2.315  68.163  1.00  0.00    -0.198 C  
HETATM   23  C   UNL     1      -7.301   2.943  69.494  1.00  0.00    -0.044 C  
ENDBRANCH  20  21
ENDBRANCH  18  20
ENDBRANCH  14  15
ENDBRANCH  13  14
ENDBRANCH  12  13
ENDBRANCH  11  12
ENDBRANCH   9  11
ENDBRANCH   4   9
ENDBRANCH   2   4
TORSDOF 9
ENDMDL
MODEL      310
REMARK 921   NORMALIZED FREE ENERGY PREDICTED BY IDOCK:   -3.09 KCAL/MOL
REMARK 922        TOTAL FREE ENERGY PREDICTED BY IDOCK:   -5.11 KCAL/MOL
REMARK 923 INTER-LIGAND FREE ENERGY PREDICTED BY IDOCK:   -4.32 KCAL/MOL
REMARK 924 INTRA-LIGAND FREE ENERGY PREDICTED BY IDOCK:   -0.79 KCAL/MOL
REMARK 927      BINDING AFFINITY PREDICTED BY RF-SCORE:    0.00 PKD
ROOT
HETATM    1  C   UNL     1     -11.103   6.478  67.153  1.00  0.00    -0.360 C  
HETATM    2  N   UNL     1     -10.187   6.604  66.041  1.00  0.00    -0.224 NA 
HETATM    3  H   UNL     1     -10.619   6.791  65.137  1.00  0.00     0.000 HD 
ENDROOT
BRANCH   2   4
HETATM    4  C   UNL     1      -8.806   6.505  66.031  1.00  0.00    -0.143 C  
HETATM    5  C   UNL     1      -8.232   5.286  66.141  1.00  0.00    -0.110 C  
HETATM    6  O   UNL     1      -6.032   6.012  65.945  1.00  0.00    -0.026 OA 
HETATM    7  N   UNL     1      -6.807   5.063  66.120  1.00  0.00    -0.060 N  
HETATM    8  O   UNL     1      -6.453   3.885  66.279  1.00  0.00    -0.035 OA 
BRANCH   4   9
HETATM    9  N   UNL     1      -8.073   7.672  65.934  1.00  0.00    -0.115 NA 
HETATM   10  H   UNL     1      -7.467   7.736  65.116  1.00  0.00     0.000 HD 
BRANCH   9  11
HETATM   11  C   UNL     1      -8.035   8.819  66.819  1.00  0.00    -0.097 C  
BRANCH  11  12
HETATM   12  C   UNL     1      -7.868   8.353  68.269  1.00  0.00    -0.110 C  
BRANCH  12  13
HETATM   13  S   UNL     1      -7.507   9.725  69.417  1.00  0.00    -0.113 SA 
BRANCH  13  14
HETATM   14  C   UNL     1      -7.919   8.918  70.999  1.00  0.00    -0.151 C  
BRANCH  14  15
HETATM   15  C   UNL     1      -9.371   9.016  71.270  1.00  0.00    -0.254 A  
HETATM   16  C   UNL     1     -10.227   8.351  72.118  1.00  0.00    -0.390 A  
HETATM   17  C   UNL     1     -11.510   8.909  71.900  1.00  0.00    -0.442 A  
HETATM   18  C   UNL     1     -11.360   9.875  70.928  1.00  0.00    -0.370 A  
HETATM   19  O   UNL     1     -10.056   9.935  70.533  1.00  0.00    -0.259 OA 
BRANCH  18  20
HETATM   20  C   UNL     1     -12.304  10.807  70.244  1.00  0.00    -0.341 C  
BRANCH  20  21
HETATM   21  N   UNL     1     -11.633  11.760  69.337  1.00  0.00    -0.297 NA 
HETATM   22  C   UNL     1     -11.906  11.444  67.931  1.00  0.00    -0.165 C  
HETATM   23  C   UNL     1     -12.098  13.118  69.633  1.00  0.00    -0.255 C  
ENDBRANCH  20  21
ENDBRANCH  18  20
ENDBRANCH  14  15
ENDBRANCH  13  14
ENDBRANCH  12  13
ENDBRANCH  11  12
ENDBRANCH   9  11
ENDBRANCH   4   9
ENDBRANCH   2   4
TORSDOF 9
ENDMDL
MODEL      311
REMARK 921   NORMALIZED FREE ENERGY PREDICTED BY IDOCK:   -3.09 KCAL/MOL
REMARK 922        TOTAL FREE ENERGY PREDICTED BY IDOCK:   -5.10 KCAL/MOL
REMARK 923 INTER-LIGAND FREE ENERGY PREDICTED BY IDOCK:   -4.58 KCAL/MOL
REMARK 924 INTRA-LIGAND FREE ENERGY PREDICTED BY IDOCK:   -0.52 KCAL/MOL
REMARK 927      BINDING AFFINITY PREDICTED BY RF-SCORE:    0.00 PKD
ROOT
HETATM    1  C   UNL     1     -12.734  13.742  65.435  1.00  0.00    -0.472 C  
HETATM    2  N   UNL     1     -12.084  13.710  66.725  1.00  0.00    -0.407 NA 
HETATM    3  H   UNL     1     -12.666  13.983  67.516  1.00  0.00     0.000 HD 
ENDROOT
BRANCH   2   4
HETATM    4  C   UNL     1     -10.781  13.360  67.038  1.00  0.00    -0.268 C  
HETATM    5  C   UNL     1      -9.809  14.295  66.949  1.00  0.00    -0.263 C  
HETATM    6  O   UNL     1      -8.074  12.944  67.705  1.00  0.00    -0.142 OA 
HETATM    7  N   UNL     1      -8.424  14.049  67.271  1.00  0.00    -0.204 N  
HETATM    8  O   UNL     1      -7.659  15.008  67.088  1.00  0.00    -0.202 OA 
BRANCH   4   9
HETATM    9  N   UNL     1     -10.531  12.052  67.407  1.00  0.00    -0.213 NA 
HETATM   10  H   UNL     1      -9.583  11.724  67.223  1.00  0.00     0.000 HD 
BRANCH   9  11
HETATM   11  C   UNL     1     -11.413  11.076  68.014  1.00  0.00    -0.290 C  
BRANCH  11  12
HETATM   12  C   UNL     1     -11.396  11.236  69.538  1.00  0.00    -0.294 C  
BRANCH  12  13
HETATM   13  S   UNL     1     -10.764   9.757  70.399  1.00  0.00    -0.327 SA 
BRANCH  13  14
HETATM   14  C   UNL     1      -9.016   9.826  69.886  1.00  0.00    -0.229 C  
BRANCH  14  15
HETATM   15  C   UNL     1      -8.612   8.557  69.243  1.00  0.00    -0.129 A  
HETATM   16  C   UNL     1      -7.903   7.457  69.670  1.00  0.00    -0.117 A  
HETATM   17  C   UNL     1      -7.850   6.570  68.568  1.00  0.00    -0.106 A  
HETATM   18  C   UNL     1      -8.522   7.185  67.533  1.00  0.00    -0.123 A  
HETATM   19  O   UNL     1      -8.980   8.403  67.939  1.00  0.00    -0.136 OA 
BRANCH  18  20
HETATM   20  C   UNL     1      -8.815   6.804  66.120  1.00  0.00    -0.148 C  
BRANCH  20  21
HETATM   21  N   UNL     1      -9.896   5.805  65.994  1.00  0.00    -0.043 NA 
HETATM   22  C   UNL     1      -9.400   4.446  66.233  1.00  0.00    -0.160 C  
HETATM   23  C   UNL     1     -10.957   6.117  66.955  1.00  0.00    -0.305 C  
ENDBRANCH  20  21
ENDBRANCH  18  20
ENDBRANCH  14  15
ENDBRANCH  13  14
ENDBRANCH  12  13
ENDBRANCH  11  12
ENDBRANCH   9  11
ENDBRANCH   4   9
ENDBRANCH   2   4
TORSDOF 9
ENDMDL
MODEL      312
REMARK 921   NORMALIZED FREE ENERGY PREDICTED BY IDOCK:   -3.08 KCAL/MOL
REMARK 922        TOTAL FREE ENERGY PREDICTED BY IDOCK:   -5.09 KCAL/MOL
REMARK 923 INTER-LIGAND FREE ENERGY PREDICTED BY IDOCK:   -4.69 KCAL/MOL
REMARK 924 INTRA-LIGAND FREE ENERGY PREDICTED BY IDOCK:   -0.40 KCAL/MOL
REMARK 927      BINDING AFFINITY PREDICTED BY RF-SCORE:    0.00 PKD
ROOT
HETATM    1  C   UNL     1     -10.927   6.098  66.857  1.00  0.00    -0.305 C  
HETATM    2  N   UNL     1     -11.190   5.119  65.827  1.00  0.00    -0.809 NA 
HETATM    3  H   UNL     1     -12.175   4.924  65.650  1.00  0.00     0.000 HD 
ENDROOT
BRANCH   2   4
HETATM    4  C   UNL     1     -10.294   4.408  65.048  1.00  0.00    -0.142 C  
HETATM    5  C   UNL     1     -10.767   3.577  64.092  1.00  0.00    -0.170 C  
HETATM    6  O   UNL     1      -8.694   2.920  63.266  1.00  0.00    -0.086 OA 
HETATM    7  N   UNL     1      -9.926   2.805  63.209  1.00  0.00    -0.105 N  
HETATM    8  O   UNL     1     -10.528   2.059  62.422  1.00  0.00    -0.096 OA 
BRANCH   4   9
HETATM    9  N   UNL     1      -8.945   4.565  65.304  1.00  0.00    -0.139 NA 
HETATM   10  H   UNL     1      -8.502   3.783  65.786  1.00  0.00     0.000 HD 
BRANCH   9  11
HETATM   11  C   UNL     1      -8.065   5.673  64.992  1.00  0.00    -0.122 C  
BRANCH  11  12
HETATM   12  C   UNL     1      -7.116   5.931  66.166  1.00  0.00    -0.071 C  
BRANCH  12  13
HETATM   13  S   UNL     1      -7.102   7.677  66.696  1.00  0.00    -0.081 SA 
BRANCH  13  14
HETATM   14  C   UNL     1      -8.324   8.361  65.529  1.00  0.00    -0.154 C  
BRANCH  14  15
HETATM   15  C   UNL     1      -8.609   9.779  65.845  1.00  0.00    -0.137 A  
HETATM   16  C   UNL     1      -8.129  10.658  66.789  1.00  0.00    -0.131 A  
HETATM   17  C   UNL     1      -8.812  11.879  66.574  1.00  0.00    -0.178 A  
HETATM   18  C   UNL     1      -9.673  11.668  65.518  1.00  0.00    -0.232 A  
HETATM   19  O   UNL     1      -9.560  10.384  65.078  1.00  0.00    -0.231 OA 
BRANCH  18  20
HETATM   20  C   UNL     1     -10.670  12.526  64.811  1.00  0.00    -0.302 C  
BRANCH  20  21
HETATM   21  N   UNL     1     -11.113  13.688  65.606  1.00  0.00    -0.293 NA 
HETATM   22  C   UNL     1     -10.388  14.905  65.226  1.00  0.00    -0.396 C  
HETATM   23  C   UNL     1     -12.550  13.891  65.407  1.00  0.00    -0.507 C  
ENDBRANCH  20  21
ENDBRANCH  18  20
ENDBRANCH  14  15
ENDBRANCH  13  14
ENDBRANCH  12  13
ENDBRANCH  11  12
ENDBRANCH   9  11
ENDBRANCH   4   9
ENDBRANCH   2   4
TORSDOF 9
ENDMDL
MODEL      313
REMARK 921   NORMALIZED FREE ENERGY PREDICTED BY IDOCK:   -3.08 KCAL/MOL
REMARK 922        TOTAL FREE ENERGY PREDICTED BY IDOCK:   -5.08 KCAL/MOL
REMARK 923 INTER-LIGAND FREE ENERGY PREDICTED BY IDOCK:   -4.87 KCAL/MOL
REMARK 924 INTRA-LIGAND FREE ENERGY PREDICTED BY IDOCK:   -0.22 KCAL/MOL
REMARK 927      BINDING AFFINITY PREDICTED BY RF-SCORE:    0.00 PKD
ROOT
HETATM    1  C   UNL     1     -12.732  13.851  71.545  1.00  0.00    -0.357 C  
HETATM    2  N   UNL     1     -13.049  14.396  70.245  1.00  0.00    -0.461 NA 
HETATM    3  H   UNL     1     -14.043  14.516  70.051  1.00  0.00     0.000 HD 
ENDROOT
BRANCH   2   4
HETATM    4  C   UNL     1     -12.195  14.778  69.224  1.00  0.00    -0.199 C  
HETATM    5  C   UNL     1     -11.851  16.080  69.106  1.00  0.00    -0.261 C  
HETATM    6  O   UNL     1     -10.406  15.808  67.305  1.00  0.00    -0.276 OA 
HETATM    7  N   UNL     1     -10.953  16.587  68.097  1.00  0.00    -0.351 N  
HETATM    8  O   UNL     1     -10.784  17.815  68.106  1.00  0.00    -0.366 OA 
BRANCH   4   9
HETATM    9  N   UNL     1     -11.750  13.804  68.352  1.00  0.00    -0.338 NA 
HETATM   10  H   UNL     1     -12.301  13.700  67.500  1.00  0.00     0.000 HD 
BRANCH   9  11
HETATM   11  C   UNL     1     -10.618  12.906  68.464  1.00  0.00    -0.253 C  
BRANCH  11  12
HETATM   12  C   UNL     1     -11.038  11.627  69.196  1.00  0.00    -0.245 C  
BRANCH  12  13
HETATM   13  S   UNL     1     -11.153  10.181  68.089  1.00  0.00    -0.180 SA 
BRANCH  13  14
HETATM   14  C   UNL     1      -9.389   9.964  67.684  1.00  0.00    -0.140 C  
BRANCH  14  15
HETATM   15  C   UNL     1      -8.669   9.334  68.814  1.00  0.00    -0.132 A  
HETATM   16  C   UNL     1      -7.383   8.876  68.985  1.00  0.00    -0.073 A  
HETATM   17  C   UNL     1      -7.318   8.370  70.307  1.00  0.00    -0.055 A  
HETATM   18  C   UNL     1      -8.569   8.544  70.857  1.00  0.00    -0.158 A  
HETATM   19  O   UNL     1      -9.401   9.122  69.945  1.00  0.00    -0.165 OA 
BRANCH  18  20
HETATM   20  C   UNL     1      -9.167   8.220  72.186  1.00  0.00    -0.222 C  
BRANCH  20  21
HETATM   21  N   UNL     1     -10.198   7.164  72.125  1.00  0.00    -0.185 NA 
HETATM   22  C   UNL     1      -9.623   5.878  71.718  1.00  0.00    -0.151 C  
HETATM   23  C   UNL     1     -10.826   7.026  73.441  1.00  0.00    -0.299 C  
ENDBRANCH  20  21
ENDBRANCH  18  20
ENDBRANCH  14  15
ENDBRANCH  13  14
ENDBRANCH  12  13
ENDBRANCH  11  12
ENDBRANCH   9  11
ENDBRANCH   4   9
ENDBRANCH   2   4
TORSDOF 9
ENDMDL
MODEL      314
REMARK 921   NORMALIZED FREE ENERGY PREDICTED BY IDOCK:   -3.08 KCAL/MOL
REMARK 922        TOTAL FREE ENERGY PREDICTED BY IDOCK:   -5.08 KCAL/MOL
REMARK 923 INTER-LIGAND FREE ENERGY PREDICTED BY IDOCK:   -4.40 KCAL/MOL
REMARK 924 INTRA-LIGAND FREE ENERGY PREDICTED BY IDOCK:   -0.68 KCAL/MOL
REMARK 927      BINDING AFFINITY PREDICTED BY RF-SCORE:    0.00 PKD
ROOT
HETATM    1  C   UNL     1     -11.255   6.424  67.316  1.00  0.00    -0.206 C  
HETATM    2  N   UNL     1     -10.917   5.568  66.201  1.00  0.00    -0.755 NA 
HETATM    3  H   UNL     1     -11.674   5.388  65.542  1.00  0.00     0.000 HD 
ENDROOT
BRANCH   2   4
HETATM    4  C   UNL     1      -9.711   4.957  65.903  1.00  0.00    -0.184 C  
HETATM    5  C   UNL     1      -9.457   3.724  66.396  1.00  0.00    -0.183 C  
HETATM    6  O   UNL     1      -7.385   3.455  65.376  1.00  0.00    -0.072 OA 
HETATM    7  N   UNL     1      -8.246   2.986  66.133  1.00  0.00    -0.089 N  
HETATM    8  O   UNL     1      -8.160   1.888  66.703  1.00  0.00    -0.074 OA 
BRANCH   4   9
HETATM    9  N   UNL     1      -8.805   5.656  65.129  1.00  0.00    -0.313 NA 
HETATM   10  H   UNL     1      -8.645   5.272  64.197  1.00  0.00     0.000 HD 
BRANCH   9  11
HETATM   11  C   UNL     1      -8.047   6.851  65.439  1.00  0.00    -0.133 C  
BRANCH  11  12
HETATM   12  C   UNL     1      -7.746   6.902  66.941  1.00  0.00    -0.099 C  
BRANCH  12  13
HETATM   13  S   UNL     1      -8.311   8.449  67.726  1.00  0.00    -0.131 SA 
BRANCH  13  14
HETATM   14  C   UNL     1      -7.097   8.567  69.081  1.00  0.00    -0.064 C  
BRANCH  14  15
HETATM   15  C   UNL     1      -7.766   8.425  70.393  1.00  0.00    -0.078 A  
HETATM   16  C   UNL     1      -7.347   8.000  71.633  1.00  0.00    -0.078 A  
HETATM   17  C   UNL     1      -8.476   8.093  72.483  1.00  0.00    -0.244 A  
HETATM   18  C   UNL     1      -9.516   8.561  71.708  1.00  0.00    -0.258 A  
HETATM   19  O   UNL     1      -9.089   8.754  70.429  1.00  0.00    -0.154 OA 
BRANCH  18  20
HETATM   20  C   UNL     1     -10.952   8.863  71.981  1.00  0.00    -0.342 C  
BRANCH  20  21
HETATM   21  N   UNL     1     -11.886   8.013  71.217  1.00  0.00    -0.292 NA 
HETATM   22  C   UNL     1     -11.641   6.589  71.467  1.00  0.00    -0.315 C  
HETATM   23  C   UNL     1     -13.262   8.347  71.592  1.00  0.00    -0.339 C  
ENDBRANCH  20  21
ENDBRANCH  18  20
ENDBRANCH  14  15
ENDBRANCH  13  14
ENDBRANCH  12  13
ENDBRANCH  11  12
ENDBRANCH   9  11
ENDBRANCH   4   9
ENDBRANCH   2   4
TORSDOF 9
ENDMDL
MODEL      315
REMARK 921   NORMALIZED FREE ENERGY PREDICTED BY IDOCK:   -3.06 KCAL/MOL
REMARK 922        TOTAL FREE ENERGY PREDICTED BY IDOCK:   -5.06 KCAL/MOL
REMARK 923 INTER-LIGAND FREE ENERGY PREDICTED BY IDOCK:   -5.22 KCAL/MOL
REMARK 924 INTRA-LIGAND FREE ENERGY PREDICTED BY IDOCK:    0.16 KCAL/MOL
REMARK 927      BINDING AFFINITY PREDICTED BY RF-SCORE:    0.00 PKD
ROOT
HETATM    1  C   UNL     1     -12.371  12.669  63.149  1.00  0.00    -0.187 C  
HETATM    2  N   UNL     1     -11.674  11.459  63.522  1.00  0.00    -0.671 NA 
HETATM    3  H   UNL     1     -12.084  10.593  63.172  1.00  0.00     0.000 HD 
ENDROOT
BRANCH   2   4
HETATM    4  C   UNL     1     -10.530  11.309  64.287  1.00  0.00    -0.357 C  
HETATM    5  C   UNL     1      -9.603  10.399  63.913  1.00  0.00    -0.312 C  
HETATM    6  O   UNL     1      -8.077  10.869  65.605  1.00  0.00    -0.145 OA 
HETATM    7  N   UNL     1      -8.365  10.174  64.621  1.00  0.00    -0.160 N  
HETATM    8  O   UNL     1      -7.651   9.268  64.166  1.00  0.00    -0.106 OA 
BRANCH   4   9
HETATM    9  N   UNL     1     -10.402  12.088  65.421  1.00  0.00    -0.256 NA 
HETATM   10  H   UNL     1      -9.469  12.101  65.834  1.00  0.00     0.000 HD 
BRANCH   9  11
HETATM   11  C   UNL     1     -11.391  12.890  66.111  1.00  0.00    -0.317 C  
BRANCH  11  12
HETATM   12  C   UNL     1     -11.629  12.328  67.517  1.00  0.00    -0.353 C  
BRANCH  12  13
HETATM   13  S   UNL     1     -11.010  10.623  67.713  1.00  0.00    -0.320 SA 
BRANCH  13  14
HETATM   14  C   UNL     1      -9.417  10.966  68.530  1.00  0.00    -0.185 C  
BRANCH  14  15
HETATM   15  C   UNL     1      -9.091   9.901  69.504  1.00  0.00    -0.223 A  
HETATM   16  C   UNL     1      -8.011   9.657  70.321  1.00  0.00    -0.198 A  
HETATM   17  C   UNL     1      -8.306   8.460  71.017  1.00  0.00    -0.155 A  
HETATM   18  C   UNL     1      -9.543   8.043  70.577  1.00  0.00    -0.170 A  
HETATM   19  O   UNL     1     -10.022   8.914  69.645  1.00  0.00    -0.182 OA 
BRANCH  18  20
HETATM   20  C   UNL     1     -10.410   6.869  70.893  1.00  0.00    -0.198 C  
BRANCH  20  21
HETATM   21  N   UNL     1     -11.613   7.221  71.673  1.00  0.00    -0.264 NA 
HETATM   22  C   UNL     1     -12.122   6.068  72.423  1.00  0.00    -0.115 C  
HETATM   23  C   UNL     1     -11.287   8.305  72.603  1.00  0.00    -0.350 C  
ENDBRANCH  20  21
ENDBRANCH  18  20
ENDBRANCH  14  15
ENDBRANCH  13  14
ENDBRANCH  12  13
ENDBRANCH  11  12
ENDBRANCH   9  11
ENDBRANCH   4   9
ENDBRANCH   2   4
TORSDOF 9
ENDMDL
MODEL      316
REMARK 921   NORMALIZED FREE ENERGY PREDICTED BY IDOCK:   -3.05 KCAL/MOL
REMARK 922        TOTAL FREE ENERGY PREDICTED BY IDOCK:   -5.05 KCAL/MOL
REMARK 923 INTER-LIGAND FREE ENERGY PREDICTED BY IDOCK:   -5.16 KCAL/MOL
REMARK 924 INTRA-LIGAND FREE ENERGY PREDICTED BY IDOCK:    0.12 KCAL/MOL
REMARK 927      BINDING AFFINITY PREDICTED BY RF-SCORE:    0.00 PKD
ROOT
HETATM    1  C   UNL     1     -12.384  13.161  64.463  1.00  0.00    -0.385 C  
HETATM    2  N   UNL     1     -12.187  12.560  65.763  1.00  0.00    -0.626 NA 
HETATM    3  H   UNL     1     -12.547  11.612  65.866  1.00  0.00     0.000 HD 
ENDROOT
BRANCH   2   4
HETATM    4  C   UNL     1     -11.579  13.091  66.888  1.00  0.00    -0.366 C  
HETATM    5  C   UNL     1     -12.026  14.266  67.385  1.00  0.00    -0.391 C  
HETATM    6  O   UNL     1     -10.587  14.342  69.211  1.00  0.00    -0.223 OA 
HETATM    7  N   UNL     1     -11.482  14.900  68.562  1.00  0.00    -0.301 N  
HETATM    8  O   UNL     1     -11.981  15.998  68.850  1.00  0.00    -0.348 OA 
BRANCH   4   9
HETATM    9  N   UNL     1     -10.518  12.399  67.439  1.00  0.00    -0.214 NA 
HETATM   10  H   UNL     1      -9.596  12.782  67.230  1.00  0.00     0.000 HD 
BRANCH   9  11
HETATM   11  C   UNL     1     -10.517  11.211  68.268  1.00  0.00    -0.191 C  
BRANCH  11  12
HETATM   12  C   UNL     1     -10.634   9.961  67.389  1.00  0.00    -0.277 C  
BRANCH  12  13
HETATM   13  S   UNL     1     -10.049   8.449  68.225  1.00  0.00    -0.204 SA 
BRANCH  13  14
HETATM   14  C   UNL     1     -10.735   7.190  67.099  1.00  0.00    -0.352 C  
BRANCH  14  15
HETATM   15  C   UNL     1      -9.705   6.187  66.750  1.00  0.00    -0.158 A  
HETATM   16  C   UNL     1      -8.329   6.191  66.767  1.00  0.00    -0.110 A  
HETATM   17  C   UNL     1      -7.925   4.915  66.305  1.00  0.00    -0.107 A  
HETATM   18  C   UNL     1      -9.079   4.213  66.027  1.00  0.00    -0.136 A  
HETATM   19  O   UNL     1     -10.168   4.991  66.287  1.00  0.00    -0.222 OA 
BRANCH  18  20
HETATM   20  C   UNL     1      -9.353   2.842  65.504  1.00  0.00    -0.084 C  
BRANCH  20  21
HETATM   21  N   UNL     1      -9.433   2.781  64.031  1.00  0.00    -0.123 NA 
HETATM   22  C   UNL     1     -10.619   3.484  63.529  1.00  0.00    -0.261 C  
HETATM   23  C   UNL     1      -8.227   3.382  63.455  1.00  0.00    -0.089 C  
ENDBRANCH  20  21
ENDBRANCH  18  20
ENDBRANCH  14  15
ENDBRANCH  13  14
ENDBRANCH  12  13
ENDBRANCH  11  12
ENDBRANCH   9  11
ENDBRANCH   4   9
ENDBRANCH   2   4
TORSDOF 9
ENDMDL
MODEL      317
REMARK 921   NORMALIZED FREE ENERGY PREDICTED BY IDOCK:   -3.02 KCAL/MOL
REMARK 922        TOTAL FREE ENERGY PREDICTED BY IDOCK:   -5.00 KCAL/MOL
REMARK 923 INTER-LIGAND FREE ENERGY PREDICTED BY IDOCK:   -4.14 KCAL/MOL
REMARK 924 INTRA-LIGAND FREE ENERGY PREDICTED BY IDOCK:   -0.86 KCAL/MOL
REMARK 927      BINDING AFFINITY PREDICTED BY RF-SCORE:    0.00 PKD
ROOT
HETATM    1  C   UNL     1     -10.728   3.832  64.077  1.00  0.00    -0.242 C  
HETATM    2  N   UNL     1      -9.546   4.390  64.696  1.00  0.00    -0.245 NA 
HETATM    3  H   UNL     1      -8.658   4.067  64.313  1.00  0.00     0.000 HD 
ENDROOT
BRANCH   2   4
HETATM    4  C   UNL     1      -9.450   5.300  65.735  1.00  0.00    -0.117 C  
HETATM    5  C   UNL     1      -9.967   4.978  66.942  1.00  0.00    -0.212 C  
HETATM    6  O   UNL     1      -9.309   6.922  68.036  1.00  0.00    -0.125 OA 
HETATM    7  N   UNL     1      -9.905   5.839  68.099  1.00  0.00    -0.128 N  
HETATM    8  O   UNL     1     -10.472   5.405  69.113  1.00  0.00    -0.235 OA 
BRANCH   4   9
HETATM    9  N   UNL     1      -8.846   6.515  65.478  1.00  0.00    -0.344 NA 
HETATM   10  H   UNL     1      -9.208   7.302  66.018  1.00  0.00     0.000 HD 
BRANCH   9  11
HETATM   11  C   UNL     1      -7.776   6.843  64.557  1.00  0.00    -0.116 C  
BRANCH  11  12
HETATM   12  C   UNL     1      -6.844   7.881  65.190  1.00  0.00    -0.051 C  
BRANCH  12  13
HETATM   13  S   UNL     1      -7.090   9.559  64.516  1.00  0.00    -0.112 SA 
BRANCH  13  14
HETATM   14  C   UNL     1      -7.325  10.483  66.070  1.00  0.00    -0.137 C  
BRANCH  14  15
HETATM   15  C   UNL     1      -8.688  10.263  66.604  1.00  0.00    -0.127 A  
HETATM   16  C   UNL     1      -9.854   9.772  66.063  1.00  0.00    -0.342 A  
HETATM   17  C   UNL     1     -10.820   9.823  67.097  1.00  0.00    -0.207 A  
HETATM   18  C   UNL     1     -10.187  10.348  68.203  1.00  0.00    -0.161 A  
HETATM   19  O   UNL     1      -8.887  10.628  67.902  1.00  0.00    -0.129 OA 
BRANCH  18  20
HETATM   20  C   UNL     1     -10.631  10.672  69.591  1.00  0.00    -0.217 C  
BRANCH  20  21
HETATM   21  N   UNL     1     -11.361   9.568  70.245  1.00  0.00    -0.249 NA 
HETATM   22  C   UNL     1     -10.515   8.868  71.217  1.00  0.00    -0.287 C  
HETATM   23  C   UNL     1     -12.543  10.106  70.924  1.00  0.00    -0.360 C  
ENDBRANCH  20  21
ENDBRANCH  18  20
ENDBRANCH  14  15
ENDBRANCH  13  14
ENDBRANCH  12  13
ENDBRANCH  11  12
ENDBRANCH   9  11
ENDBRANCH   4   9
ENDBRANCH   2   4
TORSDOF 9
ENDMDL
MODEL      318
REMARK 921   NORMALIZED FREE ENERGY PREDICTED BY IDOCK:   -3.01 KCAL/MOL
REMARK 922        TOTAL FREE ENERGY PREDICTED BY IDOCK:   -4.98 KCAL/MOL
REMARK 923 INTER-LIGAND FREE ENERGY PREDICTED BY IDOCK:   -4.87 KCAL/MOL
REMARK 924 INTRA-LIGAND FREE ENERGY PREDICTED BY IDOCK:   -0.11 KCAL/MOL
REMARK 927      BINDING AFFINITY PREDICTED BY RF-SCORE:    0.00 PKD
ROOT
HETATM    1  C   UNL     1     -12.387  12.737  64.222  1.00  0.00    -0.416 C  
HETATM    2  N   UNL     1     -12.281  12.137  65.533  1.00  0.00    -0.517 NA 
HETATM    3  H   UNL     1     -12.690  11.208  65.624  1.00  0.00     0.000 HD 
ENDROOT
BRANCH   2   4
HETATM    4  C   UNL     1     -11.702  12.647  66.683  1.00  0.00    -0.398 C  
HETATM    5  C   UNL     1     -12.015  13.902  67.077  1.00  0.00    -0.424 C  
HETATM    6  O   UNL     1     -10.745  13.890  69.025  1.00  0.00    -0.240 OA 
HETATM    7  N   UNL     1     -11.490  14.525  68.268  1.00  0.00    -0.295 N  
HETATM    8  O   UNL     1     -11.847  15.698  68.453  1.00  0.00    -0.346 OA 
BRANCH   4   9
HETATM    9  N   UNL     1     -10.804  11.849  67.365  1.00  0.00    -0.231 NA 
HETATM   10  H   UNL     1      -9.831  12.151  67.315  1.00  0.00     0.000 HD 
BRANCH   9  11
HETATM   11  C   UNL     1     -11.035  10.648  68.142  1.00  0.00    -0.269 C  
BRANCH  11  12
HETATM   12  C   UNL     1     -10.775   9.410  67.277  1.00  0.00    -0.188 C  
BRANCH  12  13
HETATM   13  S   UNL     1     -10.192   7.978  68.246  1.00  0.00    -0.201 SA 
BRANCH  13  14
HETATM   14  C   UNL     1     -10.998   6.631  67.320  1.00  0.00    -0.385 C  
BRANCH  14  15
HETATM   15  C   UNL     1      -9.994   5.831  66.584  1.00  0.00    -0.176 A  
HETATM   16  C   UNL     1      -9.872   4.492  66.294  1.00  0.00    -0.244 A  
HETATM   17  C   UNL     1      -8.671   4.356  65.555  1.00  0.00    -0.123 A  
HETATM   18  C   UNL     1      -8.130   5.619  65.447  1.00  0.00    -0.126 A  
HETATM   19  O   UNL     1      -8.930   6.521  66.083  1.00  0.00    -0.155 OA 
BRANCH  18  20
HETATM   20  C   UNL     1      -6.891   6.161  64.816  1.00  0.00    -0.047 C  
BRANCH  20  21
HETATM   21  N   UNL     1      -5.836   6.502  65.791  1.00  0.00    -0.025 NA 
HETATM   22  C   UNL     1      -5.970   7.884  66.264  1.00  0.00    -0.041 C  
HETATM   23  C   UNL     1      -5.917   5.585  66.931  1.00  0.00    -0.018 C  
ENDBRANCH  20  21
ENDBRANCH  18  20
ENDBRANCH  14  15
ENDBRANCH  13  14
ENDBRANCH  12  13
ENDBRANCH  11  12
ENDBRANCH   9  11
ENDBRANCH   4   9
ENDBRANCH   2   4
TORSDOF 9
ENDMDL
MODEL      319
REMARK 921   NORMALIZED FREE ENERGY PREDICTED BY IDOCK:   -3.01 KCAL/MOL
REMARK 922        TOTAL FREE ENERGY PREDICTED BY IDOCK:   -4.98 KCAL/MOL
REMARK 923 INTER-LIGAND FREE ENERGY PREDICTED BY IDOCK:   -4.74 KCAL/MOL
REMARK 924 INTRA-LIGAND FREE ENERGY PREDICTED BY IDOCK:   -0.24 KCAL/MOL
REMARK 927      BINDING AFFINITY PREDICTED BY RF-SCORE:    0.00 PKD
ROOT
HETATM    1  C   UNL     1      -7.829  19.618  65.461  1.00  0.00     0.104 C  
HETATM    2  N   UNL     1      -7.897  18.242  65.900  1.00  0.00    -0.519 NA 
HETATM    3  H   UNL     1      -7.276  17.596  65.415  1.00  0.00     0.000 HD 
ENDROOT
BRANCH   2   4
HETATM    4  C   UNL     1      -8.688  17.678  66.887  1.00  0.00    -0.246 C  
HETATM    5  C   UNL     1      -9.227  18.477  67.836  1.00  0.00    -0.290 C  
HETATM    6  O   UNL     1     -10.404  16.807  68.947  1.00  0.00    -0.276 OA 
HETATM    7  N   UNL     1     -10.082  18.001  68.896  1.00  0.00    -0.376 N  
HETATM    8  O   UNL     1     -10.450  18.865  69.707  1.00  0.00     0.432 OA 
BRANCH   4   9
HETATM    9  N   UNL     1      -8.869  16.309  66.869  1.00  0.00    -0.200 NA 
HETATM   10  H   UNL     1      -8.638  15.830  67.739  1.00  0.00     0.000 HD 
BRANCH   9  11
HETATM   11  C   UNL     1      -9.338  15.450  65.800  1.00  0.00    -0.229 C  
BRANCH  11  12
HETATM   12  C   UNL     1     -10.648  16.001  65.226  1.00  0.00    -0.402 C  
BRANCH  12  13
HETATM   13  S   UNL     1     -11.899  14.703  64.945  1.00  0.00    -0.392 SA 
BRANCH  13  14
HETATM   14  C   UNL     1     -10.816  13.348  64.384  1.00  0.00    -0.406 C  
BRANCH  14  15
HETATM   15  C   UNL     1     -10.725  12.293  65.417  1.00  0.00    -0.284 A  
HETATM   16  C   UNL     1     -11.031  12.245  66.758  1.00  0.00    -0.321 A  
HETATM   17  C   UNL     1     -10.707  10.936  67.190  1.00  0.00    -0.320 A  
HETATM   18  C   UNL     1     -10.216  10.268  66.089  1.00  0.00    -0.217 A  
HETATM   19  O   UNL     1     -10.215  11.097  65.007  1.00  0.00    -0.261 OA 
BRANCH  18  20
HETATM   20  C   UNL     1      -9.692   8.888  65.868  1.00  0.00    -0.189 C  
BRANCH  20  21
HETATM   21  N   UNL     1      -8.228   8.837  65.685  1.00  0.00    -0.114 NA 
HETATM   22  C   UNL     1      -7.854   9.090  64.290  1.00  0.00    -0.130 C  
HETATM   23  C   UNL     1      -7.598   9.838  66.550  1.00  0.00    -0.098 C  
ENDBRANCH  20  21
ENDBRANCH  18  20
ENDBRANCH  14  15
ENDBRANCH  13  14
ENDBRANCH  12  13
ENDBRANCH  11  12
ENDBRANCH   9  11
ENDBRANCH   4   9
ENDBRANCH   2   4
TORSDOF 9
ENDMDL
MODEL      320
REMARK 921   NORMALIZED FREE ENERGY PREDICTED BY IDOCK:   -3.01 KCAL/MOL
REMARK 922        TOTAL FREE ENERGY PREDICTED BY IDOCK:   -4.98 KCAL/MOL
REMARK 923 INTER-LIGAND FREE ENERGY PREDICTED BY IDOCK:   -4.94 KCAL/MOL
REMARK 924 INTRA-LIGAND FREE ENERGY PREDICTED BY IDOCK:   -0.03 KCAL/MOL
REMARK 927      BINDING AFFINITY PREDICTED BY RF-SCORE:    0.00 PKD
ROOT
HETATM    1  C   UNL     1      -9.141   4.768  71.633  1.00  0.00    -0.136 C  
HETATM    2  N   UNL     1     -10.110   4.485  70.598  1.00  0.00    -0.200 NA 
HETATM    3  H   UNL     1     -10.574   3.580  70.669  1.00  0.00     0.000 HD 
ENDROOT
BRANCH   2   4
HETATM    4  C   UNL     1     -10.496   5.270  69.525  1.00  0.00    -0.234 C  
HETATM    5  C   UNL     1      -9.839   5.147  68.350  1.00  0.00    -0.152 C  
HETATM    6  O   UNL     1     -11.136   6.671  67.164  1.00  0.00    -0.392 OA 
HETATM    7  N   UNL     1     -10.169   5.896  67.162  1.00  0.00    -0.177 N  
HETATM    8  O   UNL     1      -9.433   5.693  66.185  1.00  0.00    -0.158 OA 
BRANCH   4   9
HETATM    9  N   UNL     1     -11.529   6.167  69.716  1.00  0.00    -0.401 NA 
HETATM   10  H   UNL     1     -12.336   6.035  69.106  1.00  0.00     0.000 HD 
BRANCH   9  11
HETATM   11  C   UNL     1     -11.640   7.267  70.652  1.00  0.00    -0.290 C  
BRANCH  11  12
HETATM   12  C   UNL     1     -10.816   8.460  70.154  1.00  0.00    -0.236 C  
BRANCH  12  13
HETATM   13  S   UNL     1     -11.377  10.050  70.853  1.00  0.00    -0.344 SA 
BRANCH  13  14
HETATM   14  C   UNL     1     -12.028  10.836  69.342  1.00  0.00    -0.281 C  
BRANCH  14  15
HETATM   15  C   UNL     1     -10.934  11.100  68.381  1.00  0.00    -0.227 A  
HETATM   16  C   UNL     1      -9.784  11.854  68.432  1.00  0.00    -0.201 A  
HETATM   17  C   UNL     1      -9.155  11.699  67.173  1.00  0.00    -0.171 A  
HETATM   18  C   UNL     1      -9.963  10.867  66.428  1.00  0.00    -0.221 A  
HETATM   19  O   UNL     1     -11.056  10.508  67.158  1.00  0.00    -0.265 OA 
BRANCH  18  20
HETATM   20  C   UNL     1      -9.887  10.326  65.039  1.00  0.00    -0.329 C  
BRANCH  20  21
HETATM   21  N   UNL     1      -8.671   9.527  64.787  1.00  0.00    -0.185 NA 
HETATM   22  C   UNL     1      -8.443   9.338  63.350  1.00  0.00    -0.202 C  
HETATM   23  C   UNL     1      -7.515  10.204  65.381  1.00  0.00    -0.144 C  
ENDBRANCH  20  21
ENDBRANCH  18  20
ENDBRANCH  14  15
ENDBRANCH  13  14
ENDBRANCH  12  13
ENDBRANCH  11  12
ENDBRANCH   9  11
ENDBRANCH   4   9
ENDBRANCH   2   4
TORSDOF 9
ENDMDL
MODEL      321
REMARK 921   NORMALIZED FREE ENERGY PREDICTED BY IDOCK:   -2.99 KCAL/MOL
REMARK 922        TOTAL FREE ENERGY PREDICTED BY IDOCK:   -4.95 KCAL/MOL
REMARK 923 INTER-LIGAND FREE ENERGY PREDICTED BY IDOCK:   -4.15 KCAL/MOL
REMARK 924 INTRA-LIGAND FREE ENERGY PREDICTED BY IDOCK:   -0.80 KCAL/MOL
REMARK 927      BINDING AFFINITY PREDICTED BY RF-SCORE:    0.00 PKD
ROOT
HETATM    1  C   UNL     1      -5.781  16.819  69.082  1.00  0.00    -0.152 C  
HETATM    2  N   UNL     1      -5.296  15.485  68.809  1.00  0.00    -0.098 NA 
HETATM    3  H   UNL     1      -4.813  15.368  67.918  1.00  0.00     0.000 HD 
ENDROOT
BRANCH   2   4
HETATM    4  C   UNL     1      -5.397  14.342  69.584  1.00  0.00    -0.091 C  
HETATM    5  C   UNL     1      -5.483  14.464  70.928  1.00  0.00    -0.161 C  
HETATM    6  O   UNL     1      -5.703  12.195  71.384  1.00  0.00    -0.381 OA 
HETATM    7  N   UNL     1      -5.612  13.346  71.830  1.00  0.00    -0.063 N  
HETATM    8  O   UNL     1      -5.631  13.637  73.036  1.00  0.00    -0.437 OA 
BRANCH   4   9
HETATM    9  N   UNL     1      -5.379  13.119  68.942  1.00  0.00    -0.071 NA 
HETATM   10  H   UNL     1      -5.165  12.320  69.539  1.00  0.00     0.000 HD 
BRANCH   9  11
HETATM   11  C   UNL     1      -5.618  12.800  67.549  1.00  0.00    -0.104 C  
BRANCH  11  12
HETATM   12  C   UNL     1      -5.663  11.279  67.364  1.00  0.00    -0.057 C  
BRANCH  12  13
HETATM   13  S   UNL     1      -6.874  10.467  68.461  1.00  0.00    -0.066 SA 
BRANCH  13  14
HETATM   14  C   UNL     1      -7.810   9.505  67.228  1.00  0.00    -0.098 C  
BRANCH  14  15
HETATM   15  C   UNL     1      -8.874  10.334  66.620  1.00  0.00    -0.136 A  
HETATM   16  C   UNL     1      -9.787  10.121  65.612  1.00  0.00    -0.347 A  
HETATM   17  C   UNL     1     -10.534  11.318  65.497  1.00  0.00    -0.323 A  
HETATM   18  C   UNL     1     -10.027  12.191  66.436  1.00  0.00    -0.225 A  
HETATM   19  O   UNL     1      -9.006  11.597  67.116  1.00  0.00    -0.164 OA 
BRANCH  18  20
HETATM   20  C   UNL     1     -10.350  13.596  66.821  1.00  0.00    -0.268 C  
BRANCH  20  21
HETATM   21  N   UNL     1      -9.520  14.600  66.127  1.00  0.00    -0.296 NA 
HETATM   22  C   UNL     1     -10.347  15.611  65.459  1.00  0.00    -0.396 C  
HETATM   23  C   UNL     1      -8.638  15.253  67.098  1.00  0.00    -0.211 C  
ENDBRANCH  20  21
ENDBRANCH  18  20
ENDBRANCH  14  15
ENDBRANCH  13  14
ENDBRANCH  12  13
ENDBRANCH  11  12
ENDBRANCH   9  11
ENDBRANCH   4   9
ENDBRANCH   2   4
TORSDOF 9
ENDMDL
MODEL      322
REMARK 921   NORMALIZED FREE ENERGY PREDICTED BY IDOCK:   -2.97 KCAL/MOL
REMARK 922        TOTAL FREE ENERGY PREDICTED BY IDOCK:   -4.93 KCAL/MOL
REMARK 923 INTER-LIGAND FREE ENERGY PREDICTED BY IDOCK:   -4.45 KCAL/MOL
REMARK 924 INTRA-LIGAND FREE ENERGY PREDICTED BY IDOCK:   -0.48 KCAL/MOL
REMARK 927      BINDING AFFINITY PREDICTED BY RF-SCORE:    0.00 PKD
ROOT
HETATM    1  C   UNL     1     -10.812   6.949  66.844  1.00  0.00    -0.310 C  
HETATM    2  N   UNL     1     -11.135   5.567  66.575  1.00  0.00    -0.650 NA 
HETATM    3  H   UNL     1     -12.069   5.272  66.860  1.00  0.00     0.000 HD 
ENDROOT
BRANCH   2   4
HETATM    4  C   UNL     1     -10.356   4.585  65.985  1.00  0.00    -0.243 C  
HETATM    5  C   UNL     1     -10.679   4.144  64.749  1.00  0.00    -0.125 C  
HETATM    6  O   UNL     1      -8.892   2.672  64.522  1.00  0.00    -0.103 OA 
HETATM    7  N   UNL     1      -9.927   3.143  64.031  1.00  0.00    -0.160 N  
HETATM    8  O   UNL     1     -10.391   2.822  62.927  1.00  0.00    -0.119 OA 
BRANCH   4   9
HETATM    9  N   UNL     1      -9.291   4.083  66.706  1.00  0.00    -0.169 NA 
HETATM   10  H   UNL     1      -8.428   4.622  66.637  1.00  0.00     0.000 HD 
BRANCH   9  11
HETATM   11  C   UNL     1      -9.214   2.905  67.546  1.00  0.00    -0.193 C  
BRANCH  11  12
HETATM   12  C   UNL     1      -9.376   3.302  69.018  1.00  0.00    -0.163 C  
BRANCH  12  13
HETATM   13  S   UNL     1      -8.781   4.992  69.365  1.00  0.00    -0.092 SA 
BRANCH  13  14
HETATM   14  C   UNL     1      -9.768   5.365  70.852  1.00  0.00    -0.180 C  
BRANCH  14  15
HETATM   15  C   UNL     1      -9.851   6.827  71.067  1.00  0.00    -0.182 A  
HETATM   16  C   UNL     1     -10.363   7.611  72.076  1.00  0.00    -0.252 A  
HETATM   17  C   UNL     1     -10.138   8.953  71.683  1.00  0.00    -0.411 A  
HETATM   18  C   UNL     1      -9.511   8.905  70.456  1.00  0.00    -0.204 A  
HETATM   19  O   UNL     1      -9.344   7.608  70.072  1.00  0.00    -0.154 OA 
BRANCH  18  20
HETATM   20  C   UNL     1      -9.021   9.946  69.505  1.00  0.00    -0.211 C  
BRANCH  20  21
HETATM   21  N   UNL     1     -10.041  10.376  68.528  1.00  0.00    -0.164 NA 
HETATM   22  C   UNL     1     -10.791  11.539  69.014  1.00  0.00    -0.212 C  
HETATM   23  C   UNL     1      -9.386  10.709  67.261  1.00  0.00    -0.150 C  
ENDBRANCH  20  21
ENDBRANCH  18  20
ENDBRANCH  14  15
ENDBRANCH  13  14
ENDBRANCH  12  13
ENDBRANCH  11  12
ENDBRANCH   9  11
ENDBRANCH   4   9
ENDBRANCH   2   4
TORSDOF 9
ENDMDL
MODEL      323
REMARK 921   NORMALIZED FREE ENERGY PREDICTED BY IDOCK:   -2.95 KCAL/MOL
REMARK 922        TOTAL FREE ENERGY PREDICTED BY IDOCK:   -4.89 KCAL/MOL
REMARK 923 INTER-LIGAND FREE ENERGY PREDICTED BY IDOCK:   -4.16 KCAL/MOL
REMARK 924 INTRA-LIGAND FREE ENERGY PREDICTED BY IDOCK:   -0.73 KCAL/MOL
REMARK 927      BINDING AFFINITY PREDICTED BY RF-SCORE:    0.00 PKD
ROOT
HETATM    1  C   UNL     1     -10.934  11.830  68.860  1.00  0.00    -0.239 C  
HETATM    2  N   UNL     1     -11.228  11.183  70.119  1.00  0.00    -0.480 NA 
HETATM    3  H   UNL     1     -11.160  11.779  70.944  1.00  0.00     0.000 HD 
ENDROOT
BRANCH   2   4
HETATM    4  C   UNL     1     -11.587   9.869  70.363  1.00  0.00    -0.282 C  
HETATM    5  C   UNL     1     -12.591   9.610  71.229  1.00  0.00    -0.352 C  
HETATM    6  O   UNL     1     -12.577   7.300  70.968  1.00  0.00    -0.328 OA 
HETATM    7  N   UNL     1     -13.063   8.283  71.542  1.00  0.00    -0.317 N  
HETATM    8  O   UNL     1     -13.962   8.227  72.394  1.00  0.00    -0.264 OA 
BRANCH   4   9
HETATM    9  N   UNL     1     -10.876   8.873  69.721  1.00  0.00    -0.301 NA 
HETATM   10  H   UNL     1     -11.438   8.232  69.160  1.00  0.00     0.000 HD 
BRANCH   9  11
HETATM   11  C   UNL     1      -9.453   8.600  69.724  1.00  0.00    -0.166 C  
BRANCH  11  12
HETATM   12  C   UNL     1      -8.895   8.725  68.302  1.00  0.00    -0.141 C  
BRANCH  12  13
HETATM   13  S   UNL     1      -8.079   7.200  67.724  1.00  0.00    -0.115 SA 
BRANCH  13  14
HETATM   14  C   UNL     1      -7.609   6.476  69.330  1.00  0.00    -0.096 C  
BRANCH  14  15
HETATM   15  C   UNL     1      -8.292   5.179  69.536  1.00  0.00    -0.093 A  
HETATM   16  C   UNL     1      -8.825   4.239  68.684  1.00  0.00    -0.136 A  
HETATM   17  C   UNL     1      -9.349   3.213  69.508  1.00  0.00    -0.228 A  
HETATM   18  C   UNL     1      -9.112   3.594  70.811  1.00  0.00    -0.112 A  
HETATM   19  O   UNL     1      -8.476   4.800  70.833  1.00  0.00    -0.102 OA 
BRANCH  18  20
HETATM   20  C   UNL     1      -9.418   2.983  72.138  1.00  0.00    -0.128 C  
BRANCH  20  21
HETATM   21  N   UNL     1     -10.185   3.872  73.032  1.00  0.00    -0.153 NA 
HETATM   22  C   UNL     1     -11.455   3.260  73.436  1.00  0.00    -0.020 C  
HETATM   23  C   UNL     1      -9.384   4.171  74.222  1.00  0.00    -0.106 C  
ENDBRANCH  20  21
ENDBRANCH  18  20
ENDBRANCH  14  15
ENDBRANCH  13  14
ENDBRANCH  12  13
ENDBRANCH  11  12
ENDBRANCH   9  11
ENDBRANCH   4   9
ENDBRANCH   2   4
TORSDOF 9
ENDMDL
MODEL      324
REMARK 921   NORMALIZED FREE ENERGY PREDICTED BY IDOCK:   -2.94 KCAL/MOL
REMARK 922        TOTAL FREE ENERGY PREDICTED BY IDOCK:   -4.88 KCAL/MOL
REMARK 923 INTER-LIGAND FREE ENERGY PREDICTED BY IDOCK:   -4.64 KCAL/MOL
REMARK 924 INTRA-LIGAND FREE ENERGY PREDICTED BY IDOCK:   -0.24 KCAL/MOL
REMARK 927      BINDING AFFINITY PREDICTED BY RF-SCORE:    0.00 PKD
ROOT
HETATM    1  C   UNL     1     -12.257  13.523  64.437  1.00  0.00    -0.390 C  
HETATM    2  N   UNL     1     -12.263  12.881  65.732  1.00  0.00    -0.501 NA 
HETATM    3  H   UNL     1     -12.772  11.999  65.781  1.00  0.00     0.000 HD 
ENDROOT
BRANCH   2   4
HETATM    4  C   UNL     1     -11.676  13.296  66.916  1.00  0.00    -0.388 C  
HETATM    5  C   UNL     1     -11.702  14.608  67.239  1.00  0.00    -0.385 C  
HETATM    6  O   UNL     1     -10.645  14.391  69.299  1.00  0.00    -0.236 OA 
HETATM    7  N   UNL     1     -11.143  15.148  68.455  1.00  0.00    -0.269 N  
HETATM    8  O   UNL     1     -11.213  16.381  68.569  1.00  0.00    -0.358 OA 
BRANCH   4   9
HETATM    9  N   UNL     1     -11.065  12.341  67.705  1.00  0.00    -0.253 NA 
HETATM   10  H   UNL     1     -10.073  12.497  67.883  1.00  0.00     0.000 HD 
BRANCH   9  11
HETATM   11  C   UNL     1     -11.620  11.151  68.318  1.00  0.00    -0.289 C  
BRANCH  11  12
HETATM   12  C   UNL     1     -10.998   9.901  67.687  1.00  0.00    -0.200 C  
BRANCH  12  13
HETATM   13  S   UNL     1      -9.663   9.183  68.703  1.00  0.00    -0.159 SA 
BRANCH  13  14
HETATM   14  C   UNL     1      -9.822   7.431  68.225  1.00  0.00    -0.160 C  
BRANCH  14  15
HETATM   15  C   UNL     1      -8.740   7.046  67.293  1.00  0.00    -0.120 A  
HETATM   16  C   UNL     1      -7.523   6.423  67.454  1.00  0.00    -0.088 A  
HETATM   17  C   UNL     1      -6.945   6.349  66.163  1.00  0.00    -0.066 A  
HETATM   18  C   UNL     1      -7.840   6.938  65.296  1.00  0.00    -0.118 A  
HETATM   19  O   UNL     1      -8.932   7.374  65.984  1.00  0.00    -0.166 OA 
BRANCH  18  20
HETATM   20  C   UNL     1      -7.836   7.195  63.825  1.00  0.00    -0.110 C  
BRANCH  20  21
HETATM   21  N   UNL     1      -7.516   8.592  63.474  1.00  0.00    -0.105 NA 
HETATM   22  C   UNL     1      -8.714   9.438  63.492  1.00  0.00    -0.204 C  
HETATM   23  C   UNL     1      -6.532   9.116  64.425  1.00  0.00    -0.079 C  
ENDBRANCH  20  21
ENDBRANCH  18  20
ENDBRANCH  14  15
ENDBRANCH  13  14
ENDBRANCH  12  13
ENDBRANCH  11  12
ENDBRANCH   9  11
ENDBRANCH   4   9
ENDBRANCH   2   4
TORSDOF 9
ENDMDL
MODEL      325
REMARK 921   NORMALIZED FREE ENERGY PREDICTED BY IDOCK:   -2.94 KCAL/MOL
REMARK 922        TOTAL FREE ENERGY PREDICTED BY IDOCK:   -4.88 KCAL/MOL
REMARK 923 INTER-LIGAND FREE ENERGY PREDICTED BY IDOCK:   -4.45 KCAL/MOL
REMARK 924 INTRA-LIGAND FREE ENERGY PREDICTED BY IDOCK:   -0.43 KCAL/MOL
REMARK 927      BINDING AFFINITY PREDICTED BY RF-SCORE:    0.00 PKD
ROOT
HETATM    1  C   UNL     1      -5.636  18.705  70.417  1.00  0.00    -0.215 C  
HETATM    2  N   UNL     1      -5.313  17.519  69.656  1.00  0.00    -0.186 NA 
HETATM    3  H   UNL     1      -4.699  17.666  68.855  1.00  0.00     0.000 HD 
ENDROOT
BRANCH   2   4
HETATM    4  C   UNL     1      -5.720  16.212  69.860  1.00  0.00    -0.172 C  
HETATM    5  C   UNL     1      -5.474  15.624  71.052  1.00  0.00    -0.001 C  
HETATM    6  O   UNL     1      -6.522  13.604  70.570  1.00  0.00    -0.001 OA 
HETATM    7  N   UNL     1      -5.872  14.276  71.382  1.00  0.00    -0.202 N  
HETATM    8  O   UNL     1      -5.523  13.881  72.504  1.00  0.00    -0.322 OA 
BRANCH   4   9
HETATM    9  N   UNL     1      -6.344  15.556  68.816  1.00  0.00    -0.101 NA 
HETATM   10  H   UNL     1      -5.793  14.819  68.376  1.00  0.00     0.000 HD 
BRANCH   9  11
HETATM   11  C   UNL     1      -7.662  15.758  68.250  1.00  0.00    -0.132 C  
BRANCH  11  12
HETATM   12  C   UNL     1      -7.888  14.780  67.091  1.00  0.00    -0.148 C  
BRANCH  12  13
HETATM   13  S   UNL     1      -7.559  13.046  67.553  1.00  0.00    -0.153 SA 
BRANCH  13  14
HETATM   14  C   UNL     1      -9.145  12.292  67.064  1.00  0.00    -0.201 C  
BRANCH  14  15
HETATM   15  C   UNL     1     -10.276  13.164  67.450  1.00  0.00    -0.232 A  
HETATM   16  C   UNL     1     -11.292  13.771  66.747  1.00  0.00    -0.345 A  
HETATM   17  C   UNL     1     -12.058  14.485  67.699  1.00  0.00    -0.266 A  
HETATM   18  C   UNL     1     -11.459  14.277  68.923  1.00  0.00    -0.286 A  
HETATM   19  O   UNL     1     -10.364  13.480  68.773  1.00  0.00    -0.226 OA 
BRANCH  18  20
HETATM   20  C   UNL     1     -11.751  14.748  70.309  1.00  0.00    -0.298 C  
BRANCH  20  21
HETATM   21  N   UNL     1     -12.837  13.996  70.969  1.00  0.00    -0.341 NA 
HETATM   22  C   UNL     1     -12.535  12.561  71.027  1.00  0.00    -0.258 C  
HETATM   23  C   UNL     1     -13.027  14.512  72.327  1.00  0.00    -0.361 C  
ENDBRANCH  20  21
ENDBRANCH  18  20
ENDBRANCH  14  15
ENDBRANCH  13  14
ENDBRANCH  12  13
ENDBRANCH  11  12
ENDBRANCH   9  11
ENDBRANCH   4   9
ENDBRANCH   2   4
TORSDOF 9
ENDMDL
MODEL      326
REMARK 921   NORMALIZED FREE ENERGY PREDICTED BY IDOCK:   -2.94 KCAL/MOL
REMARK 922        TOTAL FREE ENERGY PREDICTED BY IDOCK:   -4.88 KCAL/MOL
REMARK 923 INTER-LIGAND FREE ENERGY PREDICTED BY IDOCK:   -4.87 KCAL/MOL
REMARK 924 INTRA-LIGAND FREE ENERGY PREDICTED BY IDOCK:   -0.01 KCAL/MOL
REMARK 927      BINDING AFFINITY PREDICTED BY RF-SCORE:    0.00 PKD
ROOT
HETATM    1  C   UNL     1     -11.664   7.004  70.584  1.00  0.00    -0.338 C  
HETATM    2  N   UNL     1     -10.516   6.187  70.262  1.00  0.00    -0.212 NA 
HETATM    3  H   UNL     1     -10.482   5.278  70.723  1.00  0.00     0.000 HD 
ENDROOT
BRANCH   2   4
HETATM    4  C   UNL     1      -9.455   6.464  69.417  1.00  0.00    -0.140 C  
HETATM    5  C   UNL     1      -8.583   5.478  69.109  1.00  0.00    -0.104 C  
HETATM    6  O   UNL     1      -7.271   6.733  67.655  1.00  0.00    -0.088 OA 
HETATM    7  N   UNL     1      -7.456   5.648  68.224  1.00  0.00    -0.076 N  
HETATM    8  O   UNL     1      -6.733   4.650  68.089  1.00  0.00    -0.051 OA 
BRANCH   4   9
HETATM    9  N   UNL     1      -9.323   7.756  68.945  1.00  0.00    -0.147 NA 
HETATM   10  H   UNL     1      -9.764   7.935  68.043  1.00  0.00     0.000 HD 
BRANCH   9  11
HETATM   11  C   UNL     1      -8.652   8.896  69.538  1.00  0.00    -0.134 C  
BRANCH  11  12
HETATM   12  C   UNL     1      -9.499  10.158  69.343  1.00  0.00    -0.224 C  
BRANCH  12  13
HETATM   13  S   UNL     1     -10.682  10.012  67.962  1.00  0.00    -0.256 SA 
BRANCH  13  14
HETATM   14  C   UNL     1     -11.936  11.220  68.502  1.00  0.00    -0.218 C  
BRANCH  14  15
HETATM   15  C   UNL     1     -11.655  12.554  67.927  1.00  0.00    -0.347 A  
HETATM   16  C   UNL     1     -11.181  12.984  66.708  1.00  0.00    -0.333 A  
HETATM   17  C   UNL     1     -11.130  14.397  66.782  1.00  0.00    -0.323 A  
HETATM   18  C   UNL     1     -11.568  14.742  68.043  1.00  0.00    -0.343 A  
HETATM   19  O   UNL     1     -11.879  13.619  68.749  1.00  0.00    -0.323 OA 
BRANCH  18  20
HETATM   20  C   UNL     1     -11.740  16.043  68.756  1.00  0.00    -0.299 C  
BRANCH  20  21
HETATM   21  N   UNL     1     -10.777  16.241  69.856  1.00  0.00    -0.332 NA 
HETATM   22  C   UNL     1     -11.076  15.365  70.994  1.00  0.00    -0.331 C  
HETATM   23  C   UNL     1      -9.422  15.966  69.369  1.00  0.00    -0.248 C  
ENDBRANCH  20  21
ENDBRANCH  18  20
ENDBRANCH  14  15
ENDBRANCH  13  14
ENDBRANCH  12  13
ENDBRANCH  11  12
ENDBRANCH   9  11
ENDBRANCH   4   9
ENDBRANCH   2   4
TORSDOF 9
ENDMDL
MODEL      327
REMARK 921   NORMALIZED FREE ENERGY PREDICTED BY IDOCK:   -2.91 KCAL/MOL
REMARK 922        TOTAL FREE ENERGY PREDICTED BY IDOCK:   -4.83 KCAL/MOL
REMARK 923 INTER-LIGAND FREE ENERGY PREDICTED BY IDOCK:   -4.20 KCAL/MOL
REMARK 924 INTRA-LIGAND FREE ENERGY PREDICTED BY IDOCK:   -0.62 KCAL/MOL
REMARK 927      BINDING AFFINITY PREDICTED BY RF-SCORE:    0.00 PKD
ROOT
HETATM    1  C   UNL     1     -13.180  11.124  71.862  1.00  0.00    -0.382 C  
HETATM    2  N   UNL     1     -11.938  10.526  71.430  1.00  0.00    -0.292 NA 
HETATM    3  H   UNL     1     -11.119  11.131  71.482  1.00  0.00     0.000 HD 
ENDROOT
BRANCH   2   4
HETATM    4  C   UNL     1     -11.702   9.246  70.955  1.00  0.00    -0.311 C  
HETATM    5  C   UNL     1     -11.820   8.198  71.801  1.00  0.00    -0.300 C  
HETATM    6  O   UNL     1     -11.373   6.543  70.230  1.00  0.00    -0.336 OA 
HETATM    7  N   UNL     1     -11.620   6.824  71.411  1.00  0.00    -0.288 N  
HETATM    8  O   UNL     1     -11.722   5.993  72.326  1.00  0.00    -0.310 OA 
BRANCH   4   9
HETATM    9  N   UNL     1     -11.331   9.104  69.632  1.00  0.00    -0.437 NA 
HETATM   10  H   UNL     1     -11.430   8.162  69.254  1.00  0.00     0.000 HD 
BRANCH   9  11
HETATM   11  C   UNL     1     -10.823  10.091  68.701  1.00  0.00    -0.229 C  
BRANCH  11  12
HETATM   12  C   UNL     1      -9.290  10.095  68.731  1.00  0.00    -0.168 C  
BRANCH  12  13
HETATM   13  S   UNL     1      -8.568   8.480  68.284  1.00  0.00    -0.139 SA 
BRANCH  13  14
HETATM   14  C   UNL     1      -7.596   8.972  66.823  1.00  0.00    -0.090 C  
BRANCH  14  15
HETATM   15  C   UNL     1      -7.482   7.845  65.870  1.00  0.00    -0.078 A  
HETATM   16  C   UNL     1      -7.141   7.755  64.540  1.00  0.00    -0.065 A  
HETATM   17  C   UNL     1      -7.227   6.382  64.203  1.00  0.00    -0.065 A  
HETATM   18  C   UNL     1      -7.623   5.720  65.346  1.00  0.00    -0.084 A  
HETATM   19  O   UNL     1      -7.790   6.612  66.363  1.00  0.00    -0.100 OA 
BRANCH  18  20
HETATM   20  C   UNL     1      -7.908   4.290  65.664  1.00  0.00    -0.094 C  
BRANCH  20  21
HETATM   21  N   UNL     1      -8.868   3.662  64.736  1.00  0.00    -0.116 NA 
HETATM   22  C   UNL     1      -8.804   2.199  64.807  1.00  0.00    -0.115 C  
HETATM   23  C   UNL     1     -10.224   4.110  65.066  1.00  0.00    -0.203 C  
ENDBRANCH  20  21
ENDBRANCH  18  20
ENDBRANCH  14  15
ENDBRANCH  13  14
ENDBRANCH  12  13
ENDBRANCH  11  12
ENDBRANCH   9  11
ENDBRANCH   4   9
ENDBRANCH   2   4
TORSDOF 9
ENDMDL
MODEL      328
REMARK 921   NORMALIZED FREE ENERGY PREDICTED BY IDOCK:   -2.91 KCAL/MOL
REMARK 922        TOTAL FREE ENERGY PREDICTED BY IDOCK:   -4.83 KCAL/MOL
REMARK 923 INTER-LIGAND FREE ENERGY PREDICTED BY IDOCK:   -4.11 KCAL/MOL
REMARK 924 INTRA-LIGAND FREE ENERGY PREDICTED BY IDOCK:   -0.72 KCAL/MOL
REMARK 927      BINDING AFFINITY PREDICTED BY RF-SCORE:    0.00 PKD
ROOT
HETATM    1  C   UNL     1      -6.726  10.395  69.833  1.00  0.00    -0.134 C  
HETATM    2  N   UNL     1      -6.711  10.943  68.496  1.00  0.00    -0.056 NA 
HETATM    3  H   UNL     1      -5.786  11.137  68.113  1.00  0.00     0.000 HD 
ENDROOT
BRANCH   2   4
HETATM    4  C   UNL     1      -7.775  11.243  67.662  1.00  0.00    -0.115 C  
HETATM    5  C   UNL     1      -8.469  12.385  67.865  1.00  0.00    -0.166 C  
HETATM    6  O   UNL     1      -9.915  12.137  66.061  1.00  0.00    -0.227 OA 
HETATM    7  N   UNL     1      -9.579  12.807  67.046  1.00  0.00    -0.222 N  
HETATM    8  O   UNL     1     -10.130  13.859  67.402  1.00  0.00    -0.240 OA 
BRANCH   4   9
HETATM    9  N   UNL     1      -8.094  10.338  66.668  1.00  0.00    -0.116 NA 
HETATM   10  H   UNL     1      -8.394  10.751  65.786  1.00  0.00     0.000 HD 
BRANCH   9  11
HETATM   11  C   UNL     1      -8.068   8.889  66.690  1.00  0.00    -0.107 C  
BRANCH  11  12
HETATM   12  C   UNL     1      -8.817   8.373  67.924  1.00  0.00    -0.138 C  
BRANCH  12  13
HETATM   13  S   UNL     1     -10.628   8.535  67.773  1.00  0.00    -0.121 SA 
BRANCH  13  14
HETATM   14  C   UNL     1     -10.905   9.942  68.899  1.00  0.00    -0.210 C  
BRANCH  14  15
HETATM   15  C   UNL     1     -11.692   9.518  70.078  1.00  0.00     0.018 A  
HETATM   16  C   UNL     1     -12.722  10.088  70.790  1.00  0.00    -0.355 A  
HETATM   17  C   UNL     1     -13.039   9.176  71.825  1.00  0.00    -0.456 A  
HETATM   18  C   UNL     1     -12.178   8.109  71.687  1.00  0.00    -0.308 A  
HETATM   19  O   UNL     1     -11.346   8.319  70.628  1.00  0.00    -0.264 OA 
BRANCH  18  20
HETATM   20  C   UNL     1     -11.976   6.839  72.446  1.00  0.00    -0.135 C  
BRANCH  20  21
HETATM   21  N   UNL     1     -10.557   6.455  72.582  1.00  0.00    -0.214 NA 
HETATM   22  C   UNL     1      -9.924   7.137  73.716  1.00  0.00    -0.331 C  
HETATM   23  C   UNL     1     -10.464   5.005  72.769  1.00  0.00    -0.211 C  
ENDBRANCH  20  21
ENDBRANCH  18  20
ENDBRANCH  14  15
ENDBRANCH  13  14
ENDBRANCH  12  13
ENDBRANCH  11  12
ENDBRANCH   9  11
ENDBRANCH   4   9
ENDBRANCH   2   4
TORSDOF 9
ENDMDL
MODEL      329
REMARK 921   NORMALIZED FREE ENERGY PREDICTED BY IDOCK:   -2.86 KCAL/MOL
REMARK 922        TOTAL FREE ENERGY PREDICTED BY IDOCK:   -4.75 KCAL/MOL
REMARK 923 INTER-LIGAND FREE ENERGY PREDICTED BY IDOCK:   -4.22 KCAL/MOL
REMARK 924 INTRA-LIGAND FREE ENERGY PREDICTED BY IDOCK:   -0.54 KCAL/MOL
REMARK 927      BINDING AFFINITY PREDICTED BY RF-SCORE:    0.00 PKD
ROOT
HETATM    1  C   UNL     1     -11.313  13.277  68.233  1.00  0.00    -0.300 C  
HETATM    2  N   UNL     1     -11.788  11.935  68.484  1.00  0.00    -0.368 NA 
HETATM    3  H   UNL     1     -12.432  11.561  67.787  1.00  0.00     0.000 HD 
ENDROOT
BRANCH   2   4
HETATM    4  C   UNL     1     -11.492  11.085  69.537  1.00  0.00    -0.299 C  
HETATM    5  C   UNL     1     -12.493  10.655  70.337  1.00  0.00    -0.338 C  
HETATM    6  O   UNL     1     -11.183   9.285  71.683  1.00  0.00    -0.349 OA 
HETATM    7  N   UNL     1     -12.304   9.753  71.447  1.00  0.00    -0.360 N  
HETATM    8  O   UNL     1     -13.325   9.500  72.104  1.00  0.00    -0.414 OA 
BRANCH   4   9
HETATM    9  N   UNL     1     -10.171  10.734  69.735  1.00  0.00    -0.448 NA 
HETATM   10  H   UNL     1      -9.879  10.678  70.711  1.00  0.00     0.000 HD 
BRANCH   9  11
HETATM   11  C   UNL     1      -9.136  10.435  68.766  1.00  0.00    -0.165 C  
BRANCH  11  12
HETATM   12  C   UNL     1      -9.740   9.688  67.572  1.00  0.00    -0.158 C  
BRANCH  12  13
HETATM   13  S   UNL     1      -9.325  10.457  65.970  1.00  0.00    -0.188 SA 
BRANCH  13  14
HETATM   14  C   UNL     1      -8.818   8.974  65.040  1.00  0.00    -0.170 C  
BRANCH  14  15
HETATM   15  C   UNL     1      -7.880   8.154  65.838  1.00  0.00    -0.094 A  
HETATM   16  C   UNL     1      -6.594   8.348  66.290  1.00  0.00    -0.058 A  
HETATM   17  C   UNL     1      -6.246   7.175  67.002  1.00  0.00    -0.049 A  
HETATM   18  C   UNL     1      -7.336   6.334  66.934  1.00  0.00    -0.083 A  
HETATM   19  O   UNL     1      -8.332   6.924  66.215  1.00  0.00    -0.114 OA 
BRANCH  18  20
HETATM   20  C   UNL     1      -7.616   4.963  67.453  1.00  0.00    -0.090 C  
BRANCH  20  21
HETATM   21  N   UNL     1      -7.246   4.785  68.871  1.00  0.00    -0.053 NA 
HETATM   22  C   UNL     1      -8.422   4.857  69.745  1.00  0.00    -0.083 C  
HETATM   23  C   UNL     1      -6.589   3.486  69.041  1.00  0.00    -0.037 C  
ENDBRANCH  20  21
ENDBRANCH  18  20
ENDBRANCH  14  15
ENDBRANCH  13  14
ENDBRANCH  12  13
ENDBRANCH  11  12
ENDBRANCH   9  11
ENDBRANCH   4   9
ENDBRANCH   2   4
TORSDOF 9
ENDMDL
MODEL      330
REMARK 921   NORMALIZED FREE ENERGY PREDICTED BY IDOCK:   -2.85 KCAL/MOL
REMARK 922        TOTAL FREE ENERGY PREDICTED BY IDOCK:   -4.74 KCAL/MOL
REMARK 923 INTER-LIGAND FREE ENERGY PREDICTED BY IDOCK:   -4.77 KCAL/MOL
REMARK 924 INTRA-LIGAND FREE ENERGY PREDICTED BY IDOCK:    0.02 KCAL/MOL
REMARK 927      BINDING AFFINITY PREDICTED BY RF-SCORE:    0.00 PKD
ROOT
HETATM    1  C   UNL     1      -9.861   7.934  70.204  1.00  0.00    -0.184 C  
HETATM    2  N   UNL     1      -9.479   8.995  69.300  1.00  0.00    -0.155 NA 
HETATM    3  H   UNL     1      -9.319   9.903  69.735  1.00  0.00     0.000 HD 
ENDROOT
BRANCH   2   4
HETATM    4  C   UNL     1      -9.299   8.952  67.928  1.00  0.00    -0.141 C  
HETATM    5  C   UNL     1      -9.122   7.756  67.324  1.00  0.00    -0.131 C  
HETATM    6  O   UNL     1      -9.007   8.574  65.150  1.00  0.00    -0.132 OA 
HETATM    7  N   UNL     1      -8.948   7.591  65.901  1.00  0.00    -0.133 N  
HETATM    8  O   UNL     1      -8.751   6.427  65.523  1.00  0.00    -0.141 OA 
BRANCH   4   9
HETATM    9  N   UNL     1      -9.285  10.149  67.239  1.00  0.00    -0.138 NA 
HETATM   10  H   UNL     1     -10.200  10.487  66.939  1.00  0.00     0.000 HD 
BRANCH   9  11
HETATM   11  C   UNL     1      -8.167  10.998  66.878  1.00  0.00    -0.140 C  
BRANCH  11  12
HETATM   12  C   UNL     1      -7.858  11.968  68.023  1.00  0.00    -0.145 C  
BRANCH  12  13
HETATM   13  S   UNL     1      -7.739  13.703  67.471  1.00  0.00    -0.155 SA 
BRANCH  13  14
HETATM   14  C   UNL     1      -9.339  13.861  66.612  1.00  0.00    -0.268 C  
BRANCH  14  15
HETATM   15  C   UNL     1      -9.761  15.279  66.556  1.00  0.00    -0.268 A  
HETATM   16  C   UNL     1     -10.186  16.105  65.540  1.00  0.00    -0.360 A  
HETATM   17  C   UNL     1     -10.436  17.365  66.136  1.00  0.00    -0.284 A  
HETATM   18  C   UNL     1     -10.141  17.233  67.476  1.00  0.00    -0.315 A  
HETATM   19  O   UNL     1      -9.718  15.963  67.734  1.00  0.00    -0.218 OA 
BRANCH  18  20
HETATM   20  C   UNL     1     -10.175  18.169  68.638  1.00  0.00    -0.366 C  
BRANCH  20  21
HETATM   21  N   UNL     1      -9.217  19.286  68.520  1.00  0.00    -0.369 NA 
HETATM   22  C   UNL     1      -7.896  18.817  68.089  1.00  0.00    -0.288 C  
HETATM   23  C   UNL     1      -9.729  20.262  67.554  1.00  0.00    -0.435 C  
ENDBRANCH  20  21
ENDBRANCH  18  20
ENDBRANCH  14  15
ENDBRANCH  13  14
ENDBRANCH  12  13
ENDBRANCH  11  12
ENDBRANCH   9  11
ENDBRANCH   4   9
ENDBRANCH   2   4
TORSDOF 9
ENDMDL
MODEL      331
REMARK 921   NORMALIZED FREE ENERGY PREDICTED BY IDOCK:   -2.85 KCAL/MOL
REMARK 922        TOTAL FREE ENERGY PREDICTED BY IDOCK:   -4.74 KCAL/MOL
REMARK 923 INTER-LIGAND FREE ENERGY PREDICTED BY IDOCK:   -4.51 KCAL/MOL
REMARK 924 INTRA-LIGAND FREE ENERGY PREDICTED BY IDOCK:   -0.23 KCAL/MOL
REMARK 927      BINDING AFFINITY PREDICTED BY RF-SCORE:    0.00 PKD
ROOT
HETATM    1  C   UNL     1      -7.994   6.838  64.227  1.00  0.00    -0.087 C  
HETATM    2  N   UNL     1      -7.890   8.093  64.936  1.00  0.00    -0.120 NA 
HETATM    3  H   UNL     1      -6.949   8.481  65.003  1.00  0.00     0.000 HD 
ENDROOT
BRANCH   2   4
HETATM    4  C   UNL     1      -8.886   8.842  65.539  1.00  0.00    -0.188 C  
HETATM    5  C   UNL     1      -9.300   9.984  64.947  1.00  0.00    -0.266 C  
HETATM    6  O   UNL     1     -10.954  10.499  66.499  1.00  0.00    -0.125 OA 
HETATM    7  N   UNL     1     -10.344  10.830  65.473  1.00  0.00    -0.260 N  
HETATM    8  O   UNL     1     -10.565  11.864  64.825  1.00  0.00    -0.274 OA 
BRANCH   4   9
HETATM    9  N   UNL     1      -9.396   8.393  66.742  1.00  0.00    -0.171 NA 
HETATM   10  H   UNL     1      -8.995   8.830  67.572  1.00  0.00     0.000 HD 
BRANCH   9  11
HETATM   11  C   UNL     1     -10.415   7.397  67.003  1.00  0.00    -0.333 C  
BRANCH  11  12
HETATM   12  C   UNL     1      -9.863   5.997  66.710  1.00  0.00    -0.163 C  
BRANCH  12  13
HETATM   13  S   UNL     1     -10.250   4.793  68.024  1.00  0.00     0.086 SA 
BRANCH  13  14
HETATM   14  C   UNL     1      -9.304   5.524  69.400  1.00  0.00    -0.118 C  
BRANCH  14  15
HETATM   15  C   UNL     1     -10.217   6.020  70.454  1.00  0.00    -0.204 A  
HETATM   16  C   UNL     1     -11.061   5.402  71.348  1.00  0.00    -0.077 A  
HETATM   17  C   UNL     1     -11.671   6.439  72.095  1.00  0.00    -0.366 A  
HETATM   18  C   UNL     1     -11.169   7.626  71.605  1.00  0.00    -0.247 A  
HETATM   19  O   UNL     1     -10.288   7.374  70.595  1.00  0.00    -0.209 OA 
BRANCH  18  20
HETATM   20  C   UNL     1     -11.404   9.062  71.936  1.00  0.00    -0.368 C  
BRANCH  20  21
HETATM   21  N   UNL     1     -12.455   9.690  71.111  1.00  0.00    -0.324 NA 
HETATM   22  C   UNL     1     -13.250  10.644  71.891  1.00  0.00    -0.423 C  
HETATM   23  C   UNL     1     -11.832  10.382  69.979  1.00  0.00    -0.273 C  
ENDBRANCH  20  21
ENDBRANCH  18  20
ENDBRANCH  14  15
ENDBRANCH  13  14
ENDBRANCH  12  13
ENDBRANCH  11  12
ENDBRANCH   9  11
ENDBRANCH   4   9
ENDBRANCH   2   4
TORSDOF 9
ENDMDL
MODEL      332
REMARK 921   NORMALIZED FREE ENERGY PREDICTED BY IDOCK:   -2.85 KCAL/MOL
REMARK 922        TOTAL FREE ENERGY PREDICTED BY IDOCK:   -4.73 KCAL/MOL
REMARK 923 INTER-LIGAND FREE ENERGY PREDICTED BY IDOCK:   -5.07 KCAL/MOL
REMARK 924 INTRA-LIGAND FREE ENERGY PREDICTED BY IDOCK:    0.33 KCAL/MOL
REMARK 927      BINDING AFFINITY PREDICTED BY RF-SCORE:    0.00 PKD
ROOT
HETATM    1  C   UNL     1      -8.662  14.724  68.873  1.00  0.00    -0.161 C  
HETATM    2  N   UNL     1      -8.912  13.359  68.469  1.00  0.00    -0.339 NA 
HETATM    3  H   UNL     1      -8.282  12.663  68.865  1.00  0.00     0.000 HD 
ENDROOT
BRANCH   2   4
HETATM    4  C   UNL     1      -9.887  12.864  67.620  1.00  0.00    -0.211 C  
HETATM    5  C   UNL     1     -10.844  13.699  67.158  1.00  0.00    -0.285 C  
HETATM    6  O   UNL     1     -11.926  12.141  65.812  1.00  0.00    -0.536 OA 
HETATM    7  N   UNL     1     -11.894  13.298  66.253  1.00  0.00    -0.375 N  
HETATM    8  O   UNL     1     -12.715  14.183  65.968  1.00  0.00    -0.469 OA 
BRANCH   4   9
HETATM    9  N   UNL     1      -9.849  11.520  67.302  1.00  0.00    -0.189 NA 
HETATM   10  H   UNL     1      -9.990  11.304  66.315  1.00  0.00     0.000 HD 
BRANCH   9  11
HETATM   11  C   UNL     1      -9.637  10.371  68.159  1.00  0.00    -0.144 C  
BRANCH  11  12
HETATM   12  C   UNL     1      -8.388  10.587  69.021  1.00  0.00    -0.154 C  
BRANCH  12  13
HETATM   13  S   UNL     1      -8.269   9.402  70.404  1.00  0.00    -0.190 SA 
BRANCH  13  14
HETATM   14  C   UNL     1      -9.957   9.543  71.076  1.00  0.00    -0.199 C  
BRANCH  14  15
HETATM   15  C   UNL     1     -10.519   8.204  71.358  1.00  0.00    -0.212 A  
HETATM   16  C   UNL     1     -11.424   7.726  72.277  1.00  0.00    -0.384 A  
HETATM   17  C   UNL     1     -11.537   6.335  72.034  1.00  0.00    -0.372 A  
HETATM   18  C   UNL     1     -10.688   6.049  70.986  1.00  0.00    -0.265 A  
HETATM   19  O   UNL     1     -10.056   7.185  70.578  1.00  0.00    -0.194 OA 
BRANCH  18  20
HETATM   20  C   UNL     1     -10.330   4.794  70.261  1.00  0.00    -0.110 C  
BRANCH  20  21
HETATM   21  N   UNL     1      -9.097   4.157  70.764  1.00  0.00    -0.102 NA 
HETATM   22  C   UNL     1      -7.901   4.749  70.157  1.00  0.00    -0.058 C  
HETATM   23  C   UNL     1      -9.033   4.309  72.220  1.00  0.00    -0.116 C  
ENDBRANCH  20  21
ENDBRANCH  18  20
ENDBRANCH  14  15
ENDBRANCH  13  14
ENDBRANCH  12  13
ENDBRANCH  11  12
ENDBRANCH   9  11
ENDBRANCH   4   9
ENDBRANCH   2   4
TORSDOF 9
ENDMDL
MODEL      333
REMARK 921   NORMALIZED FREE ENERGY PREDICTED BY IDOCK:   -2.79 KCAL/MOL
REMARK 922        TOTAL FREE ENERGY PREDICTED BY IDOCK:   -4.65 KCAL/MOL
REMARK 923 INTER-LIGAND FREE ENERGY PREDICTED BY IDOCK:   -4.51 KCAL/MOL
REMARK 924 INTRA-LIGAND FREE ENERGY PREDICTED BY IDOCK:   -0.14 KCAL/MOL
REMARK 927      BINDING AFFINITY PREDICTED BY RF-SCORE:    0.00 PKD
ROOT
HETATM    1  C   UNL     1     -10.306  17.462  67.146  1.00  0.00    -0.325 C  
HETATM    2  N   UNL     1     -10.686  16.247  67.832  1.00  0.00    -0.321 NA 
HETATM    3  H   UNL     1     -11.124  16.378  68.743  1.00  0.00     0.000 HD 
ENDROOT
BRANCH   2   4
HETATM    4  C   UNL     1     -10.538  14.932  67.426  1.00  0.00    -0.263 C  
HETATM    5  C   UNL     1     -11.540  14.338  66.739  1.00  0.00    -0.391 C  
HETATM    6  O   UNL     1     -10.460  12.306  66.404  1.00  0.00    -0.230 OA 
HETATM    7  N   UNL     1     -11.486  12.982  66.249  1.00  0.00    -0.321 N  
HETATM    8  O   UNL     1     -12.512  12.584  65.679  1.00  0.00    -0.648 OA 
BRANCH   4   9
HETATM    9  N   UNL     1      -9.372  14.275  67.768  1.00  0.00    -0.193 NA 
HETATM   10  H   UNL     1      -9.499  13.343  68.162  1.00  0.00     0.000 HD 
BRANCH   9  11
HETATM   11  C   UNL     1      -7.994  14.710  67.651  1.00  0.00    -0.179 C  
BRANCH  11  12
HETATM   12  C   UNL     1      -7.068  13.492  67.576  1.00  0.00    -0.148 C  
BRANCH  12  13
HETATM   13  S   UNL     1      -6.835  12.676  69.191  1.00  0.00    -0.010 SA 
BRANCH  13  14
HETATM   14  C   UNL     1      -6.737  10.939  68.647  1.00  0.00    -0.059 C  
BRANCH  14  15
HETATM   15  C   UNL     1      -7.202  10.031  69.719  1.00  0.00    -0.127 A  
HETATM   16  C   UNL     1      -6.773   9.775  71.001  1.00  0.00     0.029 A  
HETATM   17  C   UNL     1      -7.642   8.784  71.517  1.00  0.00    -0.130 A  
HETATM   18  C   UNL     1      -8.543   8.490  70.516  1.00  0.00    -0.147 A  
HETATM   19  O   UNL     1      -8.271   9.242  69.412  1.00  0.00    -0.103 OA 
BRANCH  18  20
HETATM   20  C   UNL     1      -9.691   7.541  70.405  1.00  0.00    -0.179 C  
BRANCH  20  21
HETATM   21  N   UNL     1     -11.006   8.187  70.584  1.00  0.00    -0.241 NA 
HETATM   22  C   UNL     1     -11.252   8.520  71.991  1.00  0.00    -0.348 C  
HETATM   23  C   UNL     1     -11.060   9.407  69.775  1.00  0.00    -0.172 C  
ENDBRANCH  20  21
ENDBRANCH  18  20
ENDBRANCH  14  15
ENDBRANCH  13  14
ENDBRANCH  12  13
ENDBRANCH  11  12
ENDBRANCH   9  11
ENDBRANCH   4   9
ENDBRANCH   2   4
TORSDOF 9
ENDMDL
MODEL      334
REMARK 921   NORMALIZED FREE ENERGY PREDICTED BY IDOCK:   -2.79 KCAL/MOL
REMARK 922        TOTAL FREE ENERGY PREDICTED BY IDOCK:   -4.65 KCAL/MOL
REMARK 923 INTER-LIGAND FREE ENERGY PREDICTED BY IDOCK:   -3.83 KCAL/MOL
REMARK 924 INTRA-LIGAND FREE ENERGY PREDICTED BY IDOCK:   -0.82 KCAL/MOL
REMARK 927      BINDING AFFINITY PREDICTED BY RF-SCORE:    0.00 PKD
ROOT
HETATM    1  C   UNL     1      -8.701   9.407  64.568  1.00  0.00    -0.203 C  
HETATM    2  N   UNL     1      -8.024   9.009  65.781  1.00  0.00    -0.101 NA 
HETATM    3  H   UNL     1      -7.275   9.629  66.088  1.00  0.00     0.000 HD 
ENDROOT
BRANCH   2   4
HETATM    4  C   UNL     1      -8.248   7.904  66.585  1.00  0.00    -0.119 C  
HETATM    5  C   UNL     1      -9.418   7.236  66.475  1.00  0.00    -0.163 C  
HETATM    6  O   UNL     1      -8.921   5.578  68.027  1.00  0.00    -0.109 OA 
HETATM    7  N   UNL     1      -9.750   6.062  67.245  1.00  0.00    -0.120 N  
HETATM    8  O   UNL     1     -10.885   5.603  67.050  1.00  0.00    -0.275 OA 
BRANCH   4   9
HETATM    9  N   UNL     1      -7.265   7.549  67.488  1.00  0.00    -0.088 NA 
HETATM   10  H   UNL     1      -7.587   7.004  68.287  1.00  0.00     0.000 HD 
BRANCH   9  11
HETATM   11  C   UNL     1      -5.844   7.835  67.471  1.00  0.00    -0.037 C  
BRANCH  11  12
HETATM   12  C   UNL     1      -5.484   8.756  68.642  1.00  0.00    -0.037 C  
BRANCH  12  13
HETATM   13  S   UNL     1      -6.903   9.103  69.733  1.00  0.00    -0.054 SA 
BRANCH  13  14
HETATM   14  C   UNL     1      -6.891  10.926  69.682  1.00  0.00    -0.137 C  
BRANCH  14  15
HETATM   15  C   UNL     1      -7.735  11.421  68.572  1.00  0.00    -0.133 A  
HETATM   16  C   UNL     1      -7.554  12.368  67.590  1.00  0.00    -0.141 A  
HETATM   17  C   UNL     1      -8.748  12.379  66.828  1.00  0.00    -0.160 A  
HETATM   18  C   UNL     1      -9.586  11.443  67.396  1.00  0.00    -0.174 A  
HETATM   19  O   UNL     1      -8.975  10.863  68.467  1.00  0.00    -0.144 OA 
BRANCH  18  20
HETATM   20  C   UNL     1     -10.971  10.977  67.092  1.00  0.00    -0.283 C  
BRANCH  20  21
HETATM   21  N   UNL     1     -12.001  12.011  67.318  1.00  0.00    -0.590 NA 
HETATM   22  C   UNL     1     -11.736  12.772  68.543  1.00  0.00    -0.333 C  
HETATM   23  C   UNL     1     -12.031  12.923  66.171  1.00  0.00    -0.429 C  
ENDBRANCH  20  21
ENDBRANCH  18  20
ENDBRANCH  14  15
ENDBRANCH  13  14
ENDBRANCH  12  13
ENDBRANCH  11  12
ENDBRANCH   9  11
ENDBRANCH   4   9
ENDBRANCH   2   4
TORSDOF 9
ENDMDL
MODEL      335
REMARK 921   NORMALIZED FREE ENERGY PREDICTED BY IDOCK:   -2.79 KCAL/MOL
REMARK 922        TOTAL FREE ENERGY PREDICTED BY IDOCK:   -4.64 KCAL/MOL
REMARK 923 INTER-LIGAND FREE ENERGY PREDICTED BY IDOCK:   -4.42 KCAL/MOL
REMARK 924 INTRA-LIGAND FREE ENERGY PREDICTED BY IDOCK:   -0.22 KCAL/MOL
REMARK 927      BINDING AFFINITY PREDICTED BY RF-SCORE:    0.00 PKD
ROOT
HETATM    1  C   UNL     1     -13.186  11.138  71.784  1.00  0.00    -0.381 C  
HETATM    2  N   UNL     1     -11.992  10.477  71.307  1.00  0.00    -0.327 NA 
HETATM    3  H   UNL     1     -11.141  11.038  71.333  1.00  0.00     0.000 HD 
ENDROOT
BRANCH   2   4
HETATM    4  C   UNL     1     -11.840   9.191  70.818  1.00  0.00    -0.227 C  
HETATM    5  C   UNL     1     -11.976   8.145  71.664  1.00  0.00    -0.300 C  
HETATM    6  O   UNL     1     -11.677   6.478  70.071  1.00  0.00    -0.416 OA 
HETATM    7  N   UNL     1     -11.861   6.764  71.261  1.00  0.00    -0.330 N  
HETATM    8  O   UNL     1     -11.968   5.934  72.176  1.00  0.00    -0.274 OA 
BRANCH   4   9
HETATM    9  N   UNL     1     -11.530   9.037  69.481  1.00  0.00    -0.397 NA 
HETATM   10  H   UNL     1     -12.033   8.289  69.002  1.00  0.00     0.000 HD 
BRANCH   9  11
HETATM   11  C   UNL     1     -10.599   9.779  68.654  1.00  0.00    -0.221 C  
BRANCH  11  12
HETATM   12  C   UNL     1      -9.160   9.396  69.019  1.00  0.00    -0.142 C  
BRANCH  12  13
HETATM   13  S   UNL     1      -8.744   7.681  68.556  1.00  0.00    -0.127 SA 
BRANCH  13  14
HETATM   14  C   UNL     1      -9.898   7.450  67.164  1.00  0.00    -0.193 C  
BRANCH  14  15
HETATM   15  C   UNL     1      -9.694   6.127  66.534  1.00  0.00    -0.145 A  
HETATM   16  C   UNL     1     -10.521   5.057  66.278  1.00  0.00    -0.352 A  
HETATM   17  C   UNL     1      -9.715   4.076  65.651  1.00  0.00    -0.192 A  
HETATM   18  C   UNL     1      -8.444   4.604  65.570  1.00  0.00    -0.123 A  
HETATM   19  O   UNL     1      -8.425   5.852  66.118  1.00  0.00    -0.122 OA 
BRANCH  18  20
HETATM   20  C   UNL     1      -7.145   4.092  65.041  1.00  0.00    -0.062 C  
BRANCH  20  21
HETATM   21  N   UNL     1      -6.246   3.576  66.093  1.00  0.00    -0.031 NA 
HETATM   22  C   UNL     1      -5.555   4.667  66.789  1.00  0.00    -0.014 C  
HETATM   23  C   UNL     1      -7.027   2.796  67.057  1.00  0.00    -0.049 C  
ENDBRANCH  20  21
ENDBRANCH  18  20
ENDBRANCH  14  15
ENDBRANCH  13  14
ENDBRANCH  12  13
ENDBRANCH  11  12
ENDBRANCH   9  11
ENDBRANCH   4   9
ENDBRANCH   2   4
TORSDOF 9
ENDMDL
MODEL      336
REMARK 921   NORMALIZED FREE ENERGY PREDICTED BY IDOCK:   -2.77 KCAL/MOL
REMARK 922        TOTAL FREE ENERGY PREDICTED BY IDOCK:   -4.62 KCAL/MOL
REMARK 923 INTER-LIGAND FREE ENERGY PREDICTED BY IDOCK:   -4.83 KCAL/MOL
REMARK 924 INTRA-LIGAND FREE ENERGY PREDICTED BY IDOCK:    0.21 KCAL/MOL
REMARK 927      BINDING AFFINITY PREDICTED BY RF-SCORE:    0.00 PKD
ROOT
HETATM    1  C   UNL     1      -9.708  17.545  68.442  1.00  0.00    -0.316 C  
HETATM    2  N   UNL     1     -10.995  16.907  68.285  1.00  0.00    -0.349 NA 
HETATM    3  H   UNL     1     -11.587  17.290  67.548  1.00  0.00     0.000 HD 
ENDROOT
BRANCH   2   4
HETATM    4  C   UNL     1     -11.538  15.849  68.994  1.00  0.00    -0.389 C  
HETATM    5  C   UNL     1     -11.455  15.849  70.343  1.00  0.00    -0.378 C  
HETATM    6  O   UNL     1     -12.637  13.875  70.680  1.00  0.00    -0.335 OA 
HETATM    7  N   UNL     1     -12.003  14.811  71.183  1.00  0.00    -0.319 N  
HETATM    8  O   UNL     1     -11.794  14.947  72.398  1.00  0.00    -0.339 OA 
BRANCH   4   9
HETATM    9  N   UNL     1     -12.124  14.822  68.280  1.00  0.00    -0.573 NA 
HETATM   10  H   UNL     1     -13.098  14.632  68.513  1.00  0.00     0.000 HD 
BRANCH   9  11
HETATM   11  C   UNL     1     -11.562  13.973  67.248  1.00  0.00    -0.369 C  
BRANCH  11  12
HETATM   12  C   UNL     1     -10.041  14.152  67.197  1.00  0.00    -0.258 C  
BRANCH  12  13
HETATM   13  S   UNL     1      -9.206  13.550  68.703  1.00  0.00     0.062 SA 
BRANCH  13  14
HETATM   14  C   UNL     1      -7.683  12.876  67.961  1.00  0.00    -0.143 C  
BRANCH  14  15
HETATM   15  C   UNL     1      -7.528  11.444  68.303  1.00  0.00    -0.101 A  
HETATM   16  C   UNL     1      -7.019  10.776  69.393  1.00  0.00    -0.116 A  
HETATM   17  C   UNL     1      -7.150   9.396  69.106  1.00  0.00    -0.062 A  
HETATM   18  C   UNL     1      -7.723   9.306  67.856  1.00  0.00    -0.088 A  
HETATM   19  O   UNL     1      -7.945  10.555  67.357  1.00  0.00    -0.109 OA 
BRANCH  18  20
HETATM   20  C   UNL     1      -8.111   8.163  66.977  1.00  0.00    -0.108 C  
BRANCH  20  21
HETATM   21  N   UNL     1      -9.460   7.634  67.262  1.00  0.00    -0.142 NA 
HETATM   22  C   UNL     1      -9.450   6.741  68.425  1.00  0.00    -0.126 C  
HETATM   23  C   UNL     1     -10.374   8.751  67.511  1.00  0.00    -0.268 C  
ENDBRANCH  20  21
ENDBRANCH  18  20
ENDBRANCH  14  15
ENDBRANCH  13  14
ENDBRANCH  12  13
ENDBRANCH  11  12
ENDBRANCH   9  11
ENDBRANCH   4   9
ENDBRANCH   2   4
TORSDOF 9
ENDMDL
MODEL      337
REMARK 921   NORMALIZED FREE ENERGY PREDICTED BY IDOCK:   -2.77 KCAL/MOL
REMARK 922        TOTAL FREE ENERGY PREDICTED BY IDOCK:   -4.62 KCAL/MOL
REMARK 923 INTER-LIGAND FREE ENERGY PREDICTED BY IDOCK:   -4.15 KCAL/MOL
REMARK 924 INTRA-LIGAND FREE ENERGY PREDICTED BY IDOCK:   -0.47 KCAL/MOL
REMARK 927      BINDING AFFINITY PREDICTED BY RF-SCORE:    0.00 PKD
ROOT
HETATM    1  C   UNL     1      -8.483   9.420  63.381  1.00  0.00    -0.202 C  
HETATM    2  N   UNL     1      -8.232   9.093  64.766  1.00  0.00    -0.140 NA 
HETATM    3  H   UNL     1      -7.611   9.733  65.261  1.00  0.00     0.000 HD 
ENDROOT
BRANCH   2   4
HETATM    4  C   UNL     1      -8.714   8.033  65.515  1.00  0.00    -0.102 C  
HETATM    5  C   UNL     1      -8.363   6.773  65.175  1.00  0.00    -0.080 C  
HETATM    6  O   UNL     1      -9.474   5.710  66.919  1.00  0.00    -0.126 OA 
HETATM    7  N   UNL     1      -8.788   5.597  65.895  1.00  0.00    -0.150 N  
HETATM    8  O   UNL     1      -8.411   4.517  65.417  1.00  0.00    -0.112 OA 
BRANCH   4   9
HETATM    9  N   UNL     1      -9.559   8.317  66.571  1.00  0.00    -0.228 NA 
HETATM   10  H   UNL     1     -10.540   8.087  66.414  1.00  0.00     0.000 HD 
BRANCH   9  11
HETATM   11  C   UNL     1      -9.262   8.891  67.867  1.00  0.00    -0.138 C  
BRANCH  11  12
HETATM   12  C   UNL     1      -9.621  10.381  67.872  1.00  0.00    -0.142 C  
BRANCH  12  13
HETATM   13  S   UNL     1     -11.212  10.729  67.049  1.00  0.00     0.043 SA 
BRANCH  13  14
HETATM   14  C   UNL     1     -11.681  12.260  67.921  1.00  0.00    -0.347 C  
BRANCH  14  15
HETATM   15  C   UNL     1     -10.898  13.408  67.413  1.00  0.00    -0.268 A  
HETATM   16  C   UNL     1     -10.460  13.783  66.163  1.00  0.00    -0.297 A  
HETATM   17  C   UNL     1      -9.747  14.993  66.342  1.00  0.00    -0.305 A  
HETATM   18  C   UNL     1      -9.785  15.278  67.690  1.00  0.00    -0.208 A  
HETATM   19  O   UNL     1     -10.478  14.307  68.349  1.00  0.00    -0.235 OA 
BRANCH  18  20
HETATM   20  C   UNL     1      -9.227  16.380  68.529  1.00  0.00    -0.226 C  
BRANCH  20  21
HETATM   21  N   UNL     1      -9.244  17.695  67.859  1.00  0.00    -0.262 NA 
HETATM   22  C   UNL     1     -10.097  18.650  68.574  1.00  0.00    -0.382 C  
HETATM   23  C   UNL     1      -7.877  18.218  67.785  1.00  0.00    -0.240 C  
ENDBRANCH  20  21
ENDBRANCH  18  20
ENDBRANCH  14  15
ENDBRANCH  13  14
ENDBRANCH  12  13
ENDBRANCH  11  12
ENDBRANCH   9  11
ENDBRANCH   4   9
ENDBRANCH   2   4
TORSDOF 9
ENDMDL
MODEL      338
REMARK 921   NORMALIZED FREE ENERGY PREDICTED BY IDOCK:   -2.77 KCAL/MOL
REMARK 922        TOTAL FREE ENERGY PREDICTED BY IDOCK:   -4.61 KCAL/MOL
REMARK 923 INTER-LIGAND FREE ENERGY PREDICTED BY IDOCK:   -4.30 KCAL/MOL
REMARK 924 INTRA-LIGAND FREE ENERGY PREDICTED BY IDOCK:   -0.31 KCAL/MOL
REMARK 927      BINDING AFFINITY PREDICTED BY RF-SCORE:    0.00 PKD
ROOT
HETATM    1  C   UNL     1     -11.833  13.360  69.413  1.00  0.00    -0.335 C  
HETATM    2  N   UNL     1     -12.030  11.941  69.227  1.00  0.00    -0.302 NA 
HETATM    3  H   UNL     1     -12.348  11.661  68.299  1.00  0.00     0.000 HD 
ENDROOT
BRANCH   2   4
HETATM    4  C   UNL     1     -11.850  10.907  70.131  1.00  0.00    -0.353 C  
HETATM    5  C   UNL     1     -12.844  10.609  70.997  1.00  0.00    -0.402 C  
HETATM    6  O   UNL     1     -11.782   8.801  72.002  1.00  0.00    -0.336 OA 
HETATM    7  N   UNL     1     -12.774   9.541  71.965  1.00  0.00    -0.394 N  
HETATM    8  O   UNL     1     -13.759   9.438  72.711  1.00  0.00    -0.364 OA 
BRANCH   4   9
HETATM    9  N   UNL     1     -10.640  10.240  70.120  1.00  0.00    -0.387 NA 
HETATM   10  H   UNL     1     -10.468   9.643  70.928  1.00  0.00     0.000 HD 
BRANCH   9  11
HETATM   11  C   UNL     1      -9.580  10.261  69.133  1.00  0.00    -0.218 C  
BRANCH  11  12
HETATM   12  C   UNL     1      -9.772   9.111  68.137  1.00  0.00    -0.154 C  
BRANCH  12  13
HETATM   13  S   UNL     1      -9.556   9.633  66.402  1.00  0.00    -0.228 SA 
BRANCH  13  14
HETATM   14  C   UNL     1      -7.881   8.982  66.092  1.00  0.00    -0.102 C  
BRANCH  14  15
HETATM   15  C   UNL     1      -7.898   7.504  66.041  1.00  0.00    -0.101 A  
HETATM   16  C   UNL     1      -7.399   6.517  66.860  1.00  0.00    -0.079 A  
HETATM   17  C   UNL     1      -7.744   5.286  66.251  1.00  0.00    -0.088 A  
HETATM   18  C   UNL     1      -8.426   5.597  65.094  1.00  0.00    -0.144 A  
HETATM   19  O   UNL     1      -8.512   6.950  64.957  1.00  0.00    -0.094 OA 
BRANCH  18  20
HETATM   20  C   UNL     1      -9.040   4.779  64.007  1.00  0.00    -0.045 C  
BRANCH  20  21
HETATM   21  N   UNL     1      -8.053   4.233  63.054  1.00  0.00    -0.079 NA 
HETATM   22  C   UNL     1      -6.968   5.187  62.802  1.00  0.00    -0.033 C  
HETATM   23  C   UNL     1      -7.497   2.989  63.592  1.00  0.00    -0.062 C  
ENDBRANCH  20  21
ENDBRANCH  18  20
ENDBRANCH  14  15
ENDBRANCH  13  14
ENDBRANCH  12  13
ENDBRANCH  11  12
ENDBRANCH   9  11
ENDBRANCH   4   9
ENDBRANCH   2   4
TORSDOF 9
ENDMDL
MODEL      339
REMARK 921   NORMALIZED FREE ENERGY PREDICTED BY IDOCK:   -2.76 KCAL/MOL
REMARK 922        TOTAL FREE ENERGY PREDICTED BY IDOCK:   -4.60 KCAL/MOL
REMARK 923 INTER-LIGAND FREE ENERGY PREDICTED BY IDOCK:   -4.43 KCAL/MOL
REMARK 924 INTRA-LIGAND FREE ENERGY PREDICTED BY IDOCK:   -0.17 KCAL/MOL
REMARK 927      BINDING AFFINITY PREDICTED BY RF-SCORE:    0.00 PKD
ROOT
HETATM    1  C   UNL     1      -6.140  19.042  70.147  1.00  0.00    -0.157 C  
HETATM    2  N   UNL     1      -5.543  17.927  69.448  1.00  0.00    -0.199 NA 
HETATM    3  H   UNL     1      -4.524  17.891  69.471  1.00  0.00     0.000 HD 
ENDROOT
BRANCH   2   4
HETATM    4  C   UNL     1      -6.158  16.902  68.750  1.00  0.00    -0.153 C  
HETATM    5  C   UNL     1      -5.446  15.795  68.442  1.00  0.00    -0.108 C  
HETATM    6  O   UNL     1      -7.188  14.637  67.425  1.00  0.00    -0.191 OA 
HETATM    7  N   UNL     1      -5.990  14.658  67.739  1.00  0.00    -0.135 N  
HETATM    8  O   UNL     1      -5.183  13.748  67.499  1.00  0.00    -0.324 OA 
BRANCH   4   9
HETATM    9  N   UNL     1      -7.477  17.072  68.377  1.00  0.00    -0.203 NA 
HETATM   10  H   UNL     1      -7.620  17.622  67.530  1.00  0.00     0.000 HD 
BRANCH   9  11
HETATM   11  C   UNL     1      -8.689  16.588  69.007  1.00  0.00    -0.215 C  
BRANCH  11  12
HETATM   12  C   UNL     1      -9.915  17.133  68.266  1.00  0.00    -0.300 C  
BRANCH  12  13
HETATM   13  S   UNL     1      -9.724  17.092  66.452  1.00  0.00    -0.289 SA 
BRANCH  13  14
HETATM   14  C   UNL     1     -10.989  15.846  66.038  1.00  0.00    -0.139 C  
BRANCH  14  15
HETATM   15  C   UNL     1     -11.182  14.906  67.165  1.00  0.00    -0.343 A  
HETATM   16  C   UNL     1     -12.136  14.784  68.148  1.00  0.00    -0.167 A  
HETATM   17  C   UNL     1     -11.749  13.673  68.937  1.00  0.00    -0.377 A  
HETATM   18  C   UNL     1     -10.578  13.192  68.392  1.00  0.00    -0.251 A  
HETATM   19  O   UNL     1     -10.223  13.949  67.316  1.00  0.00    -0.246 OA 
BRANCH  18  20
HETATM   20  C   UNL     1      -9.660  12.069  68.745  1.00  0.00     0.016 C  
BRANCH  20  21
HETATM   21  N   UNL     1     -10.310  10.744  68.708  1.00  0.00    -0.182 NA 
HETATM   22  C   UNL     1     -10.782  10.417  67.359  1.00  0.00    -0.283 C  
HETATM   23  C   UNL     1      -9.358   9.725  69.156  1.00  0.00    -0.182 C  
ENDBRANCH  20  21
ENDBRANCH  18  20
ENDBRANCH  14  15
ENDBRANCH  13  14
ENDBRANCH  12  13
ENDBRANCH  11  12
ENDBRANCH   9  11
ENDBRANCH   4   9
ENDBRANCH   2   4
TORSDOF 9
ENDMDL
MODEL      340
REMARK 921   NORMALIZED FREE ENERGY PREDICTED BY IDOCK:   -2.75 KCAL/MOL
REMARK 922        TOTAL FREE ENERGY PREDICTED BY IDOCK:   -4.59 KCAL/MOL
REMARK 923 INTER-LIGAND FREE ENERGY PREDICTED BY IDOCK:   -4.24 KCAL/MOL
REMARK 924 INTRA-LIGAND FREE ENERGY PREDICTED BY IDOCK:   -0.35 KCAL/MOL
REMARK 927      BINDING AFFINITY PREDICTED BY RF-SCORE:    0.00 PKD
ROOT
HETATM    1  C   UNL     1     -11.796  12.115  63.464  1.00  0.00    -0.505 C  
HETATM    2  N   UNL     1     -10.871  11.184  64.067  1.00  0.00    -0.461 NA 
HETATM    3  H   UNL     1     -10.614  10.384  63.489  1.00  0.00     0.000 HD 
ENDROOT
BRANCH   2   4
HETATM    4  C   UNL     1     -10.284  11.223  65.321  1.00  0.00    -0.274 C  
HETATM    5  C   UNL     1     -11.073  11.219  66.418  1.00  0.00    -0.193 C  
HETATM    6  O   UNL     1      -9.351  11.203  67.981  1.00  0.00    -0.156 OA 
HETATM    7  N   UNL     1     -10.571  11.236  67.771  1.00  0.00    -0.192 N  
HETATM    8  O   UNL     1     -11.437  11.277  68.657  1.00  0.00    -0.243 OA 
BRANCH   4   9
HETATM    9  N   UNL     1      -8.906  11.290  65.389  1.00  0.00    -0.368 NA 
HETATM   10  H   UNL     1      -8.521  12.233  65.454  1.00  0.00     0.000 HD 
BRANCH   9  11
HETATM   11  C   UNL     1      -7.924  10.224  65.384  1.00  0.00    -0.148 C  
BRANCH  11  12
HETATM   12  C   UNL     1      -8.488   9.001  64.653  1.00  0.00    -0.177 C  
BRANCH  12  13
HETATM   13  S   UNL     1      -8.331   7.462  65.621  1.00  0.00    -0.131 SA 
BRANCH  13  14
HETATM   14  C   UNL     1      -8.573   8.130  67.300  1.00  0.00    -0.124 C  
BRANCH  14  15
HETATM   15  C   UNL     1      -8.854   7.039  68.259  1.00  0.00    -0.126 A  
HETATM   16  C   UNL     1      -9.384   5.775  68.133  1.00  0.00    -0.114 A  
HETATM   17  C   UNL     1      -9.399   5.222  69.436  1.00  0.00    -0.172 A  
HETATM   18  C   UNL     1      -8.885   6.184  70.278  1.00  0.00    -0.149 A  
HETATM   19  O   UNL     1      -8.561   7.299  69.565  1.00  0.00    -0.133 OA 
BRANCH  18  20
HETATM   20  C   UNL     1      -8.643   6.246  71.750  1.00  0.00    -0.133 C  
BRANCH  20  21
HETATM   21  N   UNL     1      -8.323   7.603  72.236  1.00  0.00    -0.103 NA 
HETATM   22  C   UNL     1      -9.326   8.079  73.194  1.00  0.00    -0.277 C  
HETATM   23  C   UNL     1      -7.004   7.589  72.874  1.00  0.00    -0.068 C  
ENDBRANCH  20  21
ENDBRANCH  18  20
ENDBRANCH  14  15
ENDBRANCH  13  14
ENDBRANCH  12  13
ENDBRANCH  11  12
ENDBRANCH   9  11
ENDBRANCH   4   9
ENDBRANCH   2   4
TORSDOF 9
ENDMDL
MODEL      341
REMARK 921   NORMALIZED FREE ENERGY PREDICTED BY IDOCK:   -2.75 KCAL/MOL
REMARK 922        TOTAL FREE ENERGY PREDICTED BY IDOCK:   -4.59 KCAL/MOL
REMARK 923 INTER-LIGAND FREE ENERGY PREDICTED BY IDOCK:   -3.92 KCAL/MOL
REMARK 924 INTRA-LIGAND FREE ENERGY PREDICTED BY IDOCK:   -0.66 KCAL/MOL
REMARK 927      BINDING AFFINITY PREDICTED BY RF-SCORE:    0.00 PKD
ROOT
HETATM    1  C   UNL     1     -10.855   7.008  66.828  1.00  0.00    -0.158 C  
HETATM    2  N   UNL     1     -11.104   5.615  66.536  1.00  0.00    -0.707 NA 
HETATM    3  H   UNL     1     -12.081   5.326  66.577  1.00  0.00     0.000 HD 
ENDROOT
BRANCH   2   4
HETATM    4  C   UNL     1     -10.203   4.616  66.208  1.00  0.00    -0.275 C  
HETATM    5  C   UNL     1     -10.264   4.050  64.982  1.00  0.00    -0.181 C  
HETATM    6  O   UNL     1      -8.437   2.637  65.253  1.00  0.00    -0.092 OA 
HETATM    7  N   UNL     1      -9.364   3.019  64.526  1.00  0.00    -0.140 N  
HETATM    8  O   UNL     1      -9.593   2.580  63.389  1.00  0.00    -0.096 OA 
BRANCH   4   9
HETATM    9  N   UNL     1      -9.291   4.225  67.170  1.00  0.00    -0.154 NA 
HETATM   10  H   UNL     1      -8.472   3.731  66.814  1.00  0.00     0.000 HD 
BRANCH   9  11
HETATM   11  C   UNL     1      -9.322   4.410  68.606  1.00  0.00    -0.147 C  
BRANCH  11  12
HETATM   12  C   UNL     1      -8.321   5.496  69.014  1.00  0.00    -0.102 C  
BRANCH  12  13
HETATM   13  S   UNL     1      -7.236   6.011  67.640  1.00  0.00    -0.077 SA 
BRANCH  13  14
HETATM   14  C   UNL     1      -6.710   7.643  68.260  1.00  0.00    -0.062 C  
BRANCH  14  15
HETATM   15  C   UNL     1      -7.498   8.721  67.622  1.00  0.00    -0.093 A  
HETATM   16  C   UNL     1      -7.660   9.137  66.320  1.00  0.00    -0.092 A  
HETATM   17  C   UNL     1      -8.549  10.238  66.366  1.00  0.00    -0.138 A  
HETATM   18  C   UNL     1      -8.868  10.432  67.693  1.00  0.00    -0.124 A  
HETATM   19  O   UNL     1      -8.219   9.514  68.464  1.00  0.00    -0.110 OA 
BRANCH  18  20
HETATM   20  C   UNL     1      -9.729  11.415  68.416  1.00  0.00    -0.203 C  
BRANCH  20  21
HETATM   21  N   UNL     1     -11.164  11.285  68.096  1.00  0.00    -0.261 NA 
HETATM   22  C   UNL     1     -11.967  11.084  69.307  1.00  0.00    -0.339 C  
HETATM   23  C   UNL     1     -11.617  12.494  67.403  1.00  0.00    -0.370 C  
ENDBRANCH  20  21
ENDBRANCH  18  20
ENDBRANCH  14  15
ENDBRANCH  13  14
ENDBRANCH  12  13
ENDBRANCH  11  12
ENDBRANCH   9  11
ENDBRANCH   4   9
ENDBRANCH   2   4
TORSDOF 9
ENDMDL
MODEL      342
REMARK 921   NORMALIZED FREE ENERGY PREDICTED BY IDOCK:   -2.74 KCAL/MOL
REMARK 922        TOTAL FREE ENERGY PREDICTED BY IDOCK:   -4.57 KCAL/MOL
REMARK 923 INTER-LIGAND FREE ENERGY PREDICTED BY IDOCK:   -3.79 KCAL/MOL
REMARK 924 INTRA-LIGAND FREE ENERGY PREDICTED BY IDOCK:   -0.78 KCAL/MOL
REMARK 927      BINDING AFFINITY PREDICTED BY RF-SCORE:    0.00 PKD
ROOT
HETATM    1  C   UNL     1      -8.002  10.202  69.617  1.00  0.00    -0.173 C  
HETATM    2  N   UNL     1      -7.699  11.088  68.516  1.00  0.00    -0.114 NA 
HETATM    3  H   UNL     1      -6.799  11.564  68.571  1.00  0.00     0.000 HD 
ENDROOT
BRANCH   2   4
HETATM    4  C   UNL     1      -8.460  11.383  67.397  1.00  0.00    -0.143 C  
HETATM    5  C   UNL     1      -9.799  11.516  67.527  1.00  0.00    -0.190 C  
HETATM    6  O   UNL     1     -10.224  12.070  65.309  1.00  0.00    -0.257 OA 
HETATM    7  N   UNL     1     -10.684  11.843  66.436  1.00  0.00    -0.256 N  
HETATM    8  O   UNL     1     -11.890  11.880  66.724  1.00  0.00    -0.598 OA 
BRANCH   4   9
HETATM    9  N   UNL     1      -7.809  11.503  66.184  1.00  0.00    -0.378 NA 
HETATM   10  H   UNL     1      -7.953  12.389  65.701  1.00  0.00     0.000 HD 
BRANCH   9  11
HETATM   11  C   UNL     1      -6.952  10.559  65.495  1.00  0.00    -0.100 C  
BRANCH  11  12
HETATM   12  C   UNL     1      -7.667   9.211  65.356  1.00  0.00    -0.098 C  
BRANCH  12  13
HETATM   13  S   UNL     1      -6.511   7.810  65.181  1.00  0.00    -0.041 SA 
BRANCH  13  14
HETATM   14  C   UNL     1      -7.158   7.068  63.647  1.00  0.00    -0.061 C  
BRANCH  14  15
HETATM   15  C   UNL     1      -7.934   5.844  63.948  1.00  0.00    -0.119 A  
HETATM   16  C   UNL     1      -8.094   4.637  63.306  1.00  0.00    -0.095 A  
HETATM   17  C   UNL     1      -8.982   3.879  64.108  1.00  0.00    -0.129 A  
HETATM   18  C   UNL     1      -9.316   4.673  65.185  1.00  0.00    -0.150 A  
HETATM   19  O   UNL     1      -8.687   5.878  65.085  1.00  0.00    -0.129 OA 
BRANCH  18  20
HETATM   20  C   UNL     1     -10.204   4.485  66.370  1.00  0.00    -0.217 C  
BRANCH  20  21
HETATM   21  N   UNL     1      -9.588   4.920  67.639  1.00  0.00    -0.144 NA 
HETATM   22  C   UNL     1     -10.452   5.863  68.358  1.00  0.00    -0.237 C  
HETATM   23  C   UNL     1      -9.336   3.747  68.481  1.00  0.00    -0.166 C  
ENDBRANCH  20  21
ENDBRANCH  18  20
ENDBRANCH  14  15
ENDBRANCH  13  14
ENDBRANCH  12  13
ENDBRANCH  11  12
ENDBRANCH   9  11
ENDBRANCH   4   9
ENDBRANCH   2   4
TORSDOF 9
ENDMDL
MODEL      343
REMARK 921   NORMALIZED FREE ENERGY PREDICTED BY IDOCK:   -2.72 KCAL/MOL
REMARK 922        TOTAL FREE ENERGY PREDICTED BY IDOCK:   -4.54 KCAL/MOL
REMARK 923 INTER-LIGAND FREE ENERGY PREDICTED BY IDOCK:   -3.77 KCAL/MOL
REMARK 924 INTRA-LIGAND FREE ENERGY PREDICTED BY IDOCK:   -0.77 KCAL/MOL
REMARK 927      BINDING AFFINITY PREDICTED BY RF-SCORE:    0.00 PKD
ROOT
HETATM    1  C   UNL     1     -12.201   6.737  71.572  1.00  0.00    -0.366 C  
HETATM    2  N   UNL     1     -11.002   6.767  70.766  1.00  0.00    -0.248 NA 
HETATM    3  H   UNL     1     -10.173   7.140  71.229  1.00  0.00     0.000 HD 
ENDROOT
BRANCH   2   4
HETATM    4  C   UNL     1     -10.819   6.361  69.455  1.00  0.00    -0.321 C  
HETATM    5  C   UNL     1     -10.307   5.134  69.211  1.00  0.00    -0.178 C  
HETATM    6  O   UNL     1     -10.434   5.253  66.892  1.00  0.00    -0.245 OA 
HETATM    7  N   UNL     1     -10.095   4.600  67.888  1.00  0.00    -0.073 N  
HETATM    8  O   UNL     1      -9.573   3.475  67.847  1.00  0.00    -0.190 OA 
BRANCH   4   9
HETATM    9  N   UNL     1     -11.149   7.249  68.450  1.00  0.00    -0.453 NA 
HETATM   10  H   UNL     1     -12.130   7.240  68.169  1.00  0.00     0.000 HD 
BRANCH   9  11
HETATM   11  C   UNL     1     -10.313   8.191  67.734  1.00  0.00    -0.233 C  
BRANCH  11  12
HETATM   12  C   UNL     1     -10.752   9.624  68.053  1.00  0.00    -0.232 C  
BRANCH  12  13
HETATM   13  S   UNL     1     -10.299  10.144  69.742  1.00  0.00    -0.251 SA 
BRANCH  13  14
HETATM   14  C   UNL     1      -8.513  10.425  69.508  1.00  0.00    -0.100 C  
BRANCH  14  15
HETATM   15  C   UNL     1      -7.726   9.532  70.388  1.00  0.00    -0.163 A  
HETATM   16  C   UNL     1      -6.442   9.574  70.882  1.00  0.00    -0.094 A  
HETATM   17  C   UNL     1      -6.285   8.408  71.670  1.00  0.00    -0.052 A  
HETATM   18  C   UNL     1      -7.479   7.722  71.602  1.00  0.00    -0.075 A  
HETATM   19  O   UNL     1      -8.358   8.401  70.811  1.00  0.00    -0.113 OA 
BRANCH  18  20
HETATM   20  C   UNL     1      -7.966   6.436  72.181  1.00  0.00    -0.107 C  
BRANCH  20  21
HETATM   21  N   UNL     1      -7.781   6.343  73.643  1.00  0.00    -0.093 NA 
HETATM   22  C   UNL     1      -8.852   5.563  74.271  1.00  0.00    -0.118 C  
HETATM   23  C   UNL     1      -6.487   5.718  73.928  1.00  0.00    -0.070 C  
ENDBRANCH  20  21
ENDBRANCH  18  20
ENDBRANCH  14  15
ENDBRANCH  13  14
ENDBRANCH  12  13
ENDBRANCH  11  12
ENDBRANCH   9  11
ENDBRANCH   4   9
ENDBRANCH   2   4
TORSDOF 9
ENDMDL
MODEL      344
REMARK 921   NORMALIZED FREE ENERGY PREDICTED BY IDOCK:   -2.67 KCAL/MOL
REMARK 922        TOTAL FREE ENERGY PREDICTED BY IDOCK:   -4.46 KCAL/MOL
REMARK 923 INTER-LIGAND FREE ENERGY PREDICTED BY IDOCK:   -4.28 KCAL/MOL
REMARK 924 INTRA-LIGAND FREE ENERGY PREDICTED BY IDOCK:   -0.18 KCAL/MOL
REMARK 927      BINDING AFFINITY PREDICTED BY RF-SCORE:    0.00 PKD
ROOT
HETATM    1  C   UNL     1     -10.925   6.726  67.515  1.00  0.00    -0.303 C  
HETATM    2  N   UNL     1      -9.913   5.804  67.050  1.00  0.00    -0.149 NA 
HETATM    3  H   UNL     1      -9.316   5.407  67.775  1.00  0.00     0.000 HD 
ENDROOT
BRANCH   2   4
HETATM    4  C   UNL     1      -9.640   5.386  65.759  1.00  0.00    -0.050 C  
HETATM    5  C   UNL     1     -10.029   4.151  65.371  1.00  0.00    -0.205 C  
HETATM    6  O   UNL     1      -9.294   4.323  63.171  1.00  0.00    -0.139 OA 
HETATM    7  N   UNL     1      -9.817   3.620  64.046  1.00  0.00    -0.165 N  
HETATM    8  O   UNL     1     -10.197   2.452  63.876  1.00  0.00    -0.141 OA 
BRANCH   4   9
HETATM    9  N   UNL     1      -8.952   6.250  64.929  1.00  0.00    -0.326 NA 
HETATM   10  H   UNL     1      -9.075   6.082  63.931  1.00  0.00     0.000 HD 
BRANCH   9  11
HETATM   11  C   UNL     1      -8.082   7.360  65.263  1.00  0.00    -0.131 C  
BRANCH  11  12
HETATM   12  C   UNL     1      -8.206   8.457  64.200  1.00  0.00    -0.119 C  
BRANCH  12  13
HETATM   13  S   UNL     1      -7.792  10.115  64.840  1.00  0.00    -0.137 SA 
BRANCH  13  14
HETATM   14  C   UNL     1      -9.464  10.707  65.262  1.00  0.00    -0.221 C  
BRANCH  14  15
HETATM   15  C   UNL     1      -9.394  11.784  66.275  1.00  0.00    -0.225 A  
HETATM   16  C   UNL     1      -8.972  11.833  67.584  1.00  0.00    -0.169 A  
HETATM   17  C   UNL     1      -9.168  13.169  68.011  1.00  0.00    -0.211 A  
HETATM   18  C   UNL     1      -9.705  13.851  66.941  1.00  0.00    -0.268 A  
HETATM   19  O   UNL     1      -9.855  13.006  65.882  1.00  0.00    -0.275 OA 
BRANCH  18  20
HETATM   20  C   UNL     1     -10.150  15.260  66.732  1.00  0.00    -0.258 C  
BRANCH  20  21
HETATM   21  N   UNL     1      -9.867  16.141  67.882  1.00  0.00    -0.233 NA 
HETATM   22  C   UNL     1      -8.432  16.420  68.003  1.00  0.00    -0.183 C  
HETATM   23  C   UNL     1     -10.598  17.400  67.719  1.00  0.00    -0.371 C  
ENDBRANCH  20  21
ENDBRANCH  18  20
ENDBRANCH  14  15
ENDBRANCH  13  14
ENDBRANCH  12  13
ENDBRANCH  11  12
ENDBRANCH   9  11
ENDBRANCH   4   9
ENDBRANCH   2   4
TORSDOF 9
ENDMDL
MODEL      345
REMARK 921   NORMALIZED FREE ENERGY PREDICTED BY IDOCK:   -2.66 KCAL/MOL
REMARK 922        TOTAL FREE ENERGY PREDICTED BY IDOCK:   -4.45 KCAL/MOL
REMARK 923 INTER-LIGAND FREE ENERGY PREDICTED BY IDOCK:   -3.86 KCAL/MOL
REMARK 924 INTRA-LIGAND FREE ENERGY PREDICTED BY IDOCK:   -0.59 KCAL/MOL
REMARK 927      BINDING AFFINITY PREDICTED BY RF-SCORE:    0.00 PKD
ROOT
HETATM    1  C   UNL     1     -10.170  18.162  67.292  1.00  0.00    -0.367 C  
HETATM    2  N   UNL     1     -10.369  16.730  67.318  1.00  0.00    -0.300 NA 
HETATM    3  H   UNL     1     -10.291  16.261  66.417  1.00  0.00     0.000 HD 
ENDROOT
BRANCH   2   4
HETATM    4  C   UNL     1     -10.652  15.907  68.395  1.00  0.00    -0.266 C  
HETATM    5  C   UNL     1     -11.840  16.034  69.027  1.00  0.00    -0.252 C  
HETATM    6  O   UNL     1     -11.517  14.301  70.544  1.00  0.00    -0.214 OA 
HETATM    7  N   UNL     1     -12.249  15.216  70.143  1.00  0.00    -0.337 N  
HETATM    8  O   UNL     1     -13.353  15.499  70.632  1.00  0.00    -0.432 OA 
BRANCH   4   9
HETATM    9  N   UNL     1      -9.685  15.002  68.791  1.00  0.00    -0.220 NA 
HETATM   10  H   UNL     1      -9.252  15.199  69.693  1.00  0.00     0.000 HD 
BRANCH   9  11
HETATM   11  C   UNL     1      -9.194  13.817  68.118  1.00  0.00    -0.199 C  
BRANCH  11  12
HETATM   12  C   UNL     1      -7.816  14.097  67.508  1.00  0.00    -0.192 C  
BRANCH  12  13
HETATM   13  S   UNL     1      -6.443  13.545  68.576  1.00  0.00    -0.101 SA 
BRANCH  13  14
HETATM   14  C   UNL     1      -5.710  12.270  67.499  1.00  0.00    -0.128 C  
BRANCH  14  15
HETATM   15  C   UNL     1      -6.695  11.203  67.211  1.00  0.00    -0.091 A  
HETATM   16  C   UNL     1      -7.373  10.298  67.995  1.00  0.00    -0.086 A  
HETATM   17  C   UNL     1      -8.173   9.533  67.112  1.00  0.00    -0.113 A  
HETATM   18  C   UNL     1      -7.928  10.013  65.843  1.00  0.00    -0.124 A  
HETATM   19  O   UNL     1      -7.018  11.025  65.898  1.00  0.00    -0.077 OA 
BRANCH  18  20
HETATM   20  C   UNL     1      -8.427   9.644  64.485  1.00  0.00    -0.178 C  
BRANCH  20  21
HETATM   21  N   UNL     1      -8.079   8.265  64.086  1.00  0.00    -0.152 NA 
HETATM   22  C   UNL     1      -8.499   7.984  62.710  1.00  0.00     0.032 C  
HETATM   23  C   UNL     1      -6.630   8.079  64.205  1.00  0.00    -0.065 C  
ENDBRANCH  20  21
ENDBRANCH  18  20
ENDBRANCH  14  15
ENDBRANCH  13  14
ENDBRANCH  12  13
ENDBRANCH  11  12
ENDBRANCH   9  11
ENDBRANCH   4   9
ENDBRANCH   2   4
TORSDOF 9
ENDMDL
MODEL      346
REMARK 921   NORMALIZED FREE ENERGY PREDICTED BY IDOCK:   -2.66 KCAL/MOL
REMARK 922        TOTAL FREE ENERGY PREDICTED BY IDOCK:   -4.44 KCAL/MOL
REMARK 923 INTER-LIGAND FREE ENERGY PREDICTED BY IDOCK:   -4.10 KCAL/MOL
REMARK 924 INTRA-LIGAND FREE ENERGY PREDICTED BY IDOCK:   -0.34 KCAL/MOL
REMARK 927      BINDING AFFINITY PREDICTED BY RF-SCORE:    0.00 PKD
ROOT
HETATM    1  C   UNL     1     -10.471  12.386  63.558  1.00  0.00    -0.393 C  
HETATM    2  N   UNL     1      -9.904  11.859  64.779  1.00  0.00    -0.369 NA 
HETATM    3  H   UNL     1      -9.828  10.844  64.824  1.00  0.00     0.000 HD 
ENDROOT
BRANCH   2   4
HETATM    4  C   UNL     1      -9.450  12.540  65.896  1.00  0.00    -0.107 C  
HETATM    5  C   UNL     1     -10.305  13.339  66.573  1.00  0.00    -0.285 C  
HETATM    6  O   UNL     1      -8.815  13.959  68.247  1.00  0.00    -0.177 OA 
HETATM    7  N   UNL     1      -9.947  14.076  67.761  1.00  0.00    -0.232 N  
HETATM    8  O   UNL     1     -10.842  14.797  68.226  1.00  0.00    -0.239 OA 
BRANCH   4   9
HETATM    9  N   UNL     1      -8.125  12.386  66.255  1.00  0.00    -0.225 NA 
HETATM   10  H   UNL     1      -7.549  13.222  66.154  1.00  0.00     0.000 HD 
BRANCH   9  11
HETATM   11  C   UNL     1      -7.428  11.217  66.752  1.00  0.00    -0.146 C  
BRANCH  11  12
HETATM   12  C   UNL     1      -8.442  10.154  67.190  1.00  0.00    -0.125 C  
BRANCH  12  13
HETATM   13  S   UNL     1      -7.915   9.245  68.682  1.00  0.00    -0.101 SA 
BRANCH  13  14
HETATM   14  C   UNL     1      -9.520   9.097  69.533  1.00  0.00    -0.168 C  
BRANCH  14  15
HETATM   15  C   UNL     1      -9.806   7.683  69.863  1.00  0.00    -0.184 A  
HETATM   16  C   UNL     1     -10.547   6.695  69.255  1.00  0.00    -0.276 A  
HETATM   17  C   UNL     1     -10.428   5.550  70.078  1.00  0.00    -0.373 A  
HETATM   18  C   UNL     1      -9.629   5.910  71.142  1.00  0.00    -0.169 A  
HETATM   19  O   UNL     1      -9.256   7.216  71.020  1.00  0.00    -0.157 OA 
BRANCH  18  20
HETATM   20  C   UNL     1      -9.133   5.190  72.352  1.00  0.00    -0.134 C  
BRANCH  20  21
HETATM   21  N   UNL     1      -7.724   5.487  72.676  1.00  0.00    -0.098 NA 
HETATM   22  C   UNL     1      -7.568   5.886  74.078  1.00  0.00    -0.092 C  
HETATM   23  C   UNL     1      -6.906   4.300  72.410  1.00  0.00    -0.054 C  
ENDBRANCH  20  21
ENDBRANCH  18  20
ENDBRANCH  14  15
ENDBRANCH  13  14
ENDBRANCH  12  13
ENDBRANCH  11  12
ENDBRANCH   9  11
ENDBRANCH   4   9
ENDBRANCH   2   4
TORSDOF 9
ENDMDL
MODEL      347
REMARK 921   NORMALIZED FREE ENERGY PREDICTED BY IDOCK:   -2.66 KCAL/MOL
REMARK 922        TOTAL FREE ENERGY PREDICTED BY IDOCK:   -4.44 KCAL/MOL
REMARK 923 INTER-LIGAND FREE ENERGY PREDICTED BY IDOCK:   -4.05 KCAL/MOL
REMARK 924 INTRA-LIGAND FREE ENERGY PREDICTED BY IDOCK:   -0.39 KCAL/MOL
REMARK 927      BINDING AFFINITY PREDICTED BY RF-SCORE:    0.00 PKD
ROOT
HETATM    1  C   UNL     1      -7.815  14.317  68.609  1.00  0.00    -0.140 C  
HETATM    2  N   UNL     1      -9.208  14.137  68.268  1.00  0.00    -0.194 NA 
HETATM    3  H   UNL     1      -9.838  14.005  69.059  1.00  0.00     0.000 HD 
ENDROOT
BRANCH   2   4
HETATM    4  C   UNL     1      -9.806  14.119  67.020  1.00  0.00    -0.258 C  
HETATM    5  C   UNL     1     -10.104  15.290  66.415  1.00  0.00    -0.274 C  
HETATM    6  O   UNL     1     -10.937  14.367  64.450  1.00  0.00    -0.312 OA 
HETATM    7  N   UNL     1     -10.708  15.390  65.108  1.00  0.00    -0.414 N  
HETATM    8  O   UNL     1     -10.954  16.543  64.725  1.00  0.00    -0.688 OA 
BRANCH   4   9
HETATM    9  N   UNL     1     -10.097  12.890  66.459  1.00  0.00    -0.255 NA 
HETATM   10  H   UNL     1      -9.688  12.727  65.538  1.00  0.00     0.000 HD 
BRANCH   9  11
HETATM   11  C   UNL     1     -10.893  11.798  66.980  1.00  0.00    -0.263 C  
BRANCH  11  12
HETATM   12  C   UNL     1     -10.343  10.461  66.469  1.00  0.00    -0.224 C  
BRANCH  12  13
HETATM   13  S   UNL     1      -9.801   9.357  67.816  1.00  0.00    -0.179 SA 
BRANCH  13  14
HETATM   14  C   UNL     1     -10.642   7.820  67.310  1.00  0.00    -0.306 C  
BRANCH  14  15
HETATM   15  C   UNL     1      -9.658   6.822  66.834  1.00  0.00    -0.160 A  
HETATM   16  C   UNL     1      -9.294   6.364  65.588  1.00  0.00     0.182 A  
HETATM   17  C   UNL     1      -8.289   5.391  65.804  1.00  0.00    -0.126 A  
HETATM   18  C   UNL     1      -8.106   5.308  67.167  1.00  0.00    -0.101 A  
HETATM   19  O   UNL     1      -8.949   6.173  67.800  1.00  0.00    -0.117 OA 
BRANCH  18  20
HETATM   20  C   UNL     1      -7.223   4.483  68.043  1.00  0.00    -0.065 C  
BRANCH  20  21
HETATM   21  N   UNL     1      -7.816   3.184  68.418  1.00  0.00    -0.058 NA 
HETATM   22  C   UNL     1      -7.458   2.135  67.459  1.00  0.00    -0.056 C  
HETATM   23  C   UNL     1      -7.348   2.807  69.754  1.00  0.00    -0.044 C  
ENDBRANCH  20  21
ENDBRANCH  18  20
ENDBRANCH  14  15
ENDBRANCH  13  14
ENDBRANCH  12  13
ENDBRANCH  11  12
ENDBRANCH   9  11
ENDBRANCH   4   9
ENDBRANCH   2   4
TORSDOF 9
ENDMDL
MODEL      348
REMARK 921   NORMALIZED FREE ENERGY PREDICTED BY IDOCK:   -2.64 KCAL/MOL
REMARK 922        TOTAL FREE ENERGY PREDICTED BY IDOCK:   -4.42 KCAL/MOL
REMARK 923 INTER-LIGAND FREE ENERGY PREDICTED BY IDOCK:   -3.54 KCAL/MOL
REMARK 924 INTRA-LIGAND FREE ENERGY PREDICTED BY IDOCK:   -0.87 KCAL/MOL
REMARK 927      BINDING AFFINITY PREDICTED BY RF-SCORE:    0.00 PKD
ROOT
HETATM    1  C   UNL     1      -6.934  10.749  69.775  1.00  0.00    -0.141 C  
HETATM    2  N   UNL     1      -6.724  11.428  68.517  1.00  0.00    -0.064 NA 
HETATM    3  H   UNL     1      -5.770  11.743  68.343  1.00  0.00     0.000 HD 
ENDROOT
BRANCH   2   4
HETATM    4  C   UNL     1      -7.636  11.712  67.514  1.00  0.00    -0.128 C  
HETATM    5  C   UNL     1      -8.894  12.074  67.852  1.00  0.00    -0.174 C  
HETATM    6  O   UNL     1      -9.655  12.431  65.683  1.00  0.00    -0.211 OA 
HETATM    7  N   UNL     1      -9.918  12.413  66.893  1.00  0.00    -0.212 N  
HETATM    8  O   UNL     1     -11.029  12.677  67.376  1.00  0.00    -0.240 OA 
BRANCH   4   9
HETATM    9  N   UNL     1      -7.219  11.585  66.203  1.00  0.00    -0.366 NA 
HETATM   10  H   UNL     1      -7.633  12.250  65.551  1.00  0.00     0.000 HD 
BRANCH   9  11
HETATM   11  C   UNL     1      -6.281  10.649  65.616  1.00  0.00    -0.115 C  
BRANCH  11  12
HETATM   12  C   UNL     1      -6.797   9.217  65.789  1.00  0.00    -0.077 C  
BRANCH  12  13
HETATM   13  S   UNL     1      -8.292   8.877  64.800  1.00  0.00    -0.175 SA 
BRANCH  13  14
HETATM   14  C   UNL     1      -9.537   8.830  66.131  1.00  0.00    -0.253 C  
BRANCH  14  15
HETATM   15  C   UNL     1      -9.831   7.432  66.519  1.00  0.00    -0.139 A  
HETATM   16  C   UNL     1     -10.821   6.843  67.272  1.00  0.00    -0.426 A  
HETATM   17  C   UNL     1     -10.540   5.455  67.275  1.00  0.00    -0.250 A  
HETATM   18  C   UNL     1      -9.393   5.284  66.530  1.00  0.00    -0.143 A  
HETATM   19  O   UNL     1      -8.951   6.490  66.076  1.00  0.00    -0.157 OA 
BRANCH  18  20
HETATM   20  C   UNL     1      -8.570   4.094  66.159  1.00  0.00    -0.113 C  
BRANCH  20  21
HETATM   21  N   UNL     1      -7.188   4.152  66.675  1.00  0.00    -0.071 NA 
HETATM   22  C   UNL     1      -7.167   4.230  68.140  1.00  0.00    -0.060 C  
HETATM   23  C   UNL     1      -6.458   2.959  66.238  1.00  0.00    -0.028 C  
ENDBRANCH  20  21
ENDBRANCH  18  20
ENDBRANCH  14  15
ENDBRANCH  13  14
ENDBRANCH  12  13
ENDBRANCH  11  12
ENDBRANCH   9  11
ENDBRANCH   4   9
ENDBRANCH   2   4
TORSDOF 9
ENDMDL
MODEL      349
REMARK 921   NORMALIZED FREE ENERGY PREDICTED BY IDOCK:   -2.64 KCAL/MOL
REMARK 922        TOTAL FREE ENERGY PREDICTED BY IDOCK:   -4.41 KCAL/MOL
REMARK 923 INTER-LIGAND FREE ENERGY PREDICTED BY IDOCK:   -3.67 KCAL/MOL
REMARK 924 INTRA-LIGAND FREE ENERGY PREDICTED BY IDOCK:   -0.75 KCAL/MOL
REMARK 927      BINDING AFFINITY PREDICTED BY RF-SCORE:    0.00 PKD
ROOT
HETATM    1  C   UNL     1      -6.783  10.585  69.706  1.00  0.00    -0.126 C  
HETATM    2  N   UNL     1      -6.952  11.320  68.473  1.00  0.00    -0.073 NA 
HETATM    3  H   UNL     1      -6.090  11.579  67.996  1.00  0.00     0.000 HD 
ENDROOT
BRANCH   2   4
HETATM    4  C   UNL     1      -8.121  11.722  67.849  1.00  0.00    -0.144 C  
HETATM    5  C   UNL     1      -9.016  12.461  68.541  1.00  0.00    -0.058 C  
HETATM    6  O   UNL     1     -10.526  12.747  66.796  1.00  0.00    -0.240 OA 
HETATM    7  N   UNL     1     -10.255  12.952  67.986  1.00  0.00    -0.223 N  
HETATM    8  O   UNL     1     -10.979  13.575  68.777  1.00  0.00    -0.248 OA 
BRANCH   4   9
HETATM    9  N   UNL     1      -8.329  11.323  66.543  1.00  0.00    -0.166 NA 
HETATM   10  H   UNL     1      -8.821  11.997  65.957  1.00  0.00     0.000 HD 
BRANCH   9  11
HETATM   11  C   UNL     1      -7.954  10.090  65.880  1.00  0.00    -0.124 C  
BRANCH  11  12
HETATM   12  C   UNL     1      -8.380   8.889  66.731  1.00  0.00    -0.111 C  
BRANCH  12  13
HETATM   13  S   UNL     1     -10.191   8.752  66.905  1.00  0.00    -0.278 SA 
BRANCH  13  14
HETATM   14  C   UNL     1     -10.349   9.027  68.700  1.00  0.00    -0.209 C  
BRANCH  14  15
HETATM   15  C   UNL     1     -10.490   7.739  69.414  1.00  0.00    -0.220 A  
HETATM   16  C   UNL     1     -11.059   7.373  70.613  1.00  0.00    -0.285 A  
HETATM   17  C   UNL     1     -10.857   5.977  70.735  1.00  0.00    -0.358 A  
HETATM   18  C   UNL     1     -10.170   5.578  69.608  1.00  0.00    -0.266 A  
HETATM   19  O   UNL     1      -9.935   6.653  68.804  1.00  0.00    -0.139 OA 
BRANCH  18  20
HETATM   20  C   UNL     1      -9.644   4.265  69.130  1.00  0.00    -0.179 C  
BRANCH  20  21
HETATM   21  N   UNL     1      -8.363   4.375  68.405  1.00  0.00    -0.088 NA 
HETATM   22  C   UNL     1      -7.222   4.346  69.326  1.00  0.00    -0.051 C  
HETATM   23  C   UNL     1      -8.250   3.269  67.451  1.00  0.00    -0.082 C  
ENDBRANCH  20  21
ENDBRANCH  18  20
ENDBRANCH  14  15
ENDBRANCH  13  14
ENDBRANCH  12  13
ENDBRANCH  11  12
ENDBRANCH   9  11
ENDBRANCH   4   9
ENDBRANCH   2   4
TORSDOF 9
ENDMDL
MODEL      350
REMARK 921   NORMALIZED FREE ENERGY PREDICTED BY IDOCK:   -2.62 KCAL/MOL
REMARK 922        TOTAL FREE ENERGY PREDICTED BY IDOCK:   -4.39 KCAL/MOL
REMARK 923 INTER-LIGAND FREE ENERGY PREDICTED BY IDOCK:   -3.91 KCAL/MOL
REMARK 924 INTRA-LIGAND FREE ENERGY PREDICTED BY IDOCK:   -0.48 KCAL/MOL
REMARK 927      BINDING AFFINITY PREDICTED BY RF-SCORE:    0.00 PKD
ROOT
HETATM    1  C   UNL     1      -6.509   6.469  66.752  1.00  0.00    -0.043 C  
HETATM    2  N   UNL     1      -6.933   7.797  66.370  1.00  0.00    -0.062 NA 
HETATM    3  H   UNL     1      -6.195   8.408  66.021  1.00  0.00     0.000 HD 
ENDROOT
BRANCH   2   4
HETATM    4  C   UNL     1      -8.198   8.356  66.410  1.00  0.00    -0.109 C  
HETATM    5  C   UNL     1      -8.583   9.187  65.416  1.00  0.00    -0.169 C  
HETATM    6  O   UNL     1     -10.742   9.552  66.199  1.00  0.00     0.024 OA 
HETATM    7  N   UNL     1      -9.884   9.808  65.344  1.00  0.00    -0.319 N  
HETATM    8  O   UNL     1     -10.051  10.578  64.387  1.00  0.00    -0.340 OA 
BRANCH   4   9
HETATM    9  N   UNL     1      -9.006   8.055  67.490  1.00  0.00    -0.137 NA 
HETATM   10  H   UNL     1      -9.882   7.586  67.258  1.00  0.00     0.000 HD 
BRANCH   9  11
HETATM   11  C   UNL     1      -8.797   8.305  68.902  1.00  0.00    -0.140 C  
BRANCH  11  12
HETATM   12  C   UNL     1      -9.305   9.705  69.264  1.00  0.00    -0.180 C  
BRANCH  12  13
HETATM   13  S   UNL     1     -10.665   9.674  70.480  1.00  0.00    -0.333 SA 
BRANCH  13  14
HETATM   14  C   UNL     1     -11.141   7.918  70.363  1.00  0.00    -0.245 C  
BRANCH  14  15
HETATM   15  C   UNL     1     -10.917   7.231  71.654  1.00  0.00    -0.226 A  
HETATM   16  C   UNL     1     -10.822   7.663  72.958  1.00  0.00    -0.457 A  
HETATM   17  C   UNL     1     -10.593   6.505  73.741  1.00  0.00    -0.285 A  
HETATM   18  C   UNL     1     -10.555   5.440  72.867  1.00  0.00    -0.229 A  
HETATM   19  O   UNL     1     -10.741   5.880  71.591  1.00  0.00    -0.236 OA 
BRANCH  18  20
HETATM   20  C   UNL     1     -10.340   3.972  73.037  1.00  0.00    -0.168 C  
BRANCH  20  21
HETATM   21  N   UNL     1      -8.928   3.609  73.270  1.00  0.00    -0.098 NA 
HETATM   22  C   UNL     1      -8.743   2.154  73.275  1.00  0.00    -0.066 C  
HETATM   23  C   UNL     1      -8.096   4.205  72.222  1.00  0.00    -0.091 C  
ENDBRANCH  20  21
ENDBRANCH  18  20
ENDBRANCH  14  15
ENDBRANCH  13  14
ENDBRANCH  12  13
ENDBRANCH  11  12
ENDBRANCH   9  11
ENDBRANCH   4   9
ENDBRANCH   2   4
TORSDOF 9
ENDMDL
MODEL      351
REMARK 921   NORMALIZED FREE ENERGY PREDICTED BY IDOCK:   -2.62 KCAL/MOL
REMARK 922        TOTAL FREE ENERGY PREDICTED BY IDOCK:   -4.38 KCAL/MOL
REMARK 923 INTER-LIGAND FREE ENERGY PREDICTED BY IDOCK:   -4.18 KCAL/MOL
REMARK 924 INTRA-LIGAND FREE ENERGY PREDICTED BY IDOCK:   -0.20 KCAL/MOL
REMARK 927      BINDING AFFINITY PREDICTED BY RF-SCORE:    0.00 PKD
ROOT
HETATM    1  C   UNL     1     -10.698   6.864  66.985  1.00  0.00    -0.362 C  
HETATM    2  N   UNL     1      -9.388   6.257  66.904  1.00  0.00    -0.131 NA 
HETATM    3  H   UNL     1      -9.063   5.803  67.758  1.00  0.00     0.000 HD 
ENDROOT
BRANCH   2   4
HETATM    4  C   UNL     1      -8.513   6.206  65.833  1.00  0.00    -0.145 C  
HETATM    5  C   UNL     1      -8.420   5.067  65.112  1.00  0.00    -0.143 C  
HETATM    6  O   UNL     1      -6.887   5.865  63.556  1.00  0.00    -0.035 OA 
HETATM    7  N   UNL     1      -7.559   4.909  63.964  1.00  0.00    -0.064 N  
HETATM    8  O   UNL     1      -7.565   3.781  63.449  1.00  0.00    -0.057 OA 
BRANCH   4   9
HETATM    9  N   UNL     1      -7.749   7.327  65.566  1.00  0.00    -0.101 NA 
HETATM   10  H   UNL     1      -7.586   7.514  64.577  1.00  0.00     0.000 HD 
BRANCH   9  11
HETATM   11  C   UNL     1      -7.145   8.276  66.479  1.00  0.00    -0.072 C  
BRANCH  11  12
HETATM   12  C   UNL     1      -7.814   9.646  66.324  1.00  0.00    -0.101 C  
BRANCH  12  13
HETATM   13  S   UNL     1      -8.464  10.300  67.899  1.00  0.00    -0.118 SA 
BRANCH  13  14
HETATM   14  C   UNL     1      -9.681  11.495  67.257  1.00  0.00    -0.182 C  
BRANCH  14  15
HETATM   15  C   UNL     1     -10.657  11.859  68.308  1.00  0.00    -0.213 A  
HETATM   16  C   UNL     1     -11.285  13.033  68.657  1.00  0.00    -0.316 A  
HETATM   17  C   UNL     1     -12.108  12.724  69.768  1.00  0.00    -0.305 A  
HETATM   18  C   UNL     1     -11.925  11.384  70.033  1.00  0.00    -0.363 A  
HETATM   19  O   UNL     1     -11.032  10.855  69.150  1.00  0.00    -0.206 OA 
BRANCH  18  20
HETATM   20  C   UNL     1     -12.474  10.451  71.061  1.00  0.00    -0.388 C  
BRANCH  20  21
HETATM   21  N   UNL     1     -11.992   9.063  70.910  1.00  0.00    -0.262 NA 
HETATM   22  C   UNL     1     -10.568   8.951  71.242  1.00  0.00    -0.281 C  
HETATM   23  C   UNL     1     -12.770   8.184  71.787  1.00  0.00    -0.330 C  
ENDBRANCH  20  21
ENDBRANCH  18  20
ENDBRANCH  14  15
ENDBRANCH  13  14
ENDBRANCH  12  13
ENDBRANCH  11  12
ENDBRANCH   9  11
ENDBRANCH   4   9
ENDBRANCH   2   4
TORSDOF 9
ENDMDL
MODEL      352
REMARK 921   NORMALIZED FREE ENERGY PREDICTED BY IDOCK:   -2.60 KCAL/MOL
REMARK 922        TOTAL FREE ENERGY PREDICTED BY IDOCK:   -4.36 KCAL/MOL
REMARK 923 INTER-LIGAND FREE ENERGY PREDICTED BY IDOCK:   -3.74 KCAL/MOL
REMARK 924 INTRA-LIGAND FREE ENERGY PREDICTED BY IDOCK:   -0.62 KCAL/MOL
REMARK 927      BINDING AFFINITY PREDICTED BY RF-SCORE:    0.00 PKD
ROOT
HETATM    1  C   UNL     1     -10.284  17.449  67.167  1.00  0.00    -0.323 C  
HETATM    2  N   UNL     1     -10.643  16.229  67.855  1.00  0.00    -0.309 NA 
HETATM    3  H   UNL     1     -11.145  16.354  68.734  1.00  0.00     0.000 HD 
ENDROOT
BRANCH   2   4
HETATM    4  C   UNL     1     -10.401  14.916  67.490  1.00  0.00    -0.239 C  
HETATM    5  C   UNL     1     -11.290  14.279  66.695  1.00  0.00    -0.349 C  
HETATM    6  O   UNL     1     -10.107  12.284  66.524  1.00  0.00    -0.209 OA 
HETATM    7  N   UNL     1     -11.129  12.921  66.236  1.00  0.00    -0.281 N  
HETATM    8  O   UNL     1     -12.064  12.479  65.551  1.00  0.00    -0.442 OA 
BRANCH   4   9
HETATM    9  N   UNL     1      -9.263  14.306  67.981  1.00  0.00    -0.186 NA 
HETATM   10  H   UNL     1      -9.390  13.345  68.300  1.00  0.00     0.000 HD 
BRANCH   9  11
HETATM   11  C   UNL     1      -7.916  14.824  68.111  1.00  0.00    -0.129 C  
BRANCH  11  12
HETATM   12  C   UNL     1      -6.916  13.834  67.504  1.00  0.00    -0.145 C  
BRANCH  12  13
HETATM   13  S   UNL     1      -6.477  12.480  68.645  1.00  0.00    -0.085 SA 
BRANCH  13  14
HETATM   14  C   UNL     1      -6.172  11.148  67.438  1.00  0.00    -0.066 C  
BRANCH  14  15
HETATM   15  C   UNL     1      -6.430   9.824  68.048  1.00  0.00    -0.056 A  
HETATM   16  C   UNL     1      -5.910   9.160  69.135  1.00  0.00    -0.036 A  
HETATM   17  C   UNL     1      -6.576   7.912  69.190  1.00  0.00    -0.040 A  
HETATM   18  C   UNL     1      -7.456   7.888  68.129  1.00  0.00    -0.107 A  
HETATM   19  O   UNL     1      -7.362   9.050  67.423  1.00  0.00    -0.083 OA 
BRANCH  18  20
HETATM   20  C   UNL     1      -8.430   6.879  67.617  1.00  0.00    -0.122 C  
BRANCH  20  21
HETATM   21  N   UNL     1      -9.834   7.199  67.944  1.00  0.00    -0.140 NA 
HETATM   22  C   UNL     1     -10.713   6.994  66.788  1.00  0.00    -0.212 C  
HETATM   23  C   UNL     1     -10.278   6.353  69.054  1.00  0.00    -0.183 C  
ENDBRANCH  20  21
ENDBRANCH  18  20
ENDBRANCH  14  15
ENDBRANCH  13  14
ENDBRANCH  12  13
ENDBRANCH  11  12
ENDBRANCH   9  11
ENDBRANCH   4   9
ENDBRANCH   2   4
TORSDOF 9
ENDMDL
MODEL      353
REMARK 921   NORMALIZED FREE ENERGY PREDICTED BY IDOCK:   -2.59 KCAL/MOL
REMARK 922        TOTAL FREE ENERGY PREDICTED BY IDOCK:   -4.35 KCAL/MOL
REMARK 923 INTER-LIGAND FREE ENERGY PREDICTED BY IDOCK:   -3.96 KCAL/MOL
REMARK 924 INTRA-LIGAND FREE ENERGY PREDICTED BY IDOCK:   -0.39 KCAL/MOL
REMARK 927      BINDING AFFINITY PREDICTED BY RF-SCORE:    0.00 PKD
ROOT
HETATM    1  C   UNL     1      -7.064  15.219  69.879  1.00  0.00    -0.102 C  
HETATM    2  N   UNL     1      -7.603  14.073  69.182  1.00  0.00    -0.308 NA 
HETATM    3  H   UNL     1      -6.946  13.310  69.020  1.00  0.00     0.000 HD 
ENDROOT
BRANCH   2   4
HETATM    4  C   UNL     1      -8.886  13.864  68.704  1.00  0.00    -0.076 C  
HETATM    5  C   UNL     1      -9.683  14.931  68.472  1.00  0.00    -0.215 C  
HETATM    6  O   UNL     1     -11.495  13.729  67.646  1.00  0.00    -0.289 OA 
HETATM    7  N   UNL     1     -11.027  14.833  67.954  1.00  0.00    -0.269 N  
HETATM    8  O   UNL     1     -11.633  15.910  67.846  1.00  0.00    -0.256 OA 
BRANCH   4   9
HETATM    9  N   UNL     1      -9.301  12.561  68.508  1.00  0.00    -0.375 NA 
HETATM   10  H   UNL     1      -9.948  12.203  69.210  1.00  0.00     0.000 HD 
BRANCH   9  11
HETATM   11  C   UNL     1      -8.956  11.626  67.456  1.00  0.00    -0.165 C  
BRANCH  11  12
HETATM   12  C   UNL     1      -8.036  10.533  68.012  1.00  0.00    -0.111 C  
BRANCH  12  13
HETATM   13  S   UNL     1      -7.857   9.115  66.879  1.00  0.00    -0.098 SA 
BRANCH  13  14
HETATM   14  C   UNL     1      -9.612   8.797  66.503  1.00  0.00    -0.237 C  
BRANCH  14  15
HETATM   15  C   UNL     1      -9.882   7.343  66.467  1.00  0.00    -0.139 A  
HETATM   16  C   UNL     1     -10.920   6.556  66.911  1.00  0.00    -0.408 A  
HETATM   17  C   UNL     1     -10.576   5.224  66.578  1.00  0.00    -0.348 A  
HETATM   18  C   UNL     1      -9.346   5.278  65.958  1.00  0.00    -0.158 A  
HETATM   19  O   UNL     1      -8.914   6.569  65.898  1.00  0.00    -0.151 OA 
BRANCH  18  20
HETATM   20  C   UNL     1      -8.432   4.246  65.386  1.00  0.00    -0.118 C  
BRANCH  20  21
HETATM   21  N   UNL     1      -7.137   4.153  66.090  1.00  0.00    -0.066 NA 
HETATM   22  C   UNL     1      -6.896   2.796  66.591  1.00  0.00    -0.048 C  
HETATM   23  C   UNL     1      -6.060   4.535  65.173  1.00  0.00    -0.023 C  
ENDBRANCH  20  21
ENDBRANCH  18  20
ENDBRANCH  14  15
ENDBRANCH  13  14
ENDBRANCH  12  13
ENDBRANCH  11  12
ENDBRANCH   9  11
ENDBRANCH   4   9
ENDBRANCH   2   4
TORSDOF 9
ENDMDL
MODEL      354
REMARK 921   NORMALIZED FREE ENERGY PREDICTED BY IDOCK:   -2.58 KCAL/MOL
REMARK 922        TOTAL FREE ENERGY PREDICTED BY IDOCK:   -4.32 KCAL/MOL
REMARK 923 INTER-LIGAND FREE ENERGY PREDICTED BY IDOCK:   -3.71 KCAL/MOL
REMARK 924 INTRA-LIGAND FREE ENERGY PREDICTED BY IDOCK:   -0.62 KCAL/MOL
REMARK 927      BINDING AFFINITY PREDICTED BY RF-SCORE:    0.00 PKD
ROOT
HETATM    1  C   UNL     1      -8.621   9.404  64.565  1.00  0.00    -0.198 C  
HETATM    2  N   UNL     1      -7.953   8.908  65.747  1.00  0.00    -0.098 NA 
HETATM    3  H   UNL     1      -7.351   9.579  66.224  1.00  0.00     0.000 HD 
ENDROOT
BRANCH   2   4
HETATM    4  C   UNL     1      -8.015   7.650  66.323  1.00  0.00    -0.105 C  
HETATM    5  C   UNL     1      -8.755   6.689  65.726  1.00  0.00    -0.116 C  
HETATM    6  O   UNL     1      -8.236   4.990  67.227  1.00  0.00    -0.106 OA 
HETATM    7  N   UNL     1      -8.873   5.340  66.225  1.00  0.00    -0.127 N  
HETATM    8  O   UNL     1      -9.631   4.601  65.578  1.00  0.00    -0.165 OA 
BRANCH   4   9
HETATM    9  N   UNL     1      -7.330   7.444  67.504  1.00  0.00    -0.099 NA 
HETATM   10  H   UNL     1      -7.563   6.581  67.996  1.00  0.00     0.000 HD 
BRANCH   9  11
HETATM   11  C   UNL     1      -6.329   8.268  68.152  1.00  0.00    -0.055 C  
BRANCH  11  12
HETATM   12  C   UNL     1      -6.830   8.709  69.532  1.00  0.00    -0.044 C  
BRANCH  12  13
HETATM   13  S   UNL     1      -8.400   7.908  70.005  1.00  0.00    -0.122 SA 
BRANCH  13  14
HETATM   14  C   UNL     1      -9.400   9.386  70.376  1.00  0.00    -0.268 C  
BRANCH  14  15
HETATM   15  C   UNL     1     -10.105   9.855  69.163  1.00  0.00    -0.200 A  
HETATM   16  C   UNL     1     -10.568   9.227  68.029  1.00  0.00    -0.262 A  
HETATM   17  C   UNL     1     -11.155  10.238  67.229  1.00  0.00    -0.215 A  
HETATM   18  C   UNL     1     -11.007  11.422  67.920  1.00  0.00    -0.240 A  
HETATM   19  O   UNL     1     -10.357  11.194  69.096  1.00  0.00    -0.211 OA 
BRANCH  18  20
HETATM   20  C   UNL     1     -11.385  12.837  67.635  1.00  0.00    -0.310 C  
BRANCH  20  21
HETATM   21  N   UNL     1     -10.533  13.478  66.613  1.00  0.00    -0.272 NA 
HETATM   22  C   UNL     1      -9.127  13.093  66.770  1.00  0.00    -0.209 C  
HETATM   23  C   UNL     1     -11.002  13.090  65.281  1.00  0.00    -0.284 C  
ENDBRANCH  20  21
ENDBRANCH  18  20
ENDBRANCH  14  15
ENDBRANCH  13  14
ENDBRANCH  12  13
ENDBRANCH  11  12
ENDBRANCH   9  11
ENDBRANCH   4   9
ENDBRANCH   2   4
TORSDOF 9
ENDMDL
MODEL      355
REMARK 921   NORMALIZED FREE ENERGY PREDICTED BY IDOCK:   -2.55 KCAL/MOL
REMARK 922        TOTAL FREE ENERGY PREDICTED BY IDOCK:   -4.29 KCAL/MOL
REMARK 923 INTER-LIGAND FREE ENERGY PREDICTED BY IDOCK:   -4.05 KCAL/MOL
REMARK 924 INTRA-LIGAND FREE ENERGY PREDICTED BY IDOCK:   -0.23 KCAL/MOL
REMARK 927      BINDING AFFINITY PREDICTED BY RF-SCORE:    0.00 PKD
ROOT
HETATM    1  C   UNL     1     -12.826  12.788  72.385  1.00  0.00     0.100 C  
HETATM    2  N   UNL     1     -13.298  11.997  71.271  1.00  0.00     0.039 NA 
HETATM    3  H   UNL     1     -14.267  12.159  70.999  1.00  0.00     0.000 HD 
ENDROOT
BRANCH   2   4
HETATM    4  C   UNL     1     -12.620  11.050  70.523  1.00  0.00    -0.304 C  
HETATM    5  C   UNL     1     -12.243  11.355  69.261  1.00  0.00    -0.204 C  
HETATM    6  O   UNL     1     -11.152   9.348  68.821  1.00  0.00    -0.096 OA 
HETATM    7  N   UNL     1     -11.514  10.455  68.399  1.00  0.00    -0.224 N  
HETATM    8  O   UNL     1     -11.291  10.880  67.256  1.00  0.00    -0.415 OA 
BRANCH   4   9
HETATM    9  N   UNL     1     -12.381   9.817  71.099  1.00  0.00    -0.337 NA 
HETATM   10  H   UNL     1     -13.150   9.151  71.031  1.00  0.00     0.000 HD 
BRANCH   9  11
HETATM   11  C   UNL     1     -11.203   9.328  71.787  1.00  0.00    -0.343 C  
BRANCH  11  12
HETATM   12  C   UNL     1     -11.530   8.019  72.514  1.00  0.00    -0.409 C  
BRANCH  12  13
HETATM   13  S   UNL     1     -11.829   6.629  71.370  1.00  0.00    -0.340 SA 
BRANCH  13  14
HETATM   14  C   UNL     1     -10.200   6.545  70.557  1.00  0.00    -0.190 C  
BRANCH  14  15
HETATM   15  C   UNL     1      -9.830   5.139  70.277  1.00  0.00    -0.225 A  
HETATM   16  C   UNL     1      -9.612   4.425  69.120  1.00  0.00    -0.252 A  
HETATM   17  C   UNL     1      -9.293   3.107  69.526  1.00  0.00    -0.228 A  
HETATM   18  C   UNL     1      -9.343   3.095  70.903  1.00  0.00    -0.150 A  
HETATM   19  O   UNL     1      -9.682   4.331  71.365  1.00  0.00    -0.161 OA 
BRANCH  18  20
HETATM   20  C   UNL     1      -9.128   2.038  71.935  1.00  0.00    -0.082 C  
BRANCH  20  21
HETATM   21  N   UNL     1      -9.221   2.541  73.320  1.00  0.00    -0.083 NA 
HETATM   22  C   UNL     1     -10.155   1.742  74.119  1.00  0.00    -0.094 C  
HETATM   23  C   UNL     1      -7.893   2.506  73.937  1.00  0.00    -0.055 C  
ENDBRANCH  20  21
ENDBRANCH  18  20
ENDBRANCH  14  15
ENDBRANCH  13  14
ENDBRANCH  12  13
ENDBRANCH  11  12
ENDBRANCH   9  11
ENDBRANCH   4   9
ENDBRANCH   2   4
TORSDOF 9
ENDMDL
MODEL      356
REMARK 921   NORMALIZED FREE ENERGY PREDICTED BY IDOCK:   -2.53 KCAL/MOL
REMARK 922        TOTAL FREE ENERGY PREDICTED BY IDOCK:   -4.25 KCAL/MOL
REMARK 923 INTER-LIGAND FREE ENERGY PREDICTED BY IDOCK:   -3.63 KCAL/MOL
REMARK 924 INTRA-LIGAND FREE ENERGY PREDICTED BY IDOCK:   -0.62 KCAL/MOL
REMARK 927      BINDING AFFINITY PREDICTED BY RF-SCORE:    0.00 PKD
ROOT
HETATM    1  C   UNL     1      -6.917   9.952  69.719  1.00  0.00    -0.095 C  
HETATM    2  N   UNL     1      -7.115  10.184  68.306  1.00  0.00    -0.075 NA 
HETATM    3  H   UNL     1      -6.346  10.652  67.828  1.00  0.00     0.000 HD 
ENDROOT
BRANCH   2   4
HETATM    4  C   UNL     1      -8.201   9.860  67.511  1.00  0.00    -0.114 C  
HETATM    5  C   UNL     1      -9.321  10.612  67.587  1.00  0.00    -0.146 C  
HETATM    6  O   UNL     1     -10.512   9.479  65.942  1.00  0.00    -0.115 OA 
HETATM    7  N   UNL     1     -10.502  10.380  66.791  1.00  0.00    -0.237 N  
HETATM    8  O   UNL     1     -11.455  11.139  67.024  1.00  0.00    -0.442 OA 
BRANCH   4   9
HETATM    9  N   UNL     1      -8.094   8.756  66.686  1.00  0.00    -0.103 NA 
HETATM   10  H   UNL     1      -8.456   8.885  65.741  1.00  0.00     0.000 HD 
BRANCH   9  11
HETATM   11  C   UNL     1      -7.547   7.443  66.962  1.00  0.00    -0.106 C  
BRANCH  11  12
HETATM   12  C   UNL     1      -8.204   6.856  68.216  1.00  0.00    -0.123 C  
BRANCH  12  13
HETATM   13  S   UNL     1      -9.978   6.497  67.984  1.00  0.00    -0.143 SA 
BRANCH  13  14
HETATM   14  C   UNL     1     -10.687   7.645  69.210  1.00  0.00    -0.161 C  
BRANCH  14  15
HETATM   15  C   UNL     1     -10.938   6.948  70.490  1.00  0.00    -0.273 A  
HETATM   16  C   UNL     1     -11.888   7.085  71.477  1.00  0.00    -0.351 A  
HETATM   17  C   UNL     1     -11.578   6.113  72.460  1.00  0.00    -0.294 A  
HETATM   18  C   UNL     1     -10.455   5.449  72.017  1.00  0.00    -0.221 A  
HETATM   19  O   UNL     1     -10.054   5.964  70.820  1.00  0.00    -0.184 OA 
BRANCH  18  20
HETATM   20  C   UNL     1      -9.621   4.344  72.575  1.00  0.00    -0.144 C  
BRANCH  20  21
HETATM   21  N   UNL     1      -8.483   4.819  73.386  1.00  0.00    -0.103 NA 
HETATM   22  C   UNL     1      -8.884   5.902  74.290  1.00  0.00    -0.123 C  
HETATM   23  C   UNL     1      -7.947   3.701  74.168  1.00  0.00    -0.078 C  
ENDBRANCH  20  21
ENDBRANCH  18  20
ENDBRANCH  14  15
ENDBRANCH  13  14
ENDBRANCH  12  13
ENDBRANCH  11  12
ENDBRANCH   9  11
ENDBRANCH   4   9
ENDBRANCH   2   4
TORSDOF 9
ENDMDL
MODEL      357
REMARK 921   NORMALIZED FREE ENERGY PREDICTED BY IDOCK:   -2.51 KCAL/MOL
REMARK 922        TOTAL FREE ENERGY PREDICTED BY IDOCK:   -4.22 KCAL/MOL
REMARK 923 INTER-LIGAND FREE ENERGY PREDICTED BY IDOCK:   -3.58 KCAL/MOL
REMARK 924 INTRA-LIGAND FREE ENERGY PREDICTED BY IDOCK:   -0.65 KCAL/MOL
REMARK 927      BINDING AFFINITY PREDICTED BY RF-SCORE:    0.00 PKD
ROOT
HETATM    1  C   UNL     1     -10.715  18.345  67.031  1.00  0.00    -0.293 C  
HETATM    2  N   UNL     1     -10.787  16.938  67.351  1.00  0.00    -0.230 NA 
HETATM    3  H   UNL     1     -11.092  16.719  68.299  1.00  0.00     0.000 HD 
ENDROOT
BRANCH   2   4
HETATM    4  C   UNL     1     -10.501  15.844  66.552  1.00  0.00    -0.304 C  
HETATM    5  C   UNL     1     -11.421  15.424  65.655  1.00  0.00    -0.049 C  
HETATM    6  O   UNL     1     -10.139  13.711  64.745  1.00  0.00    -0.349 OA 
HETATM    7  N   UNL     1     -11.222  14.311  64.758  1.00  0.00    -0.375 N  
HETATM    8  O   UNL     1     -12.189  14.035  64.034  1.00  0.00    -0.578 OA 
BRANCH   4   9
HETATM    9  N   UNL     1      -9.285  15.212  66.729  1.00  0.00    -0.237 NA 
HETATM   10  H   UNL     1      -9.342  14.227  66.986  1.00  0.00     0.000 HD 
BRANCH   9  11
HETATM   11  C   UNL     1      -7.940  15.739  66.605  1.00  0.00    -0.197 C  
BRANCH  11  12
HETATM   12  C   UNL     1      -6.973  14.902  67.450  1.00  0.00    -0.130 C  
BRANCH  12  13
HETATM   13  S   UNL     1      -7.746  14.239  68.964  1.00  0.00    -0.011 SA 
BRANCH  13  14
HETATM   14  C   UNL     1      -6.794  12.695  69.144  1.00  0.00    -0.057 C  
BRANCH  14  15
HETATM   15  C   UNL     1      -7.380  11.622  68.309  1.00  0.00    -0.093 A  
HETATM   16  C   UNL     1      -8.668  11.199  68.070  1.00  0.00    -0.141 A  
HETATM   17  C   UNL     1      -8.564  10.110  67.171  1.00  0.00    -0.125 A  
HETATM   18  C   UNL     1      -7.220   9.930  66.923  1.00  0.00    -0.090 A  
HETATM   19  O   UNL     1      -6.493  10.845  67.624  1.00  0.00    -0.055 OA 
BRANCH  18  20
HETATM   20  C   UNL     1      -6.444   8.964  66.091  1.00  0.00    -0.065 C  
BRANCH  20  21
HETATM   21  N   UNL     1      -7.269   7.874  65.533  1.00  0.00    -0.066 NA 
HETATM   22  C   UNL     1      -7.283   7.911  64.067  1.00  0.00    -0.084 C  
HETATM   23  C   UNL     1      -6.739   6.585  65.986  1.00  0.00    -0.049 C  
ENDBRANCH  20  21
ENDBRANCH  18  20
ENDBRANCH  14  15
ENDBRANCH  13  14
ENDBRANCH  12  13
ENDBRANCH  11  12
ENDBRANCH   9  11
ENDBRANCH   4   9
ENDBRANCH   2   4
TORSDOF 9
ENDMDL
MODEL      358
REMARK 921   NORMALIZED FREE ENERGY PREDICTED BY IDOCK:   -2.51 KCAL/MOL
REMARK 922        TOTAL FREE ENERGY PREDICTED BY IDOCK:   -4.22 KCAL/MOL
REMARK 923 INTER-LIGAND FREE ENERGY PREDICTED BY IDOCK:   -3.75 KCAL/MOL
REMARK 924 INTRA-LIGAND FREE ENERGY PREDICTED BY IDOCK:   -0.47 KCAL/MOL
REMARK 927      BINDING AFFINITY PREDICTED BY RF-SCORE:    0.00 PKD
ROOT
HETATM    1  C   UNL     1     -12.748  11.770  71.600  1.00  0.00    -0.251 C  
HETATM    2  N   UNL     1     -12.887  11.004  70.382  1.00  0.00    -0.206 NA 
HETATM    3  H   UNL     1     -13.814  10.614  70.214  1.00  0.00     0.000 HD 
ENDROOT
BRANCH   2   4
HETATM    4  C   UNL     1     -11.939  10.723  69.413  1.00  0.00    -0.281 C  
HETATM    5  C   UNL     1     -11.613  11.679  68.515  1.00  0.00    -0.317 C  
HETATM    6  O   UNL     1      -9.983  10.450  67.403  1.00  0.00    -0.176 OA 
HETATM    7  N   UNL     1     -10.626  11.505  67.477  1.00  0.00    -0.198 N  
HETATM    8  O   UNL     1     -10.486  12.470  66.712  1.00  0.00    -0.224 OA 
BRANCH   4   9
HETATM    9  N   UNL     1     -11.385   9.458  69.395  1.00  0.00    -0.438 NA 
HETATM   10  H   UNL     1     -11.592   8.906  68.563  1.00  0.00     0.000 HD 
BRANCH   9  11
HETATM   11  C   UNL     1     -10.553   8.796  70.380  1.00  0.00    -0.221 C  
BRANCH  11  12
HETATM   12  C   UNL     1     -10.659   7.276  70.216  1.00  0.00    -0.229 C  
BRANCH  12  13
HETATM   13  S   UNL     1      -9.435   6.602  69.043  1.00  0.00    -0.130 SA 
BRANCH  13  14
HETATM   14  C   UNL     1      -9.186   4.951  69.775  1.00  0.00    -0.121 C  
BRANCH  14  15
HETATM   15  C   UNL     1      -8.580   4.030  68.788  1.00  0.00    -0.089 A  
HETATM   16  C   UNL     1      -7.491   3.189  68.815  1.00  0.00    -0.049 A  
HETATM   17  C   UNL     1      -7.433   2.578  67.539  1.00  0.00    -0.057 A  
HETATM   18  C   UNL     1      -8.485   3.089  66.809  1.00  0.00    -0.098 A  
HETATM   19  O   UNL     1      -9.181   3.985  67.565  1.00  0.00    -0.138 OA 
BRANCH  18  20
HETATM   20  C   UNL     1      -8.973   2.878  65.415  1.00  0.00    -0.144 C  
BRANCH  20  21
HETATM   21  N   UNL     1      -9.385   4.125  64.741  1.00  0.00    -0.155 NA 
HETATM   22  C   UNL     1      -8.644   4.330  63.492  1.00  0.00    -0.110 C  
HETATM   23  C   UNL     1     -10.821   4.069  64.455  1.00  0.00    -0.116 C  
ENDBRANCH  20  21
ENDBRANCH  18  20
ENDBRANCH  14  15
ENDBRANCH  13  14
ENDBRANCH  12  13
ENDBRANCH  11  12
ENDBRANCH   9  11
ENDBRANCH   4   9
ENDBRANCH   2   4
TORSDOF 9
ENDMDL
MODEL      359
REMARK 921   NORMALIZED FREE ENERGY PREDICTED BY IDOCK:   -2.51 KCAL/MOL
REMARK 922        TOTAL FREE ENERGY PREDICTED BY IDOCK:   -4.21 KCAL/MOL
REMARK 923 INTER-LIGAND FREE ENERGY PREDICTED BY IDOCK:   -3.97 KCAL/MOL
REMARK 924 INTRA-LIGAND FREE ENERGY PREDICTED BY IDOCK:   -0.24 KCAL/MOL
REMARK 927      BINDING AFFINITY PREDICTED BY RF-SCORE:    0.00 PKD
ROOT
HETATM    1  C   UNL     1     -10.558   8.084  69.968  1.00  0.00    -0.242 C  
HETATM    2  N   UNL     1      -9.847   6.882  69.596  1.00  0.00    -0.166 NA 
HETATM    3  H   UNL     1     -10.422   6.045  69.501  1.00  0.00     0.000 HD 
ENDROOT
BRANCH   2   4
HETATM    4  C   UNL     1      -8.496   6.705  69.352  1.00  0.00    -0.131 C  
HETATM    5  C   UNL     1      -8.084   5.593  68.704  1.00  0.00    -0.100 C  
HETATM    6  O   UNL     1      -5.825   6.144  68.647  1.00  0.00    -0.014 OA 
HETATM    7  N   UNL     1      -6.706   5.316  68.377  1.00  0.00    -0.052 N  
HETATM    8  O   UNL     1      -6.502   4.227  67.821  1.00  0.00    -0.036 OA 
BRANCH   4   9
HETATM    9  N   UNL     1      -7.623   7.673  69.810  1.00  0.00    -0.091 NA 
HETATM   10  H   UNL     1      -6.887   7.334  70.430  1.00  0.00     0.000 HD 
BRANCH   9  11
HETATM   11  C   UNL     1      -7.594   9.096  69.543  1.00  0.00    -0.079 C  
BRANCH  11  12
HETATM   12  C   UNL     1      -7.338   9.342  68.052  1.00  0.00    -0.080 C  
BRANCH  12  13
HETATM   13  S   UNL     1      -6.955  11.085  67.675  1.00  0.00    -0.086 SA 
BRANCH  13  14
HETATM   14  C   UNL     1      -8.339  11.897  68.541  1.00  0.00    -0.118 C  
BRANCH  14  15
HETATM   15  C   UNL     1      -8.845  13.044  67.754  1.00  0.00    -0.188 A  
HETATM   16  C   UNL     1      -8.855  14.405  67.955  1.00  0.00    -0.178 A  
HETATM   17  C   UNL     1      -9.498  14.965  66.825  1.00  0.00    -0.269 A  
HETATM   18  C   UNL     1      -9.847  13.912  66.007  1.00  0.00    -0.289 A  
HETATM   19  O   UNL     1      -9.460  12.736  66.577  1.00  0.00    -0.250 OA 
BRANCH  18  20
HETATM   20  C   UNL     1     -10.550  13.813  64.694  1.00  0.00    -0.425 C  
BRANCH  20  21
HETATM   21  N   UNL     1     -11.635  12.812  64.682  1.00  0.00    -0.322 NA 
HETATM   22  C   UNL     1     -12.651  13.111  65.696  1.00  0.00    -0.351 C  
HETATM   23  C   UNL     1     -12.257  12.788  63.356  1.00  0.00    -0.504 C  
ENDBRANCH  20  21
ENDBRANCH  18  20
ENDBRANCH  14  15
ENDBRANCH  13  14
ENDBRANCH  12  13
ENDBRANCH  11  12
ENDBRANCH   9  11
ENDBRANCH   4   9
ENDBRANCH   2   4
TORSDOF 9
ENDMDL
MODEL      360
REMARK 921   NORMALIZED FREE ENERGY PREDICTED BY IDOCK:   -2.48 KCAL/MOL
REMARK 922        TOTAL FREE ENERGY PREDICTED BY IDOCK:   -4.18 KCAL/MOL
REMARK 923 INTER-LIGAND FREE ENERGY PREDICTED BY IDOCK:   -3.85 KCAL/MOL
REMARK 924 INTRA-LIGAND FREE ENERGY PREDICTED BY IDOCK:   -0.33 KCAL/MOL
REMARK 927      BINDING AFFINITY PREDICTED BY RF-SCORE:    0.00 PKD
ROOT
HETATM    1  C   UNL     1     -10.320  12.560  68.252  1.00  0.00    -0.236 C  
HETATM    2  N   UNL     1     -10.107  11.485  69.194  1.00  0.00    -0.417 NA 
HETATM    3  H   UNL     1      -9.815  11.772  70.128  1.00  0.00     0.000 HD 
ENDROOT
BRANCH   2   4
HETATM    4  C   UNL     1     -10.242  10.119  69.007  1.00  0.00    -0.206 C  
HETATM    5  C   UNL     1     -10.655   9.351  70.040  1.00  0.00    -0.235 C  
HETATM    6  O   UNL     1     -10.690   7.340  68.874  1.00  0.00    -0.205 OA 
HETATM    7  N   UNL     1     -10.851   7.924  69.953  1.00  0.00    -0.244 N  
HETATM    8  O   UNL     1     -11.188   7.371  71.011  1.00  0.00    -0.253 OA 
BRANCH   4   9
HETATM    9  N   UNL     1      -9.921   9.600  67.768  1.00  0.00    -0.162 NA 
HETATM   10  H   UNL     1     -10.544   8.865  67.432  1.00  0.00     0.000 HD 
BRANCH   9  11
HETATM   11  C   UNL     1      -8.833   9.940  66.873  1.00  0.00    -0.134 C  
BRANCH  11  12
HETATM   12  C   UNL     1      -9.394  10.472  65.550  1.00  0.00    -0.202 C  
BRANCH  12  13
HETATM   13  S   UNL     1      -8.853   9.496  64.107  1.00  0.00    -0.183 SA 
BRANCH  13  14
HETATM   14  C   UNL     1      -7.589   8.449  64.901  1.00  0.00    -0.100 C  
BRANCH  14  15
HETATM   15  C   UNL     1      -7.974   7.022  64.828  1.00  0.00    -0.122 A  
HETATM   16  C   UNL     1      -7.620   5.983  63.998  1.00  0.00    -0.087 A  
HETATM   17  C   UNL     1      -8.348   4.854  64.448  1.00  0.00    -0.133 A  
HETATM   18  C   UNL     1      -9.107   5.276  65.519  1.00  0.00    -0.139 A  
HETATM   19  O   UNL     1      -8.890   6.602  65.747  1.00  0.00    -0.148 OA 
BRANCH  18  20
HETATM   20  C   UNL     1     -10.087   4.600  66.420  1.00  0.00    -0.261 C  
BRANCH  20  21
HETATM   21  N   UNL     1      -9.451   3.850  67.521  1.00  0.00    -0.191 NA 
HETATM   22  C   UNL     1      -9.218   2.450  67.150  1.00  0.00    -0.096 C  
HETATM   23  C   UNL     1      -8.176   4.484  67.866  1.00  0.00    -0.095 C  
ENDBRANCH  20  21
ENDBRANCH  18  20
ENDBRANCH  14  15
ENDBRANCH  13  14
ENDBRANCH  12  13
ENDBRANCH  11  12
ENDBRANCH   9  11
ENDBRANCH   4   9
ENDBRANCH   2   4
TORSDOF 9
ENDMDL
MODEL      361
REMARK 921   NORMALIZED FREE ENERGY PREDICTED BY IDOCK:   -2.46 KCAL/MOL
REMARK 922        TOTAL FREE ENERGY PREDICTED BY IDOCK:   -4.15 KCAL/MOL
REMARK 923 INTER-LIGAND FREE ENERGY PREDICTED BY IDOCK:   -3.60 KCAL/MOL
REMARK 924 INTRA-LIGAND FREE ENERGY PREDICTED BY IDOCK:   -0.55 KCAL/MOL
REMARK 927      BINDING AFFINITY PREDICTED BY RF-SCORE:    0.00 PKD
ROOT
HETATM    1  C   UNL     1     -10.362   3.381  62.842  1.00  0.00    -0.176 C  
HETATM    2  N   UNL     1      -9.166   3.975  63.393  1.00  0.00    -0.126 NA 
HETATM    3  H   UNL     1      -8.503   4.339  62.709  1.00  0.00     0.000 HD 
ENDROOT
BRANCH   2   4
HETATM    4  C   UNL     1      -8.793   4.121  64.718  1.00  0.00    -0.135 C  
HETATM    5  C   UNL     1      -8.347   3.041  65.399  1.00  0.00    -0.097 C  
HETATM    6  O   UNL     1      -7.885   4.157  67.386  1.00  0.00    -0.090 OA 
HETATM    7  N   UNL     1      -7.913   3.081  66.774  1.00  0.00    -0.079 N  
HETATM    8  O   UNL     1      -7.579   1.988  67.256  1.00  0.00    -0.059 OA 
BRANCH   4   9
HETATM    9  N   UNL     1      -8.919   5.370  65.294  1.00  0.00    -0.270 NA 
HETATM   10  H   UNL     1      -9.673   5.459  65.976  1.00  0.00     0.000 HD 
BRANCH   9  11
HETATM   11  C   UNL     1      -8.143   6.574  65.075  1.00  0.00    -0.127 C  
BRANCH  11  12
HETATM   12  C   UNL     1      -8.715   7.722  65.915  1.00  0.00    -0.149 C  
BRANCH  12  13
HETATM   13  S   UNL     1      -8.771   9.304  65.008  1.00  0.00    -0.192 SA 
BRANCH  13  14
HETATM   14  C   UNL     1     -10.193  10.084  65.839  1.00  0.00    -0.205 C  
BRANCH  14  15
HETATM   15  C   UNL     1      -9.899  10.309  67.272  1.00  0.00    -0.182 A  
HETATM   16  C   UNL     1      -8.859  10.906  67.947  1.00  0.00    -0.134 A  
HETATM   17  C   UNL     1      -9.166  10.793  69.325  1.00  0.00    -0.068 A  
HETATM   18  C   UNL     1     -10.370  10.127  69.406  1.00  0.00    -0.232 A  
HETATM   19  O   UNL     1     -10.816   9.820  68.155  1.00  0.00    -0.242 OA 
BRANCH  18  20
HETATM   20  C   UNL     1     -11.229   9.682  70.543  1.00  0.00    -0.297 C  
BRANCH  20  21
HETATM   21  N   UNL     1     -11.025   8.268  70.914  1.00  0.00    -0.241 NA 
HETATM   22  C   UNL     1     -10.343   8.146  72.207  1.00  0.00    -0.292 C  
HETATM   23  C   UNL     1     -12.324   7.592  70.980  1.00  0.00    -0.208 C  
ENDBRANCH  20  21
ENDBRANCH  18  20
ENDBRANCH  14  15
ENDBRANCH  13  14
ENDBRANCH  12  13
ENDBRANCH  11  12
ENDBRANCH   9  11
ENDBRANCH   4   9
ENDBRANCH   2   4
TORSDOF 9
ENDMDL
MODEL      362
REMARK 921   NORMALIZED FREE ENERGY PREDICTED BY IDOCK:   -2.43 KCAL/MOL
REMARK 922        TOTAL FREE ENERGY PREDICTED BY IDOCK:   -4.10 KCAL/MOL
REMARK 923 INTER-LIGAND FREE ENERGY PREDICTED BY IDOCK:   -3.87 KCAL/MOL
REMARK 924 INTRA-LIGAND FREE ENERGY PREDICTED BY IDOCK:   -0.24 KCAL/MOL
REMARK 927      BINDING AFFINITY PREDICTED BY RF-SCORE:    0.00 PKD
ROOT
HETATM    1  C   UNL     1     -10.706   7.077  67.888  1.00  0.00    -0.210 C  
HETATM    2  N   UNL     1     -10.586   8.421  68.407  1.00  0.00    -0.384 NA 
HETATM    3  H   UNL     1     -10.032   9.062  67.839  1.00  0.00     0.000 HD 
ENDROOT
BRANCH   2   4
HETATM    4  C   UNL     1     -11.116   8.960  69.567  1.00  0.00    -0.001 C  
HETATM    5  C   UNL     1     -11.171   8.199  70.682  1.00  0.00    -0.260 C  
HETATM    6  O   UNL     1     -12.056   9.837  72.075  1.00  0.00    -0.328 OA 
HETATM    7  N   UNL     1     -11.682   8.664  71.949  1.00  0.00    -0.326 N  
HETATM    8  O   UNL     1     -11.700   7.818  72.856  1.00  0.00    -0.315 OA 
BRANCH   4   9
HETATM    9  N   UNL     1     -11.592  10.257  69.520  1.00  0.00    -0.405 NA 
HETATM   10  H   UNL     1     -11.870  10.649  70.419  1.00  0.00     0.000 HD 
BRANCH   9  11
HETATM   11  C   UNL     1     -11.757  11.143  68.385  1.00  0.00    -0.279 C  
BRANCH  11  12
HETATM   12  C   UNL     1     -10.385  11.577  67.859  1.00  0.00    -0.183 C  
BRANCH  12  13
HETATM   13  S   UNL     1     -10.216  11.360  66.055  1.00  0.00    -0.254 SA 
BRANCH  13  14
HETATM   14  C   UNL     1      -8.399  11.279  65.925  1.00  0.00    -0.023 C  
BRANCH  14  15
HETATM   15  C   UNL     1      -7.982  10.048  65.217  1.00  0.00    -0.143 A  
HETATM   16  C   UNL     1      -7.337   9.809  64.025  1.00  0.00    -0.128 A  
HETATM   17  C   UNL     1      -7.238   8.401  63.907  1.00  0.00    -0.094 A  
HETATM   18  C   UNL     1      -7.836   7.868  65.029  1.00  0.00    -0.120 A  
HETATM   19  O   UNL     1      -8.301   8.871  65.826  1.00  0.00    -0.121 OA 
BRANCH  18  20
HETATM   20  C   UNL     1      -8.078   6.475  65.507  1.00  0.00    -0.127 C  
BRANCH  20  21
HETATM   21  N   UNL     1      -6.945   5.910  66.267  1.00  0.00    -0.061 NA 
HETATM   22  C   UNL     1      -5.737   6.727  66.114  1.00  0.00    -0.029 C  
HETATM   23  C   UNL     1      -7.306   5.831  67.685  1.00  0.00    -0.077 C  
ENDBRANCH  20  21
ENDBRANCH  18  20
ENDBRANCH  14  15
ENDBRANCH  13  14
ENDBRANCH  12  13
ENDBRANCH  11  12
ENDBRANCH   9  11
ENDBRANCH   4   9
ENDBRANCH   2   4
TORSDOF 9
ENDMDL
MODEL      363
REMARK 921   NORMALIZED FREE ENERGY PREDICTED BY IDOCK:   -2.38 KCAL/MOL
REMARK 922        TOTAL FREE ENERGY PREDICTED BY IDOCK:   -4.03 KCAL/MOL
REMARK 923 INTER-LIGAND FREE ENERGY PREDICTED BY IDOCK:   -3.35 KCAL/MOL
REMARK 924 INTRA-LIGAND FREE ENERGY PREDICTED BY IDOCK:   -0.68 KCAL/MOL
REMARK 927      BINDING AFFINITY PREDICTED BY RF-SCORE:    0.00 PKD
ROOT
HETATM    1  C   UNL     1      -5.355   5.799  66.296  1.00  0.00    -0.009 C  
HETATM    2  N   UNL     1      -5.764   6.992  65.590  1.00  0.00    -0.031 NA 
HETATM    3  H   UNL     1      -5.267   7.178  64.719  1.00  0.00     0.000 HD 
ENDROOT
BRANCH   2   4
HETATM    4  C   UNL     1      -6.733   7.920  65.931  1.00  0.00    -0.049 C  
HETATM    5  C   UNL     1      -7.540   8.414  64.965  1.00  0.00    -0.094 C  
HETATM    6  O   UNL     1      -8.841   9.740  66.363  1.00  0.00    -0.142 OA 
HETATM    7  N   UNL     1      -8.596   9.366  65.208  1.00  0.00    -0.151 N  
HETATM    8  O   UNL     1      -9.208   9.748  64.200  1.00  0.00    -0.256 OA 
BRANCH   4   9
HETATM    9  N   UNL     1      -6.814   8.318  67.251  1.00  0.00    -0.069 NA 
HETATM   10  H   UNL     1      -7.691   8.090  67.720  1.00  0.00     0.000 HD 
BRANCH   9  11
HETATM   11  C   UNL     1      -5.842   9.013  68.071  1.00  0.00    -0.039 C  
BRANCH  11  12
HETATM   12  C   UNL     1      -6.283  10.464  68.286  1.00  0.00    -0.051 C  
BRANCH  12  13
HETATM   13  S   UNL     1      -6.464  10.897  70.049  1.00  0.00    -0.137 SA 
BRANCH  13  14
HETATM   14  C   UNL     1      -7.284   9.384  70.654  1.00  0.00    -0.128 C  
BRANCH  14  15
HETATM   15  C   UNL     1      -8.635   9.254  70.064  1.00  0.00    -0.182 A  
HETATM   16  C   UNL     1      -9.677  10.132  69.870  1.00  0.00    -0.195 A  
HETATM   17  C   UNL     1     -10.711   9.386  69.255  1.00  0.00    -0.228 A  
HETATM   18  C   UNL     1     -10.241   8.097  69.119  1.00  0.00    -0.214 A  
HETATM   19  O   UNL     1      -8.977   8.010  69.622  1.00  0.00    -0.143 OA 
BRANCH  18  20
HETATM   20  C   UNL     1     -10.824   6.837  68.572  1.00  0.00    -0.222 C  
BRANCH  20  21
HETATM   21  N   UNL     1     -11.281   5.900  69.617  1.00  0.00    -0.360 NA 
HETATM   22  C   UNL     1     -10.188   5.035  70.076  1.00  0.00    -0.269 C  
HETATM   23  C   UNL     1     -11.813   6.661  70.750  1.00  0.00    -0.383 C  
ENDBRANCH  20  21
ENDBRANCH  18  20
ENDBRANCH  14  15
ENDBRANCH  13  14
ENDBRANCH  12  13
ENDBRANCH  11  12
ENDBRANCH   9  11
ENDBRANCH   4   9
ENDBRANCH   2   4
TORSDOF 9
ENDMDL
MODEL      364
REMARK 921   NORMALIZED FREE ENERGY PREDICTED BY IDOCK:   -2.35 KCAL/MOL
REMARK 922        TOTAL FREE ENERGY PREDICTED BY IDOCK:   -3.97 KCAL/MOL
REMARK 923 INTER-LIGAND FREE ENERGY PREDICTED BY IDOCK:   -3.75 KCAL/MOL
REMARK 924 INTRA-LIGAND FREE ENERGY PREDICTED BY IDOCK:   -0.23 KCAL/MOL
REMARK 927      BINDING AFFINITY PREDICTED BY RF-SCORE:    0.00 PKD
ROOT
HETATM    1  C   UNL     1      -7.338  12.858  68.579  1.00  0.00    -0.115 C  
HETATM    2  N   UNL     1      -8.643  12.270  68.380  1.00  0.00    -0.266 NA 
HETATM    3  H   UNL     1      -9.186  12.111  69.229  1.00  0.00     0.000 HD 
ENDROOT
BRANCH   2   4
HETATM    4  C   UNL     1      -9.261  11.892  67.200  1.00  0.00    -0.183 C  
HETATM    5  C   UNL     1      -9.695  12.848  66.348  1.00  0.00    -0.263 C  
HETATM    6  O   UNL     1     -10.460  11.400  64.697  1.00  0.00    -0.278 OA 
HETATM    7  N   UNL     1     -10.331  12.570  65.083  1.00  0.00    -0.285 N  
HETATM    8  O   UNL     1     -10.708  13.566  64.449  1.00  0.00    -0.408 OA 
BRANCH   4   9
HETATM    9  N   UNL     1      -9.427  10.542  66.959  1.00  0.00    -0.161 NA 
HETATM   10  H   UNL     1      -8.713  10.116  66.368  1.00  0.00     0.000 HD 
BRANCH   9  11
HETATM   11  C   UNL     1     -10.463   9.639  67.420  1.00  0.00    -0.257 C  
BRANCH  11  12
HETATM   12  C   UNL     1     -10.079   8.193  67.088  1.00  0.00    -0.264 C  
BRANCH  12  13
HETATM   13  S   UNL     1     -10.004   7.123  68.563  1.00  0.00    -0.164 SA 
BRANCH  13  14
HETATM   14  C   UNL     1     -10.829   5.636  67.907  1.00  0.00    -0.080 C  
BRANCH  14  15
HETATM   15  C   UNL     1      -9.830   4.648  67.443  1.00  0.00    -0.165 A  
HETATM   16  C   UNL     1      -8.620   4.216  67.936  1.00  0.00    -0.107 A  
HETATM   17  C   UNL     1      -8.143   3.250  67.017  1.00  0.00    -0.083 A  
HETATM   18  C   UNL     1      -9.087   3.157  66.017  1.00  0.00    -0.147 A  
HETATM   19  O   UNL     1     -10.113   4.017  66.268  1.00  0.00    -0.170 OA 
BRANCH  18  20
HETATM   20  C   UNL     1      -9.188   2.351  64.765  1.00  0.00    -0.139 C  
BRANCH  20  21
HETATM   21  N   UNL     1      -8.580   3.009  63.591  1.00  0.00    -0.089 NA 
HETATM   22  C   UNL     1      -7.116   2.996  63.668  1.00  0.00    -0.048 C  
HETATM   23  C   UNL     1      -9.013   2.322  62.372  1.00  0.00    -0.074 C  
ENDBRANCH  20  21
ENDBRANCH  18  20
ENDBRANCH  14  15
ENDBRANCH  13  14
ENDBRANCH  12  13
ENDBRANCH  11  12
ENDBRANCH   9  11
ENDBRANCH   4   9
ENDBRANCH   2   4
TORSDOF 9
ENDMDL
MODEL      365
REMARK 921   NORMALIZED FREE ENERGY PREDICTED BY IDOCK:   -2.33 KCAL/MOL
REMARK 922        TOTAL FREE ENERGY PREDICTED BY IDOCK:   -3.95 KCAL/MOL
REMARK 923 INTER-LIGAND FREE ENERGY PREDICTED BY IDOCK:   -3.09 KCAL/MOL
REMARK 924 INTRA-LIGAND FREE ENERGY PREDICTED BY IDOCK:   -0.85 KCAL/MOL
REMARK 927      BINDING AFFINITY PREDICTED BY RF-SCORE:    0.00 PKD
ROOT
HETATM    1  C   UNL     1     -10.915   6.553  66.831  1.00  0.00    -0.338 C  
HETATM    2  N   UNL     1     -10.945   5.168  66.418  1.00  0.00    -0.545 NA 
HETATM    3  H   UNL     1     -11.833   4.688  66.558  1.00  0.00     0.000 HD 
ENDROOT
BRANCH   2   4
HETATM    4  C   UNL     1      -9.936   4.401  65.859  1.00  0.00    -0.240 C  
HETATM    5  C   UNL     1     -10.159   3.779  64.680  1.00  0.00    -0.191 C  
HETATM    6  O   UNL     1      -8.033   2.863  64.462  1.00  0.00    -0.080 OA 
HETATM    7  N   UNL     1      -9.175   2.975  63.997  1.00  0.00    -0.108 N  
HETATM    8  O   UNL     1      -9.563   2.440  62.948  1.00  0.00    -0.090 OA 
BRANCH   4   9
HETATM    9  N   UNL     1      -8.748   4.288  66.554  1.00  0.00    -0.112 NA 
HETATM   10  H   UNL     1      -7.907   4.476  66.008  1.00  0.00     0.000 HD 
BRANCH   9  11
HETATM   11  C   UNL     1      -8.515   3.941  67.942  1.00  0.00    -0.094 C  
BRANCH  11  12
HETATM   12  C   UNL     1      -8.044   5.177  68.716  1.00  0.00    -0.085 C  
BRANCH  12  13
HETATM   13  S   UNL     1      -7.162   6.379  67.663  1.00  0.00    -0.088 SA 
BRANCH  13  14
HETATM   14  C   UNL     1      -7.714   7.932  68.442  1.00  0.00    -0.114 C  
BRANCH  14  15
HETATM   15  C   UNL     1      -7.546   9.070  67.510  1.00  0.00    -0.089 A  
HETATM   16  C   UNL     1      -7.530  10.436  67.671  1.00  0.00    -0.089 A  
HETATM   17  C   UNL     1      -7.333  10.983  66.380  1.00  0.00    -0.128 A  
HETATM   18  C   UNL     1      -7.249   9.917  65.510  1.00  0.00    -0.122 A  
HETATM   19  O   UNL     1      -7.389   8.748  66.195  1.00  0.00    -0.084 OA 
BRANCH  18  20
HETATM   20  C   UNL     1      -7.062   9.802  64.033  1.00  0.00    -0.123 C  
BRANCH  20  21
HETATM   21  N   UNL     1      -7.440   8.480  63.495  1.00  0.00    -0.107 NA 
HETATM   22  C   UNL     1      -8.362   8.607  62.361  1.00  0.00    -0.200 C  
HETATM   23  C   UNL     1      -6.232   7.769  63.067  1.00  0.00    -0.067 C  
ENDBRANCH  20  21
ENDBRANCH  18  20
ENDBRANCH  14  15
ENDBRANCH  13  14
ENDBRANCH  12  13
ENDBRANCH  11  12
ENDBRANCH   9  11
ENDBRANCH   4   9
ENDBRANCH   2   4
TORSDOF 9
ENDMDL
MODEL      366
REMARK 921   NORMALIZED FREE ENERGY PREDICTED BY IDOCK:   -2.33 KCAL/MOL
REMARK 922        TOTAL FREE ENERGY PREDICTED BY IDOCK:   -3.95 KCAL/MOL
REMARK 923 INTER-LIGAND FREE ENERGY PREDICTED BY IDOCK:   -3.75 KCAL/MOL
REMARK 924 INTRA-LIGAND FREE ENERGY PREDICTED BY IDOCK:   -0.19 KCAL/MOL
REMARK 927      BINDING AFFINITY PREDICTED BY RF-SCORE:    0.00 PKD
ROOT
HETATM    1  C   UNL     1     -10.562   8.078  69.959  1.00  0.00    -0.242 C  
HETATM    2  N   UNL     1      -9.796   6.893  69.645  1.00  0.00    -0.166 NA 
HETATM    3  H   UNL     1     -10.326   6.023  69.619  1.00  0.00     0.000 HD 
ENDROOT
BRANCH   2   4
HETATM    4  C   UNL     1      -8.443   6.773  69.374  1.00  0.00    -0.132 C  
HETATM    5  C   UNL     1      -7.972   5.608  68.878  1.00  0.00    -0.097 C  
HETATM    6  O   UNL     1      -5.762   6.294  68.649  1.00  0.00    -0.014 OA 
HETATM    7  N   UNL     1      -6.588   5.379  68.539  1.00  0.00    -0.043 N  
HETATM    8  O   UNL     1      -6.322   4.235  68.140  1.00  0.00    -0.035 OA 
BRANCH   4   9
HETATM    9  N   UNL     1      -7.628   7.855  69.649  1.00  0.00    -0.095 NA 
HETATM   10  H   UNL     1      -6.857   7.664  70.289  1.00  0.00     0.000 HD 
BRANCH   9  11
HETATM   11  C   UNL     1      -7.704   9.219  69.167  1.00  0.00    -0.078 C  
BRANCH  11  12
HETATM   12  C   UNL     1      -7.481   9.248  67.651  1.00  0.00    -0.088 C  
BRANCH  12  13
HETATM   13  S   UNL     1      -7.331  10.942  66.989  1.00  0.00    -0.125 SA 
BRANCH  13  14
HETATM   14  C   UNL     1      -8.844  11.680  67.688  1.00  0.00    -0.159 C  
BRANCH  14  15
HETATM   15  C   UNL     1      -9.495  12.567  66.698  1.00  0.00    -0.242 A  
HETATM   16  C   UNL     1      -9.857  12.416  65.379  1.00  0.00    -0.200 A  
HETATM   17  C   UNL     1     -10.440  13.646  64.987  1.00  0.00    -0.406 A  
HETATM   18  C   UNL     1     -10.391  14.474  66.089  1.00  0.00    -0.297 A  
HETATM   19  O   UNL     1      -9.804  13.822  67.132  1.00  0.00    -0.232 OA 
BRANCH  18  20
HETATM   20  C   UNL     1     -10.816  15.882  66.342  1.00  0.00    -0.193 C  
BRANCH  20  21
HETATM   21  N   UNL     1      -9.780  16.698  67.005  1.00  0.00    -0.243 NA 
HETATM   22  C   UNL     1      -8.544  16.739  66.217  1.00  0.00    -0.305 C  
HETATM   23  C   UNL     1     -10.285  18.060  67.196  1.00  0.00    -0.360 C  
ENDBRANCH  20  21
ENDBRANCH  18  20
ENDBRANCH  14  15
ENDBRANCH  13  14
ENDBRANCH  12  13
ENDBRANCH  11  12
ENDBRANCH   9  11
ENDBRANCH   4   9
ENDBRANCH   2   4
TORSDOF 9
ENDMDL
MODEL      367
REMARK 921   NORMALIZED FREE ENERGY PREDICTED BY IDOCK:   -2.31 KCAL/MOL
REMARK 922        TOTAL FREE ENERGY PREDICTED BY IDOCK:   -3.91 KCAL/MOL
REMARK 923 INTER-LIGAND FREE ENERGY PREDICTED BY IDOCK:   -3.35 KCAL/MOL
REMARK 924 INTRA-LIGAND FREE ENERGY PREDICTED BY IDOCK:   -0.56 KCAL/MOL
REMARK 927      BINDING AFFINITY PREDICTED BY RF-SCORE:    0.00 PKD
ROOT
HETATM    1  C   UNL     1      -5.662   6.137  66.030  1.00  0.00    -0.020 C  
HETATM    2  N   UNL     1      -5.979   7.237  65.147  1.00  0.00    -0.037 NA 
HETATM    3  H   UNL     1      -5.454   7.263  64.274  1.00  0.00     0.000 HD 
ENDROOT
BRANCH   2   4
HETATM    4  C   UNL     1      -6.895   8.260  65.321  1.00  0.00    -0.059 C  
HETATM    5  C   UNL     1      -7.754   8.552  64.319  1.00  0.00    -0.130 C  
HETATM    6  O   UNL     1      -8.913  10.224  65.446  1.00  0.00    -0.159 OA 
HETATM    7  N   UNL     1      -8.762   9.582  64.399  1.00  0.00    -0.197 N  
HETATM    8  O   UNL     1      -9.434   9.746  63.369  1.00  0.00    -0.211 OA 
BRANCH   4   9
HETATM    9  N   UNL     1      -6.869   8.958  66.514  1.00  0.00    -0.078 NA 
HETATM   10  H   UNL     1      -7.764   9.020  66.998  1.00  0.00     0.000 HD 
BRANCH   9  11
HETATM   11  C   UNL     1      -5.762   9.614  67.180  1.00  0.00    -0.051 C  
BRANCH  11  12
HETATM   12  C   UNL     1      -5.468  10.957  66.503  1.00  0.00    -0.092 C  
BRANCH  12  13
HETATM   13  S   UNL     1      -5.394  12.345  67.685  1.00  0.00    -0.111 SA 
BRANCH  13  14
HETATM   14  C   UNL     1      -6.823  11.929  68.737  1.00  0.00    -0.093 C  
BRANCH  14  15
HETATM   15  C   UNL     1      -8.063  12.520  68.189  1.00  0.00    -0.167 A  
HETATM   16  C   UNL     1      -8.372  13.744  67.640  1.00  0.00    -0.183 A  
HETATM   17  C   UNL     1      -9.748  13.692  67.310  1.00  0.00    -0.243 A  
HETATM   18  C   UNL     1     -10.196  12.443  67.684  1.00  0.00    -0.207 A  
HETATM   19  O   UNL     1      -9.173  11.729  68.231  1.00  0.00    -0.180 OA 
BRANCH  18  20
HETATM   20  C   UNL     1     -11.524  11.763  67.626  1.00  0.00    -0.300 C  
BRANCH  20  21
HETATM   21  N   UNL     1     -12.282  11.848  68.890  1.00  0.00    -0.265 NA 
HETATM   22  C   UNL     1     -11.830  10.842  69.856  1.00  0.00    -0.335 C  
HETATM   23  C   UNL     1     -12.118  13.187  69.463  1.00  0.00    -0.238 C  
ENDBRANCH  20  21
ENDBRANCH  18  20
ENDBRANCH  14  15
ENDBRANCH  13  14
ENDBRANCH  12  13
ENDBRANCH  11  12
ENDBRANCH   9  11
ENDBRANCH   4   9
ENDBRANCH   2   4
TORSDOF 9
ENDMDL
MODEL      368
REMARK 921   NORMALIZED FREE ENERGY PREDICTED BY IDOCK:   -2.27 KCAL/MOL
REMARK 922        TOTAL FREE ENERGY PREDICTED BY IDOCK:   -3.86 KCAL/MOL
REMARK 923 INTER-LIGAND FREE ENERGY PREDICTED BY IDOCK:   -3.32 KCAL/MOL
REMARK 924 INTRA-LIGAND FREE ENERGY PREDICTED BY IDOCK:   -0.54 KCAL/MOL
REMARK 927      BINDING AFFINITY PREDICTED BY RF-SCORE:    0.00 PKD
ROOT
HETATM    1  C   UNL     1     -13.267  11.921  71.604  1.00  0.00    -0.262 C  
HETATM    2  N   UNL     1     -13.140  11.078  70.436  1.00  0.00    -0.037 NA 
HETATM    3  H   UNL     1     -13.999  10.623  70.129  1.00  0.00     0.000 HD 
ENDROOT
BRANCH   2   4
HETATM    4  C   UNL     1     -12.016  10.801  69.677  1.00  0.00    -0.313 C  
HETATM    5  C   UNL     1     -11.574  11.724  68.793  1.00  0.00    -0.307 C  
HETATM    6  O   UNL     1      -9.708  10.533  68.080  1.00  0.00    -0.145 OA 
HETATM    7  N   UNL     1     -10.403  11.551  67.967  1.00  0.00    -0.184 N  
HETATM    8  O   UNL     1     -10.169  12.480  67.179  1.00  0.00    -0.216 OA 
BRANCH   4   9
HETATM    9  N   UNL     1     -11.408   9.571  69.842  1.00  0.00    -0.398 NA 
HETATM   10  H   UNL     1     -10.914   9.218  69.023  1.00  0.00     0.000 HD 
BRANCH   9  11
HETATM   11  C   UNL     1     -11.366   8.707  71.005  1.00  0.00    -0.274 C  
BRANCH  11  12
HETATM   12  C   UNL     1     -11.234   7.246  70.563  1.00  0.00    -0.279 C  
BRANCH  12  13
HETATM   13  S   UNL     1      -9.522   6.625  70.670  1.00  0.00    -0.169 SA 
BRANCH  13  14
HETATM   14  C   UNL     1      -8.798   7.904  71.749  1.00  0.00    -0.126 C  
BRANCH  14  15
HETATM   15  C   UNL     1      -7.693   7.341  72.555  1.00  0.00    -0.088 A  
HETATM   16  C   UNL     1      -6.433   7.786  72.885  1.00  0.00    -0.067 A  
HETATM   17  C   UNL     1      -5.854   6.773  73.687  1.00  0.00    -0.058 A  
HETATM   18  C   UNL     1      -6.792   5.768  73.791  1.00  0.00    -0.081 A  
HETATM   19  O   UNL     1      -7.912   6.106  73.092  1.00  0.00    -0.107 OA 
BRANCH  18  20
HETATM   20  C   UNL     1      -6.811   4.439  74.470  1.00  0.00    -0.066 C  
BRANCH  20  21
HETATM   21  N   UNL     1      -7.476   3.385  73.679  1.00  0.00    -0.059 NA 
HETATM   22  C   UNL     1      -6.530   2.338  73.279  1.00  0.00    -0.013 C  
HETATM   23  C   UNL     1      -8.555   2.792  74.474  1.00  0.00    -0.071 C  
ENDBRANCH  20  21
ENDBRANCH  18  20
ENDBRANCH  14  15
ENDBRANCH  13  14
ENDBRANCH  12  13
ENDBRANCH  11  12
ENDBRANCH   9  11
ENDBRANCH   4   9
ENDBRANCH   2   4
TORSDOF 9
ENDMDL
MODEL      369
REMARK 921   NORMALIZED FREE ENERGY PREDICTED BY IDOCK:   -2.14 KCAL/MOL
REMARK 922        TOTAL FREE ENERGY PREDICTED BY IDOCK:   -3.65 KCAL/MOL
REMARK 923 INTER-LIGAND FREE ENERGY PREDICTED BY IDOCK:   -3.65 KCAL/MOL
REMARK 924 INTRA-LIGAND FREE ENERGY PREDICTED BY IDOCK:    0.00 KCAL/MOL
REMARK 927      BINDING AFFINITY PREDICTED BY RF-SCORE:    0.00 PKD
ROOT
HETATM    1  C   UNL     1     -10.371   8.383  67.176  1.00  0.00    -0.311 C  
HETATM    2  N   UNL     1      -9.462   7.591  66.380  1.00  0.00    -0.304 NA 
HETATM    3  H   UNL     1      -9.875   6.780  65.920  1.00  0.00     0.000 HD 
ENDROOT
BRANCH   2   4
HETATM    4  C   UNL     1      -8.109   7.777  66.153  1.00  0.00    -0.113 C  
HETATM    5  C   UNL     1      -7.607   7.532  64.922  1.00  0.00    -0.100 C  
HETATM    6  O   UNL     1      -5.420   8.162  65.399  1.00  0.00    -0.035 OA 
HETATM    7  N   UNL     1      -6.220   7.713  64.568  1.00  0.00    -0.044 N  
HETATM    8  O   UNL     1      -5.924   7.397  63.406  1.00  0.00    -0.047 OA 
BRANCH   4   9
HETATM    9  N   UNL     1      -7.324   8.183  67.215  1.00  0.00    -0.087 NA 
HETATM   10  H   UNL     1      -6.731   7.458  67.618  1.00  0.00     0.000 HD 
BRANCH   9  11
HETATM   11  C   UNL     1      -7.216   9.485  67.843  1.00  0.00    -0.082 C  
BRANCH  11  12
HETATM   12  C   UNL     1      -7.135  10.576  66.770  1.00  0.00    -0.109 C  
BRANCH  12  13
HETATM   13  S   UNL     1      -6.121  12.002  67.285  1.00  0.00    -0.152 SA 
BRANCH  13  14
HETATM   14  C   UNL     1      -7.193  12.685  68.592  1.00  0.00    -0.108 C  
BRANCH  14  15
HETATM   15  C   UNL     1      -8.182  13.623  68.016  1.00  0.00    -0.162 A  
HETATM   16  C   UNL     1      -8.543  13.953  66.730  1.00  0.00    -0.066 A  
HETATM   17  C   UNL     1      -9.558  14.934  66.845  1.00  0.00    -0.256 A  
HETATM   18  C   UNL     1      -9.748  15.149  68.193  1.00  0.00    -0.217 A  
HETATM   19  O   UNL     1      -8.901  14.358  68.912  1.00  0.00    -0.157 OA 
BRANCH  18  20
HETATM   20  C   UNL     1     -10.642  16.048  68.980  1.00  0.00    -0.257 C  
BRANCH  20  21
HETATM   21  N   UNL     1     -11.994  15.493  69.192  1.00  0.00    -0.339 NA 
HETATM   22  C   UNL     1     -12.095  14.121  68.685  1.00  0.00    -0.285 C  
HETATM   23  C   UNL     1     -12.305  15.511  70.624  1.00  0.00    -0.416 C  
ENDBRANCH  20  21
ENDBRANCH  18  20
ENDBRANCH  14  15
ENDBRANCH  13  14
ENDBRANCH  12  13
ENDBRANCH  11  12
ENDBRANCH   9  11
ENDBRANCH   4   9
ENDBRANCH   2   4
TORSDOF 9
ENDMDL
MODEL      370
REMARK 921   NORMALIZED FREE ENERGY PREDICTED BY IDOCK:   -1.40 KCAL/MOL
REMARK 922        TOTAL FREE ENERGY PREDICTED BY IDOCK:   -2.53 KCAL/MOL
REMARK 923 INTER-LIGAND FREE ENERGY PREDICTED BY IDOCK:   -2.65 KCAL/MOL
REMARK 924 INTRA-LIGAND FREE ENERGY PREDICTED BY IDOCK:    0.12 KCAL/MOL
REMARK 927      BINDING AFFINITY PREDICTED BY RF-SCORE:    0.00 PKD
ROOT
HETATM    1  C   UNL     1     -11.942   6.890  70.829  1.00  0.00    -0.373 C  
HETATM    2  N   UNL     1     -10.649   6.317  70.528  1.00  0.00    -0.233 NA 
HETATM    3  H   UNL     1     -10.488   5.380  70.897  1.00  0.00     0.000 HD 
ENDROOT
BRANCH   2   4
HETATM    4  C   UNL     1      -9.598   6.861  69.809  1.00  0.00    -0.154 C  
HETATM    5  C   UNL     1      -8.456   6.151  69.673  1.00  0.00    -0.127 C  
HETATM    6  O   UNL     1      -7.350   7.689  68.325  1.00  0.00    -0.093 OA 
HETATM    7  N   UNL     1      -7.308   6.609  68.929  1.00  0.00    -0.091 N  
HETATM    8  O   UNL     1      -6.328   5.850  68.946  1.00  0.00    -0.037 OA 
BRANCH   4   9
HETATM    9  N   UNL     1      -9.760   8.128  69.282  1.00  0.00    -0.168 NA 
HETATM   10  H   UNL     1     -10.348   8.179  68.450  1.00  0.00     0.000 HD 
BRANCH   9  11
HETATM   11  C   UNL     1      -9.221   9.395  69.733  1.00  0.00    -0.196 C  
BRANCH  11  12
HETATM   12  C   UNL     1     -10.195  10.528  69.388  1.00  0.00    -0.221 C  
BRANCH  12  13
HETATM   13  S   UNL     1     -11.252  10.142  67.952  1.00  0.00    -0.024 SA 
BRANCH  13  14
HETATM   14  C   UNL     1     -10.556  11.308  66.736  1.00  0.00    -0.260 C  
BRANCH  14  15
HETATM   15  C   UNL     1      -9.091  11.132  66.626  1.00  0.00    -0.170 A  
HETATM   16  C   UNL     1      -8.288  10.197  66.014  1.00  0.00    -0.130 A  
HETATM   17  C   UNL     1      -6.953  10.585  66.284  1.00  0.00    -0.128 A  
HETATM   18  C   UNL     1      -7.023  11.728  67.051  1.00  0.00    -0.135 A  
HETATM   19  O   UNL     1      -8.327  12.059  67.272  1.00  0.00    -0.160 OA 
BRANCH  18  20
HETATM   20  C   UNL     1      -5.999  12.619  67.673  1.00  0.00    -0.142 C  
BRANCH  20  21
HETATM   21  N   UNL     1      -6.125  12.723  69.140  1.00  0.00    -0.086 NA 
HETATM   22  C   UNL     1      -7.349  13.433  69.524  1.00  0.00     0.404 C  
HETATM   23  C   UNL     1      -6.135  11.378  69.721  1.00  0.00    -0.124 C  
ENDBRANCH  20  21
ENDBRANCH  18  20
ENDBRANCH  14  15
ENDBRANCH  13  14
ENDBRANCH  12  13
ENDBRANCH  11  12
ENDBRANCH   9  11
ENDBRANCH   4   9
ENDBRANCH   2   4
TORSDOF 9
ENDMDL
MODEL      371
REMARK 921   NORMALIZED FREE ENERGY PREDICTED BY IDOCK:   -0.79 KCAL/MOL
REMARK 922        TOTAL FREE ENERGY PREDICTED BY IDOCK:   -1.60 KCAL/MOL
REMARK 923 INTER-LIGAND FREE ENERGY PREDICTED BY IDOCK:   -2.84 KCAL/MOL
REMARK 924 INTRA-LIGAND FREE ENERGY PREDICTED BY IDOCK:    1.24 KCAL/MOL
REMARK 927      BINDING AFFINITY PREDICTED BY RF-SCORE:    0.00 PKD
ROOT
HETATM    1  C   UNL     1     -10.240   3.328  63.863  1.00  0.00    -0.207 C  
HETATM    2  N   UNL     1     -10.025   3.682  65.248  1.00  0.00    -0.370 NA 
HETATM    3  H   UNL     1     -10.816   3.519  65.870  1.00  0.00     0.000 HD 
ENDROOT
BRANCH   2   4
HETATM    4  C   UNL     1      -8.896   4.211  65.849  1.00  0.00    -0.121 C  
HETATM    5  C   UNL     1      -8.917   4.472  67.176  1.00  0.00    -0.116 C  
HETATM    6  O   UNL     1      -6.713   5.198  67.335  1.00  0.00    -0.052 OA 
HETATM    7  N   UNL     1      -7.793   5.003  67.909  1.00  0.00    -0.090 N  
HETATM    8  O   UNL     1      -8.002   5.225  69.111  1.00  0.00    -0.087 OA 
BRANCH   4   9
HETATM    9  N   UNL     1      -7.799   4.474  65.051  1.00  0.00    -0.088 NA 
HETATM   10  H   UNL     1      -7.128   5.135  65.441  1.00  0.00     0.000 HD 
BRANCH   9  11
HETATM   11  C   UNL     1      -7.458   3.951  63.743  1.00  0.00    -0.055 C  
BRANCH  11  12
HETATM   12  C   UNL     1      -7.715   5.017  62.673  1.00  0.00    -0.064 C  
BRANCH  12  13
HETATM   13  S   UNL     1      -6.750   6.542  62.944  1.00  0.00    -0.043 SA 
BRANCH  13  14
HETATM   14  C   UNL     1      -8.041   7.786  62.612  1.00  0.00    -0.124 C  
BRANCH  14  15
HETATM   15  C   UNL     1      -7.917   8.927  63.546  1.00  0.00    -0.158 A  
HETATM   16  C   UNL     1      -6.935   9.340  64.418  1.00  0.00    -0.093 A  
HETATM   17  C   UNL     1      -7.426  10.515  65.037  1.00  0.00    -0.011 A  
HETATM   18  C   UNL     1      -8.680  10.743  64.511  1.00  0.00    -0.089 A  
HETATM   19  O   UNL     1      -8.987   9.769  63.608  1.00  0.00    -0.225 OA 
BRANCH  18  20
HETATM   20  C   UNL     1      -9.722  11.786  64.740  1.00  0.00    -0.161 C  
BRANCH  20  21
HETATM   21  N   UNL     1      -9.561  12.505  66.020  1.00  0.00    -0.235 NA 
HETATM   22  C   UNL     1     -10.829  13.090  66.469  1.00  0.00    -0.279 C  
HETATM   23  C   UNL     1      -9.062  11.577  67.037  1.00  0.00    -0.175 C  
ENDBRANCH  20  21
ENDBRANCH  18  20
ENDBRANCH  14  15
ENDBRANCH  13  14
ENDBRANCH  12  13
ENDBRANCH  11  12
ENDBRANCH   9  11
ENDBRANCH   4   9
ENDBRANCH   2   4
TORSDOF 9
ENDMDL
MODEL      372
REMARK 921   NORMALIZED FREE ENERGY PREDICTED BY IDOCK:   -0.74 KCAL/MOL
REMARK 922        TOTAL FREE ENERGY PREDICTED BY IDOCK:   -1.52 KCAL/MOL
REMARK 923 INTER-LIGAND FREE ENERGY PREDICTED BY IDOCK:   -0.90 KCAL/MOL
REMARK 924 INTRA-LIGAND FREE ENERGY PREDICTED BY IDOCK:   -0.62 KCAL/MOL
REMARK 927      BINDING AFFINITY PREDICTED BY RF-SCORE:    0.00 PKD
ROOT
HETATM    1  C   UNL     1     -11.512  20.322  67.297  1.00  0.00     1.489 C  
HETATM    2  N   UNL     1     -10.839  19.064  67.527  1.00  0.00    -0.446 NA 
HETATM    3  H   UNL     1     -10.694  18.818  68.506  1.00  0.00     0.000 HD 
ENDROOT
BRANCH   2   4
HETATM    4  C   UNL     1     -10.362  18.146  66.607  1.00  0.00    -0.376 C  
HETATM    5  C   UNL     1     -11.035  16.988  66.422  1.00  0.00     0.196 C  
HETATM    6  O   UNL     1      -9.666  16.154  64.738  1.00  0.00     0.191 OA 
HETATM    7  N   UNL     1     -10.643  15.972  65.477  1.00  0.00    -0.391 N  
HETATM    8  O   UNL     1     -11.349  14.952  65.471  1.00  0.00    -0.347 OA 
BRANCH   4   9
HETATM    9  N   UNL     1      -9.195  18.450  65.933  1.00  0.00    -0.452 NA 
HETATM   10  H   UNL     1      -9.022  17.896  65.094  1.00  0.00     0.000 HD 
BRANCH   9  11
HETATM   11  C   UNL     1      -8.179  19.437  66.238  1.00  0.00    -0.330 C  
BRANCH  11  12
HETATM   12  C   UNL     1      -6.787  18.848  65.986  1.00  0.00    -0.252 C  
BRANCH  12  13
HETATM   13  S   UNL     1      -6.788  17.024  65.938  1.00  0.00     0.615 SA 
BRANCH  13  14
HETATM   14  C   UNL     1      -5.406  16.686  67.077  1.00  0.00    -0.088 C  
BRANCH  14  15
HETATM   15  C   UNL     1      -5.907  16.127  68.352  1.00  0.00    -0.107 A  
HETATM   16  C   UNL     1      -5.321  15.860  69.569  1.00  0.00    -0.112 A  
HETATM   17  C   UNL     1      -6.343  15.319  70.387  1.00  0.00    -0.001 A  
HETATM   18  C   UNL     1      -7.486  15.283  69.618  1.00  0.00    -0.181 A  
HETATM   19  O   UNL     1      -7.221  15.765  68.371  1.00  0.00    -0.115 OA 
BRANCH  18  20
HETATM   20  C   UNL     1      -8.884  14.822  69.867  1.00  0.00     0.495 C  
BRANCH  20  21
HETATM   21  N   UNL     1      -9.616  14.475  68.633  1.00  0.00    -0.218 NA 
HETATM   22  C   UNL     1      -9.305  13.112  68.191  1.00  0.00    -0.217 C  
HETATM   23  C   UNL     1     -11.057  14.595  68.876  1.00  0.00    -0.254 C  
ENDBRANCH  20  21
ENDBRANCH  18  20
ENDBRANCH  14  15
ENDBRANCH  13  14
ENDBRANCH  12  13
ENDBRANCH  11  12
ENDBRANCH   9  11
ENDBRANCH   4   9
ENDBRANCH   2   4
TORSDOF 9
ENDMDL
MODEL      373
REMARK 921   NORMALIZED FREE ENERGY PREDICTED BY IDOCK:    0.23 KCAL/MOL
REMARK 922        TOTAL FREE ENERGY PREDICTED BY IDOCK:   -0.03 KCAL/MOL
REMARK 923 INTER-LIGAND FREE ENERGY PREDICTED BY IDOCK:   -3.92 KCAL/MOL
REMARK 924 INTRA-LIGAND FREE ENERGY PREDICTED BY IDOCK:    3.89 KCAL/MOL
REMARK 927      BINDING AFFINITY PREDICTED BY RF-SCORE:    0.00 PKD
ROOT
HETATM    1  C   UNL     1     -12.325  14.145  69.551  1.00  0.00    -0.231 C  
HETATM    2  N   UNL     1     -12.211  12.828  68.966  1.00  0.00    -0.112 NA 
HETATM    3  H   UNL     1     -12.442  12.769  67.975  1.00  0.00     0.000 HD 
ENDROOT
BRANCH   2   4
HETATM    4  C   UNL     1     -11.833  11.637  69.561  1.00  0.00    -0.348 C  
HETATM    5  C   UNL     1     -12.689  11.023  70.408  1.00  0.00    -0.218 C  
HETATM    6  O   UNL     1     -11.356   9.165  70.829  1.00  0.00    -0.258 OA 
HETATM    7  N   UNL     1     -12.410   9.770  71.066  1.00  0.00    -0.322 N  
HETATM    8  O   UNL     1     -13.289   9.374  71.846  1.00  0.00    -0.377 OA 
BRANCH   4   9
HETATM    9  N   UNL     1     -10.576  11.140  69.276  1.00  0.00    -0.335 NA 
HETATM   10  H   UNL     1     -10.298  10.325  69.823  1.00  0.00     0.000 HD 
BRANCH   9  11
HETATM   11  C   UNL     1      -9.592  11.602  68.318  1.00  0.00    -0.198 C  
BRANCH  11  12
HETATM   12  C   UNL     1      -9.900  11.021  66.934  1.00  0.00    -0.191 C  
BRANCH  12  13
HETATM   13  S   UNL     1     -10.312  12.303  65.702  1.00  0.00    -0.264 SA 
BRANCH  13  14
HETATM   14  C   UNL     1      -9.557  13.755  66.506  1.00  0.00    -0.285 C  
BRANCH  14  15
HETATM   15  C   UNL     1      -8.331  13.366  67.238  1.00  0.00    -0.176 A  
HETATM   16  C   UNL     1      -7.691  13.860  68.351  1.00  0.00    -0.139 A  
HETATM   17  C   UNL     1      -6.550  13.044  68.545  1.00  0.00    -0.088 A  
HETATM   18  C   UNL     1      -6.559  12.108  67.533  1.00  0.00    -0.132 A  
HETATM   19  O   UNL     1      -7.640  12.308  66.727  1.00  0.00    -0.046 OA 
BRANCH  18  20
HETATM   20  C   UNL     1      -5.651  10.985  67.157  1.00  0.00    -0.054 C  
BRANCH  20  21
HETATM   21  N   UNL     1      -5.747   9.823  68.063  1.00  0.00    -0.040 NA 
HETATM   22  C   UNL     1      -7.133   9.582  68.480  1.00  0.00    -0.070 C  
HETATM   23  C   UNL     1      -5.227   8.634  67.382  1.00  0.00    -0.034 C  
ENDBRANCH  20  21
ENDBRANCH  18  20
ENDBRANCH  14  15
ENDBRANCH  13  14
ENDBRANCH  12  13
ENDBRANCH  11  12
ENDBRANCH   9  11
ENDBRANCH   4   9
ENDBRANCH   2   4
TORSDOF 9
ENDMDL
MODEL      374
REMARK 921   NORMALIZED FREE ENERGY PREDICTED BY IDOCK:    6.59 KCAL/MOL
REMARK 922        TOTAL FREE ENERGY PREDICTED BY IDOCK:    9.66 KCAL/MOL
REMARK 923 INTER-LIGAND FREE ENERGY PREDICTED BY IDOCK:    8.49 KCAL/MOL
REMARK 924 INTRA-LIGAND FREE ENERGY PREDICTED BY IDOCK:    1.17 KCAL/MOL
REMARK 927      BINDING AFFINITY PREDICTED BY RF-SCORE:    0.00 PKD
ROOT
HETATM    1  C   UNL     1     -10.978   2.972  64.297  1.00  0.00     0.391 C  
HETATM    2  N   UNL     1     -11.160   2.829  65.724  1.00  0.00     3.208 NA 
HETATM    3  H   UNL     1     -12.112   2.623  66.025  1.00  0.00     0.000 HD 
ENDROOT
BRANCH   2   4
HETATM    4  C   UNL     1     -10.224   2.933  66.739  1.00  0.00     1.691 C  
HETATM    5  C   UNL     1     -10.637   2.864  68.025  1.00  0.00     3.552 C  
HETATM    6  O   UNL     1      -8.526   3.020  68.987  1.00  0.00    -0.062 OA 
HETATM    7  N   UNL     1      -9.749   2.938  69.160  1.00  0.00     0.041 N  
HETATM    8  O   UNL     1     -10.303   2.905  70.269  1.00  0.00     0.797 OA 
BRANCH   4   9
HETATM    9  N   UNL     1      -8.903   3.128  66.386  1.00  0.00    -0.136 NA 
HETATM   10  H   UNL     1      -8.543   4.067  66.559  1.00  0.00     0.000 HD 
BRANCH   9  11
HETATM   11  C   UNL     1      -7.952   2.201  65.807  1.00  0.00    -0.082 C  
BRANCH  11  12
HETATM   12  C   UNL     1      -8.473   1.695  64.457  1.00  0.00    -0.084 C  
BRANCH  12  13
HETATM   13  S   UNL     1      -7.247   1.864  63.116  1.00  0.00    -0.041 SA 
BRANCH  13  14
HETATM   14  C   UNL     1      -7.844   3.405  62.346  1.00  0.00    -0.062 C  
BRANCH  14  15
HETATM   15  C   UNL     1      -7.246   4.584  63.011  1.00  0.00    -0.044 A  
HETATM   16  C   UNL     1      -6.149   4.764  63.822  1.00  0.00    -0.022 A  
HETATM   17  C   UNL     1      -6.115   6.144  64.138  1.00  0.00    -0.026 A  
HETATM   18  C   UNL     1      -7.197   6.720  63.507  1.00  0.00    -0.066 A  
HETATM   19  O   UNL     1      -7.896   5.768  62.827  1.00  0.00    -0.080 OA 
BRANCH  18  20
HETATM   20  C   UNL     1      -7.735   8.111  63.444  1.00  0.00    -0.143 C  
BRANCH  20  21
HETATM   21  N   UNL     1      -7.466   8.900  64.662  1.00  0.00    -0.101 NA 
HETATM   22  C   UNL     1      -8.513   9.902  64.893  1.00  0.00    -0.161 C  
HETATM   23  C   UNL     1      -7.387   8.000  65.814  1.00  0.00    -0.079 C  
ENDBRANCH  20  21
ENDBRANCH  18  20
ENDBRANCH  14  15
ENDBRANCH  13  14
ENDBRANCH  12  13
ENDBRANCH  11  12
ENDBRANCH   9  11
ENDBRANCH   4   9
ENDBRANCH   2   4
TORSDOF 9
ENDMDL
MODEL      375
REMARK 921   NORMALIZED FREE ENERGY PREDICTED BY IDOCK:    6.71 KCAL/MOL
REMARK 922        TOTAL FREE ENERGY PREDICTED BY IDOCK:    9.85 KCAL/MOL
REMARK 923 INTER-LIGAND FREE ENERGY PREDICTED BY IDOCK:    6.57 KCAL/MOL
REMARK 924 INTRA-LIGAND FREE ENERGY PREDICTED BY IDOCK:    3.28 KCAL/MOL
REMARK 927      BINDING AFFINITY PREDICTED BY RF-SCORE:    0.00 PKD
ROOT
HETATM    1  C   UNL     1     -10.959   2.977  64.294  1.00  0.00     0.391 C  
HETATM    2  N   UNL     1     -11.073   2.844  65.728  1.00  0.00     2.956 NA 
HETATM    3  H   UNL     1     -12.009   2.635  66.076  1.00  0.00     0.000 HD 
ENDROOT
BRANCH   2   4
HETATM    4  C   UNL     1     -10.092   2.961  66.698  1.00  0.00     1.226 C  
HETATM    5  C   UNL     1     -10.444   2.901  68.002  1.00  0.00     2.845 C  
HETATM    6  O   UNL     1      -8.291   3.076  68.863  1.00  0.00    -0.059 OA 
HETATM    7  N   UNL     1      -9.504   2.989  69.093  1.00  0.00    -0.145 N  
HETATM    8  O   UNL     1     -10.005   2.963  70.227  1.00  0.00     0.076 OA 
BRANCH   4   9
HETATM    9  N   UNL     1      -8.790   3.160  66.281  1.00  0.00    -0.135 NA 
HETATM   10  H   UNL     1      -8.155   3.513  66.997  1.00  0.00     0.000 HD 
BRANCH   9  11
HETATM   11  C   UNL     1      -8.189   2.942  64.981  1.00  0.00    -0.087 C  
BRANCH  11  12
HETATM   12  C   UNL     1      -8.891   3.811  63.931  1.00  0.00    -0.103 C  
BRANCH  12  13
HETATM   13  S   UNL     1      -7.791   5.071  63.202  1.00  0.00    -0.085 SA 
BRANCH  13  14
HETATM   14  C   UNL     1      -8.423   6.556  64.050  1.00  0.00     0.265 C  
BRANCH  14  15
HETATM   15  C   UNL     1      -7.442   7.044  65.045  1.00  0.00    -0.093 A  
HETATM   16  C   UNL     1      -6.096   6.833  65.236  1.00  0.00    -0.035 A  
HETATM   17  C   UNL     1      -5.737   7.587  66.380  1.00  0.00    -0.036 A  
HETATM   18  C   UNL     1      -6.888   8.206  66.820  1.00  0.00    -0.069 A  
HETATM   19  O   UNL     1      -7.933   7.868  66.014  1.00  0.00    -0.094 OA 
BRANCH  18  20
HETATM   20  C   UNL     1      -7.199   9.114  67.963  1.00  0.00    -0.079 C  
BRANCH  20  21
HETATM   21  N   UNL     1      -6.345   8.883  69.146  1.00  0.00    -0.042 NA 
HETATM   22  C   UNL     1      -7.049   9.217  70.388  1.00  0.00    -0.091 C  
HETATM   23  C   UNL     1      -5.934   7.477  69.178  1.00  0.00    -0.033 C  
ENDBRANCH  20  21
ENDBRANCH  18  20
ENDBRANCH  14  15
ENDBRANCH  13  14
ENDBRANCH  12  13
ENDBRANCH  11  12
ENDBRANCH   9  11
ENDBRANCH   4   9
ENDBRANCH   2   4
TORSDOF 9
ENDMDL
MODEL      376
REMARK 921   NORMALIZED FREE ENERGY PREDICTED BY IDOCK:   11.89 KCAL/MOL
REMARK 922        TOTAL FREE ENERGY PREDICTED BY IDOCK:   17.76 KCAL/MOL
REMARK 923 INTER-LIGAND FREE ENERGY PREDICTED BY IDOCK:    7.88 KCAL/MOL
REMARK 924 INTRA-LIGAND FREE ENERGY PREDICTED BY IDOCK:    9.89 KCAL/MOL
REMARK 927      BINDING AFFINITY PREDICTED BY RF-SCORE:    0.00 PKD
ROOT
HETATM    1  C   UNL     1     -10.842   3.441  63.266  1.00  0.00    -0.183 C  
HETATM    2  N   UNL     1     -10.763   4.867  63.491  1.00  0.00     0.446 NA 
HETATM    3  H   UNL     1     -11.531   5.268  64.028  1.00  0.00     0.000 HD 
ENDROOT
BRANCH   2   4
HETATM    4  C   UNL     1      -9.792   5.764  63.080  1.00  0.00     2.019 C  
HETATM    5  C   UNL     1     -10.123   7.065  62.922  1.00  0.00     5.920 C  
HETATM    6  O   UNL     1      -7.996   7.809  62.347  1.00  0.00    -0.128 OA 
HETATM    7  N   UNL     1      -9.189   8.089  62.520  1.00  0.00     0.877 N  
HETATM    8  O   UNL     1      -9.673   9.222  62.380  1.00  0.00     0.468 OA 
BRANCH   4   9
HETATM    9  N   UNL     1      -8.525   5.276  62.824  1.00  0.00    -0.125 NA 
HETATM   10  H   UNL     1      -8.493   4.327  62.452  1.00  0.00     0.000 HD 
BRANCH   9  11
HETATM   11  C   UNL     1      -7.234   5.909  63.005  1.00  0.00    -0.053 C  
BRANCH  11  12
HETATM   12  C   UNL     1      -7.424   7.347  63.500  1.00  0.00    -0.104 C  
BRANCH  12  13
HETATM   13  S   UNL     1      -5.905   8.054  64.223  1.00  0.00    -0.053 SA 
BRANCH  13  14
HETATM   14  C   UNL     1      -6.634   9.022  65.584  1.00  0.00    -0.068 C  
BRANCH  14  15
HETATM   15  C   UNL     1      -6.962   8.145  66.730  1.00  0.00    -0.073 A  
HETATM   16  C   UNL     1      -6.853   6.791  66.952  1.00  0.00    -0.065 A  
HETATM   17  C   UNL     1      -7.348   6.566  68.260  1.00  0.00    -0.087 A  
HETATM   18  C   UNL     1      -7.735   7.794  68.752  1.00  0.00    -0.113 A  
HETATM   19  O   UNL     1      -7.511   8.759  67.816  1.00  0.00    -0.091 OA 
BRANCH  18  20
HETATM   20  C   UNL     1      -8.340   8.246  70.039  1.00  0.00    -0.121 C  
BRANCH  20  21
HETATM   21  N   UNL     1      -9.807   8.403  69.975  1.00  0.00    -0.180 NA 
HETATM   22  C   UNL     1     -10.335   7.981  68.674  1.00  0.00    -0.200 C  
HETATM   23  C   UNL     1     -10.425   7.606  71.038  1.00  0.00    -0.211 C  
ENDBRANCH  20  21
ENDBRANCH  18  20
ENDBRANCH  14  15
ENDBRANCH  13  14
ENDBRANCH  12  13
ENDBRANCH  11  12
ENDBRANCH   9  11
ENDBRANCH   4   9
ENDBRANCH   2   4
TORSDOF 9
ENDMDL
MODEL      377
REMARK 921   NORMALIZED FREE ENERGY PREDICTED BY IDOCK:   17.49 KCAL/MOL
REMARK 922        TOTAL FREE ENERGY PREDICTED BY IDOCK:   26.30 KCAL/MOL
REMARK 923 INTER-LIGAND FREE ENERGY PREDICTED BY IDOCK:   14.27 KCAL/MOL
REMARK 924 INTRA-LIGAND FREE ENERGY PREDICTED BY IDOCK:   12.03 KCAL/MOL
REMARK 927      BINDING AFFINITY PREDICTED BY RF-SCORE:    0.00 PKD
ROOT
HETATM    1  C   UNL     1     -13.189  10.500  72.096  1.00  0.00    -0.293 C  
HETATM    2  N   UNL     1     -11.806  10.152  71.865  1.00  0.00    -0.005 NA 
HETATM    3  H   UNL     1     -11.150  10.460  72.582  1.00  0.00     0.000 HD 
ENDROOT
BRANCH   2   4
HETATM    4  C   UNL     1     -11.244   9.459  70.805  1.00  0.00    -0.302 C  
HETATM    5  C   UNL     1     -10.284   8.540  71.054  1.00  0.00    -0.203 C  
HETATM    6  O   UNL     1     -10.006   7.848  68.851  1.00  0.00    -0.180 OA 
HETATM    7  N   UNL     1      -9.647   7.746  70.032  1.00  0.00    -0.161 N  
HETATM    8  O   UNL     1      -8.754   6.984  70.432  1.00  0.00    -0.144 OA 
BRANCH   4   9
HETATM    9  N   UNL     1     -11.679   9.762  69.529  1.00  0.00    -0.450 NA 
HETATM   10  H   UNL     1     -11.156  10.500  69.057  1.00  0.00     0.000 HD 
BRANCH   9  11
HETATM   11  C   UNL     1     -12.766   9.191  68.761  1.00  0.00     5.136 C  
BRANCH  11  12
HETATM   12  C   UNL     1     -12.785   9.798  67.353  1.00  0.00     8.790 C  
BRANCH  12  13
HETATM   13  S   UNL     1     -11.394   9.230  66.318  1.00  0.00     3.036 SA 
BRANCH  13  14
HETATM   14  C   UNL     1     -10.088   9.131  67.586  1.00  0.00    -0.220 C  
BRANCH  14  15
HETATM   15  C   UNL     1      -9.094   8.095  67.229  1.00  0.00    -0.138 A  
HETATM   16  C   UNL     1      -8.963   6.759  67.530  1.00  0.00    -0.115 A  
HETATM   17  C   UNL     1      -7.781   6.323  66.883  1.00  0.00    -0.100 A  
HETATM   18  C   UNL     1      -7.258   7.421  66.235  1.00  0.00    -0.078 A  
HETATM   19  O   UNL     1      -8.051   8.508  66.453  1.00  0.00    -0.100 OA 
BRANCH  18  20
HETATM   20  C   UNL     1      -6.042   7.645  65.398  1.00  0.00    -0.038 C  
BRANCH  20  21
HETATM   21  N   UNL     1      -5.348   8.913  65.699  1.00  0.00    -0.037 NA 
HETATM   22  C   UNL     1      -5.185   9.733  64.494  1.00  0.00    -0.064 C  
HETATM   23  C   UNL     1      -6.115   9.659  66.699  1.00  0.00    -0.063 C  
ENDBRANCH  20  21
ENDBRANCH  18  20
ENDBRANCH  14  15
ENDBRANCH  13  14
ENDBRANCH  12  13
ENDBRANCH  11  12
ENDBRANCH   9  11
ENDBRANCH   4   9
ENDBRANCH   2   4
TORSDOF 9
ENDMDL
MODEL      378
REMARK 921   NORMALIZED FREE ENERGY PREDICTED BY IDOCK:   20.30 KCAL/MOL
REMARK 922        TOTAL FREE ENERGY PREDICTED BY IDOCK:   30.59 KCAL/MOL
REMARK 923 INTER-LIGAND FREE ENERGY PREDICTED BY IDOCK:   28.40 KCAL/MOL
REMARK 924 INTRA-LIGAND FREE ENERGY PREDICTED BY IDOCK:    2.18 KCAL/MOL
REMARK 927      BINDING AFFINITY PREDICTED BY RF-SCORE:    0.00 PKD
ROOT
HETATM    1  C   UNL     1     -13.189  10.500  72.096  1.00  0.00    -0.293 C  
HETATM    2  N   UNL     1     -11.806  10.152  71.865  1.00  0.00    -0.005 NA 
HETATM    3  H   UNL     1     -11.150  10.460  72.582  1.00  0.00     0.000 HD 
ENDROOT
BRANCH   2   4
HETATM    4  C   UNL     1     -11.244   9.459  70.805  1.00  0.00    -0.302 C  
HETATM    5  C   UNL     1     -10.284   8.540  71.054  1.00  0.00    -0.203 C  
HETATM    6  O   UNL     1     -10.006   7.848  68.851  1.00  0.00    -0.180 OA 
HETATM    7  N   UNL     1      -9.647   7.746  70.032  1.00  0.00    -0.161 N  
HETATM    8  O   UNL     1      -8.754   6.984  70.432  1.00  0.00    -0.144 OA 
BRANCH   4   9
HETATM    9  N   UNL     1     -11.679   9.762  69.529  1.00  0.00    -0.450 NA 
HETATM   10  H   UNL     1     -11.156  10.500  69.057  1.00  0.00     0.000 HD 
BRANCH   9  11
HETATM   11  C   UNL     1     -12.766   9.191  68.761  1.00  0.00     5.136 C  
BRANCH  11  12
HETATM   12  C   UNL     1     -12.785   9.798  67.353  1.00  0.00     8.790 C  
BRANCH  12  13
HETATM   13  S   UNL     1     -11.394   9.230  66.318  1.00  0.00     3.036 SA 
BRANCH  13  14
HETATM   14  C   UNL     1     -11.395   7.458  66.746  1.00  0.00     1.084 C  
BRANCH  14  15
HETATM   15  C   UNL     1     -10.882   6.650  65.618  1.00  0.00     2.709 A  
HETATM   16  C   UNL     1     -11.481   6.008  64.558  1.00  0.00     6.595 A  
HETATM   17  C   UNL     1     -10.435   5.397  63.825  1.00  0.00     2.483 A  
HETATM   18  C   UNL     1      -9.263   5.696  64.487  1.00  0.00     0.503 A  
HETATM   19  O   UNL     1      -9.533   6.452  65.589  1.00  0.00     0.101 OA 
BRANCH  18  20
HETATM   20  C   UNL     1      -7.829   5.354  64.254  1.00  0.00    -0.104 C  
BRANCH  20  21
HETATM   21  N   UNL     1      -7.103   4.995  65.488  1.00  0.00    -0.066 NA 
HETATM   22  C   UNL     1      -5.906   5.825  65.666  1.00  0.00    -0.021 C  
HETATM   23  C   UNL     1      -7.993   5.165  66.640  1.00  0.00    -0.104 C  
ENDBRANCH  20  21
ENDBRANCH  18  20
ENDBRANCH  14  15
ENDBRANCH  13  14
ENDBRANCH  12  13
ENDBRANCH  11  12
ENDBRANCH   9  11
ENDBRANCH   4   9
ENDBRANCH   2   4
TORSDOF 9
ENDMDL
